@<TRIPOS>MOLECULE
tmp/5k2aA11.pdb
 90 85 0 0 0
SMALL
GASTEIGER

@<TRIPOS>ATOM
      1  N         -6.9610   83.5420   57.9290 N.3   334  LEU334     -0.1245
      2  CA        -7.2590   84.3730   59.0910 C.3   334  LEU334      0.1561
      3  C         -6.1920   85.4410   59.3010 C.2   334  LEU334      0.2260
      4  O         -6.5050   86.5660   59.7070 O.2   334  LEU334     -0.2867
      5  CB        -7.3960   83.4960   60.3360 C.3   334  LEU334      0.0270
      6  CG        -7.8540   84.1780   61.6250 C.3   334  LEU334      0.0019
      7  CD1       -9.3300   84.5400   61.5510 C.3   334  LEU334      0.0001
      8  CD2       -7.5700   83.2870   62.8230 C.3   334  LEU334      0.0001
      9  N         -6.3710   87.9110   55.5910 N.3   337  LEU337     -0.1231
     10  CA        -7.5740   88.6120   55.1490 C.3   337  LEU337      0.1678
     11  C         -7.7180   90.0200   55.7210 C.2   337  LEU337      0.2434
     12  O         -8.1520   90.9090   54.9680 O.2   337  LEU337     -0.2733
     13  CB        -8.8160   87.7730   55.4750 C.3   337  LEU337      0.0284
     14  CG        -9.1980   86.7040   54.4500 C.3   337  LEU337      0.0019
     15  CD1      -10.3510   85.8590   54.9670 C.3   337  LEU337      0.0001
     16  CD2       -9.5510   87.3450   53.1190 C.3   337  LEU337      0.0001
     17  N         -7.4110   90.2950   57.0010 N.am  338  PRO338     -0.2729
     18  CA        -7.5430   91.6810   57.4930 C.3   338  PRO338      0.1401
     19  C         -6.8030   92.7050   56.6500 C.2   338  PRO338      0.2269
     20  O         -7.3490   93.7740   56.3510 O.2   338  PRO338     -0.2865
     21  CB        -6.9760   91.5920   58.9150 C.3   338  PRO338      0.0296
     22  CG        -7.2590   90.2100   59.3360 C.3   338  PRO338      0.0237
     23  CD        -7.0820   89.3680   58.1010 C.3   338  PRO338      0.0939
     24  N         -8.6800   93.1100   53.3690 N.3   341  ILE341     -0.1231
     25  CA        -9.9640   93.7800   53.5590 C.3   341  ILE341      0.1692
     26  C         -9.7610   95.2690   53.8220 C.2   341  ILE341      0.2591
     27  O        -10.5490   96.1060   53.3650 O.2   341  ILE341     -0.2718
     28  CB       -10.7490   93.0970   54.6950 C.3   341  ILE341      0.0266
     29  CG1      -11.1480   91.6800   54.2750 C.3   341  ILE341      0.0019
     30  CG2      -11.9810   93.9100   55.0710 C.3   341  ILE341      0.0020
     31  CD1      -11.7820   90.8680   55.3800 C.3   341  ILE341      0.0001
     32  N         -8.7040   95.6270   54.5590 N.am  342  ILE342     -0.1980
     33  CA        -8.3680   97.0370   54.7510 C.3   342  ILE342      0.1595
     34  C         -8.0760   97.7010   53.4090 C.2   342  ILE342      0.2287
     35  O         -8.5360   98.8160   53.1350 O.2   342  ILE342     -0.2864
     36  CB        -7.1810   97.1810   55.7200 C.3   342  ILE342      0.0276
     37  CG1       -7.5960   96.8070   57.1420 C.3   342  ILE342      0.0022
     38  CG2       -6.6400   98.5980   55.6740 C.3   342  ILE342      0.0022
     39  CD1       -6.4430   96.7410   58.1120 C.3   342  ILE342      0.0001
     40  N        -11.2850   98.6340   51.6550 N.3   345  PHE345     -0.1241
     41  CA       -11.8770   99.8730   52.1520 C.3   345  PHE345      0.1605
     42  C        -11.1260  101.0910   51.6300 C.2   345  PHE345      0.2264
     43  O        -11.7430  102.0840   51.2220 O.2   345  PHE345     -0.2867
     44  CB       -11.8940   99.8740   53.6800 C.3   345  PHE345      0.0534
     45  CG       -13.0370   99.1040   54.2740 C.ar  345  PHE345     -0.0203
     46  CD1      -14.2710   99.7060   54.4430 C.ar  345  PHE345     -0.0042
     47  CD2      -12.8810   97.7820   54.6630 C.ar  345  PHE345     -0.0042
     48  CE1      -15.3290   99.0090   54.9850 C.ar  345  PHE345     -0.0003
     49  CE2      -13.9390   97.0770   55.2100 C.ar  345  PHE345     -0.0003
     50  CZ       -15.1620   97.6920   55.3700 C.ar  345  PHE345     -0.0000
     51  N        -14.5240  107.1360   52.8960 N.3   352  CYS352     -0.1221
     52  CA       -14.1160  106.6700   54.2140 C.3   352  CYS352      0.1808
     53  C        -12.7390  107.2120   54.5660 C.2   352  CYS352      0.2601
     54  O        -11.8370  107.2550   53.7240 O.2   352  CYS352     -0.2717
     55  CB       -14.0900  105.1410   54.2680 C.3   352  CYS352      0.0970
     56  SG       -15.6550  104.3130   53.9110 S.3   352  CYS352     -0.0800
     57  N        -12.5820  107.6260   55.8200 N.am  353  SER353     -0.1952
     58  CA       -11.2580  107.9650   56.3150 C.3   353  SER353      0.1924
     59  C        -10.3700  106.7280   56.2980 C.2   353  SER353      0.2314
     60  O        -10.8390  105.5970   56.4580 O.2   353  SER353     -0.2863
     61  CB       -11.3460  108.5380   57.7310 C.3   353  SER353      0.2116
     62  OG       -11.8690  107.5810   58.6340 O.3   353  SER353     -0.2180
     63  N         -7.8530  103.8340   57.3430 N.3   355  ALA355     -0.1231
     64  CA        -7.6550  103.0750   58.5660 C.3   355  ALA355      0.1679
     65  C         -6.4830  103.6620   59.3500 C.2   355  ALA355      0.2434
     66  O         -5.4660  104.0360   58.7520 O.2   355  ALA355     -0.2733
     67  CB        -7.3920  101.6030   58.2400 C.3   355  ALA355      0.0304
     68  N         -6.5840  103.7660   60.6740 N.am  356  PRO356     -0.2729
     69  CA        -5.5210  104.4200   61.4440 C.3   356  PRO356      0.1401
     70  C         -4.2100  103.6540   61.3520 C.2   356  PRO356      0.2269
     71  O         -4.1700  102.4660   61.0220 O.2   356  PRO356     -0.2865
     72  CB        -6.0670  104.4270   62.8780 C.3   356  PRO356      0.0296
     73  CG        -7.0550  103.3020   62.9120 C.3   356  PRO356      0.0237
     74  CD        -7.6690  103.2650   61.5400 C.3   356  PRO356      0.0939
     75  N         -3.7540  100.4210   63.3590 N.3   359  LEU359     -0.1245
     76  CA        -4.4610   99.2640   62.8190 C.3   359  LEU359      0.1561
     77  C         -3.7300   98.6930   61.6110 C.2   359  LEU359      0.2260
     78  O         -3.6870   97.4710   61.4250 O.2   359  LEU359     -0.2867
     79  CB        -5.8950   99.6450   62.4540 C.3   359  LEU359      0.0270
     80  CG        -6.7810   98.5080   61.9430 C.3   359  LEU359      0.0019
     81  CD1       -6.8460   97.3830   62.9640 C.3   359  LEU359      0.0001
     82  CD2       -8.1730   99.0200   61.6120 C.3   359  LEU359      0.0001
     83  N          0.0600   90.8870   62.2420 N.3   366  LEU366     -0.1245
     84  CA        -0.7520   89.6720   62.2300 C.3   366  LEU366      0.1561
     85  C         -0.4030   88.7770   61.0480 C.2   366  LEU366      0.2260
     86  O         -0.3140   87.5510   61.1920 O.2   366  LEU366     -0.2867
     87  CB        -2.2360   90.0350   62.2020 C.3   366  LEU366      0.0270
     88  CG        -3.2100   88.8610   62.0870 C.3   366  LEU366      0.0019
     89  CD1       -3.1320   87.9750   63.3210 C.3   366  LEU366      0.0001
     90  CD2       -4.6330   89.3470   61.8580 C.3   366  LEU366      0.0001
@<TRIPOS>BOND
     1    43    42    2
     2    42    41    1
     3    40    41    1
     4    41    44    1
     5    51    52    1
     6    16    14    1
     7    35    34    2
     8    27    26    2
     9    24    25    1
    10    34    33    1
    11    25    26    1
    12    25    28    1
    13    44    45    1
    14    54    53    2
    15    26    32   am
    16    56    55    1
    17    52    55    1
    18    52    53    1
    19    45    46   ar
    20    45    47   ar
    21    29    28    1
    22    29    31    1
    23    46    48   ar
    24    14    15    1
    25    14    13    1
    26    32    33    1
    27    53    57   am
    28    47    49   ar
    29    28    30    1
    30    33    36    1
    31    12    11    2
    32    48    50   ar
    33    10    13    1
    34    10     9    1
    35    10    11    1
    36    49    50   ar
    37    38    36    1
    38    36    37    1
    39    11    17   am
    40    57    58    1
    41    59    58    1
    42    59    60    2
    43    58    61    1
    44    20    19    2
    45    19    18    1
    46    17    18    1
    47    17    23    1
    48    37    39    1
    49    63    64    1
    50    18    21    1
    51    61    62    1
    52     1     2    1
    53    23    22    1
    54    67    64    1
    55    64    65    1
    56    66    65    2
    57    21    22    1
    58     2     3    1
    59     2     5    1
    60     3     4    2
    61    65    68   am
    62     5     6    1
    63    68    69    1
    64    68    74    1
    65    71    70    2
    66    85    86    2
    67    85    84    1
    68    70    69    1
    69    78    77    2
    70    69    72    1
    71    74    73    1
    72     7     6    1
    73    77    76    1
    74    82    80    1
    75     6     8    1
    76    90    88    1
    77    80    79    1
    78    80    81    1
    79    88    87    1
    80    88    89    1
    81    87    84    1
    82    84    83    1
    83    79    76    1
    84    76    75    1
    85    72    73    1
