@<TRIPOS>MOLECULE
tmp/5k2aA15.pdb
 97 91 0 0 0
SMALL
GASTEIGER

@<TRIPOS>ATOM
      1  N         12.1270   71.6660   58.8160 N.3    31  CYS31      -0.1235
      2  CA        13.0330   71.1620   57.7880 C.3    31  CYS31       0.1677
      3  C         13.9780   70.1100   58.3540 C.2    31  CYS31       0.2270
      4  O         14.2840   69.1150   57.6850 O.2    31  CYS31      -0.2867
      5  CB        13.8290   72.3150   57.1780 C.3    31  CYS31       0.0956
      6  SG        12.8340   73.5620   56.3320 S.3    31  CYS31      -0.0801
      7  N         12.1500   66.6380   58.6700 N.3    34  VAL34      -0.1231
      8  CA        11.9550   65.9270   57.4110 C.3    34  VAL34       0.1692
      9  C         13.2800   65.3760   56.8980 C.2    34  VAL34       0.2592
     10  O         13.3440   64.2550   56.3790 O.2    34  VAL34      -0.2718
     11  CB        11.2790   66.8470   56.3780 C.3    34  VAL34       0.0266
     12  CG1       11.1950   66.1600   55.0250 C.3    34  VAL34       0.0020
     13  CG2        9.8940   67.2480   56.8600 C.3    34  VAL34       0.0020
     14  N         14.3580   66.1510   57.0380 N.am   35  TRP35      -0.1976
     15  CA        15.6790   65.6610   56.6600 C.3    35  TRP35       0.1640
     16  C         16.0580   64.4190   57.4580 C.2    35  TRP35       0.2290
     17  O         16.6950   63.5010   56.9290 O.2    35  TRP35      -0.2864
     18  CB        16.7190   66.7640   56.8660 C.3    35  TRP35       0.0576
     19  CG        18.1400   66.3040   56.7150 C.ar   35  TRP35       0.0006
     20  CD1       18.9020   65.6680   57.6530 C.ar   35  TRP35       0.0946
     21  CD2       18.9730   66.4570   55.5610 C.ar   35  TRP35       0.0152
     22  NE1       20.1520   65.4070   57.1510 N.ar   35  TRP35      -0.2442
     23  CE2       20.2220   65.8840   55.8680 C.ar   35  TRP35       0.0810
     24  CE3       18.7820   67.0210   54.2960 C.ar   35  TRP35       0.0012
     25  CZ2       21.2750   65.8570   54.9580 C.ar   35  TRP35       0.0191
     26  CZ3       19.8290   66.9950   53.3940 C.ar   35  TRP35       0.0001
     27  CH2       21.0600   66.4170   53.7290 C.ar   35  TRP35       0.0015
     28  N          9.6220   61.6820   54.6130 N.3    41  GLN41      -0.1245
     29  CA        10.1760   61.9820   53.2940 C.3    41  GLN41       0.1566
     30  C          9.2320   61.4250   52.2320 C.2    41  GLN41       0.2260
     31  O          9.4790   60.3930   51.6090 O.2    41  GLN41      -0.2867
     32  CB        11.5890   61.4220   53.1670 C.3    41  GLN41       0.0367
     33  CG        12.5690   62.0530   54.1430 C.3    41  GLN41       0.0905
     34  CD        13.9940   61.5750   53.9540 C.2    41  GLN41       0.2608
     35  OE1       14.2890   60.7980   53.0450 O.2    41  GLN41      -0.2717
     36  NE2       14.8900   62.0400   54.8170 N.am   41  GLN41      -0.0878
     37  N          7.2660   67.4720   50.9120 N.3    46  TYR46      -0.1241
     38  CA         8.1570   68.3290   50.1390 C.3    46  TYR46       0.1605
     39  C          7.5560   69.7140   49.9600 C.2    46  TYR46       0.2264
     40  O          8.2860   70.7120   49.9430 O.2    46  TYR46      -0.2867
     41  CB         8.4660   67.7040   48.7770 C.3    46  TYR46       0.0534
     42  CG         9.2450   66.4080   48.8420 C.ar   46  TYR46      -0.0201
     43  CD1        9.8310   65.9810   50.0280 C.ar   46  TYR46      -0.0009
     44  CD2        9.4000   65.6130   47.7140 C.ar   46  TYR46      -0.0009
     45  CE1       10.5420   64.7950   50.0900 C.ar   46  TYR46       0.0417
     46  CE2       10.1110   64.4260   47.7650 C.ar   46  TYR46       0.0417
     47  CZ        10.6800   64.0220   48.9560 C.ar   46  TYR46       0.1957
     48  OH        11.3880   62.8420   49.0120 O.3    46  TYR46      -0.2866
     49  N          7.9800   71.4880   53.2640 N.3    49  VAL49      -0.1245
     50  CA         9.3040   72.0900   53.3860 C.3    49  VAL49       0.1561
     51  C          9.3930   73.3700   52.5600 C.2    49  VAL49       0.2260
     52  O          9.9290   74.3850   53.0220 O.2    49  VAL49      -0.2867
     53  CB        10.3880   71.0750   52.9840 C.3    49  VAL49       0.0252
     54  CG1       11.7320   71.7600   52.8810 C.3    49  VAL49       0.0019
     55  CG2       10.4440   69.9380   53.9950 C.3    49  VAL49       0.0019
     56  N         10.2470   76.8710   54.0730 N.3    53  ALA53      -0.1245
     57  CA        11.3160   77.7270   53.5670 C.3    53  ALA53       0.1562
     58  C         10.8080   79.1360   53.2910 C.2    53  ALA53       0.2260
     59  O         11.5320   80.1170   53.4980 O.2    53  ALA53      -0.2867
     60  CB        11.9300   77.1130   52.3080 C.3    53  ALA53       0.0290
     61  N         10.7060   80.8110   56.7230 N.3    56  ILE56      -0.1231
     62  CA        12.0410   81.2000   57.1670 C.3    56  ILE56       0.1692
     63  C         12.4470   82.5130   56.5110 C.2    56  ILE56       0.2591
     64  O         12.9980   83.4090   57.1620 O.2    56  ILE56      -0.2718
     65  CB        13.0530   80.0800   56.8620 C.3    56  ILE56       0.0266
     66  CG1       12.7640   78.8500   57.7220 C.3    56  ILE56       0.0019
     67  CG2       14.4790   80.5670   57.0760 C.3    56  ILE56       0.0020
     68  CD1       13.4800   77.5990   57.2510 C.3    56  ILE56       0.0001
     69  N         12.1650   82.6520   55.2140 N.am   57  ALA57      -0.1980
     70  CA        12.5020   83.8710   54.4950 C.3    57  ALA57       0.1597
     71  C         11.6950   85.0710   54.9700 C.2    57  ALA57       0.2287
     72  O         12.1250   86.2100   54.7620 O.2    57  ALA57      -0.2864
     73  CB        12.2950   83.6680   52.9940 C.3    57  ALA57       0.0319
     74  N         13.9050   86.1240   57.8960 N.3    60  VAL60      -0.1231
     75  CA        15.2500   86.5190   57.4930 C.3    60  VAL60       0.1692
     76  C         15.2230   87.7360   56.5700 C.2    60  VAL60       0.2591
     77  O         16.1440   88.5590   56.6010 O.2    60  VAL60      -0.2718
     78  CB        15.9680   85.3240   56.8380 C.3    60  VAL60       0.0266
     79  CG1       17.3320   85.7330   56.2970 C.3    60  VAL60       0.0020
     80  CG2       16.1220   84.1900   57.8370 C.3    60  VAL60       0.0020
     81  N         14.1820   87.8880   55.7510 N.am   61  LEU61      -0.1980
     82  CA        14.1830   88.9420   54.7420 C.3    61  LEU61       0.1596
     83  C         12.9700   89.8610   54.8280 C.2    61  LEU61       0.2287
     84  O         13.1210   91.0870   54.8440 O.2    61  LEU61      -0.2864
     85  CB        14.2610   88.3290   53.3430 C.3    61  LEU61       0.0297
     86  CG        15.6330   87.8280   52.8920 C.3    61  LEU61       0.0022
     87  CD1       15.5460   87.2190   51.5020 C.3    61  LEU61       0.0001
     88  CD2       16.6450   88.9610   52.9200 C.3    61  LEU61       0.0001
     89  N          9.3630   67.9550   42.7080 N.3   125  LYS125     -0.1245
     90  CA        10.4370   68.9440   42.7370 C.3   125  LYS125      0.1561
     91  C         10.3350   69.9040   41.5600 C.2   125  LYS125      0.2260
     92  O         10.5830   71.1060   41.7060 O.2   125  LYS125     -0.2867
     93  CB        11.7990   68.2480   42.7390 C.3   125  LYS125      0.0271
     94  CG        12.0490   67.3640   43.9470 C.3   125  LYS125      0.0035
     95  CD        13.3830   66.6460   43.8350 C.3   125  LYS125      0.0206
     96  CE        13.4160   65.4040   44.7100 C.3   125  LYS125      0.1093
     97  NZ        13.0640   65.7070   46.1230 N.3   125  LYS125     -0.1314
@<TRIPOS>BOND
     1    91    92    2
     2    91    90    1
     3    89    90    1
     4    90    93    1
     5    93    94    1
     6    95    94    1
     7    95    96    1
     8    96    97    1
     9    44    46   ar
    10    44    42   ar
    11    46    47   ar
    12    41    42    1
    13    41    38    1
    14    42    43   ar
    15    47    48    1
    16    47    45   ar
    17    40    39    2
    18    39    38    1
    19    43    45   ar
    20    38    37    1
    21    87    86    1
    22    31    30    2
    23    30    29    1
    24    60    57    1
    25    51    52    2
    26    51    50    1
    27    54    53    1
    28    86    88    1
    29    86    85    1
    30    53    50    1
    31    53    55    1
    32    73    70    1
    33    35    34    2
    34    32    29    1
    35    32    33    1
    36    49    50    1
    37    58    59    2
    38    58    57    1
    39    29    28    1
    40    85    82    1
    41    26    27   ar
    42    26    24   ar
    43    57    56    1
    44    27    25   ar
    45    34    33    1
    46    34    36   am
    47    24    21   ar
    48    70    71    1
    49    70    69    1
    50    82    83    1
    51    82    81    1
    52    72    71    2
    53    83    84    2
    54    25    23   ar
    55    12    11    1
    56    69    63   am
    57    21    23   ar
    58    21    19   ar
    59    81    76   am
    60    23    22   ar
    61    79    78    1
    62     6     5    1
    63    11    13    1
    64    11     8    1
    65    10     9    2
    66    63    64    2
    67    63    62    1
    68    76    77    2
    69    76    75    1
    70    15    18    1
    71    15    14    1
    72    15    16    1
    73    19    18    1
    74    19    20   ar
    75    61    62    1
    76    78    75    1
    77    78    80    1
    78    65    67    1
    79    65    62    1
    80    65    66    1
    81     9    14   am
    82     9     8    1
    83    17    16    2
    84    22    20   ar
    85     5     2    1
    86    68    66    1
    87     8     7    1
    88    75    74    1
    89     4     3    2
    90     2     3    1
    91     2     1    1
