@<TRIPOS>MOLECULE
tmp/5k2mJ00.pdb
 228 219 0 0 0
SMALL
GASTEIGER

@<TRIPOS>ATOM
      1  N         20.0660  -37.7970   71.3330 N.3    83  LYS83      -0.1245
      2  CA        20.2380  -38.3750   69.9910 C.3    83  LYS83       0.1561
      3  C         21.3520  -37.6860   69.2110 C.2    83  LYS83       0.2260
      4  O         22.0900  -38.3300   68.4640 O.2    83  LYS83      -0.2867
      5  CB        18.9540  -38.2930   69.1660 C.3    83  LYS83       0.0271
      6  CG        17.7630  -39.0850   69.7050 C.3    83  LYS83       0.0035
      7  CD        17.9380  -40.5850   69.5670 C.3    83  LYS83       0.0206
      8  CE        16.5880  -41.2900   69.5550 C.3    83  LYS83       0.1093
      9  NZ        15.9300  -41.2580   70.8850 N.3    83  LYS83      -0.1314
     10  N         12.5610  -39.0360   58.8670 N.3   120  VAL120     -0.1245
     11  CA        12.1190  -39.2640   60.2200 C.3   120  VAL120      0.1561
     12  C         12.5410  -38.1100   61.1150 C.2   120  VAL120      0.2260
     13  O         13.7210  -37.7600   61.1990 O.2   120  VAL120     -0.2867
     14  CB        12.6840  -40.5770   60.7880 C.3   120  VAL120      0.0252
     15  CG1       12.3140  -40.7370   62.2580 C.3   120  VAL120      0.0019
     16  CG2       12.1750  -41.7490   59.9700 C.3   120  VAL120      0.0019
     17  N         12.5110  -36.7820   65.0620 N.3   122  LYS122     -0.1245
     18  CA        12.3990  -37.3090   66.4120 C.3   122  LYS122      0.1561
     19  C         13.0320  -36.3480   67.4000 C.2   122  LYS122      0.2260
     20  O         13.9910  -35.6500   67.0620 O.2   122  LYS122     -0.2867
     21  CB        13.0210  -38.7200   66.5190 C.3   122  LYS122      0.0271
     22  CG        14.4860  -38.8130   66.1670 C.3   122  LYS122      0.0035
     23  CD        15.0630  -40.2210   66.3400 C.3   122  LYS122      0.0206
     24  CE        15.1090  -41.0260   65.0470 C.3   122  LYS122      0.1093
     25  NZ        16.0340  -42.1970   65.1480 N.3   122  LYS122     -0.1314
     26  N         14.1320  -37.9960   73.5340 N.3   126  GLY126     -0.1210
     27  CA        13.0400  -38.9430   73.6930 C.3   126  GLY126      0.1956
     28  C         13.4410  -40.3950   73.8570 C.2   126  GLY126      0.2613
     29  O         14.5940  -40.7650   73.6620 O.2   126  GLY126     -0.2717
     30  N         12.4500  -41.2010   74.2280 N.am  127  SER127     -0.1938
     31  CA        12.5670  -42.6420   74.3470 C.3   127  SER127      0.2055
     32  C         11.1770  -43.2570   74.0990 C.2   127  SER127      0.2643
     33  O         10.1910  -42.5290   73.9460 O.2   127  SER127     -0.2714
     34  CB        13.0910  -43.0270   75.7410 C.3   127  SER127      0.2130
     35  OG        13.2620  -44.4420   75.8690 O.3   127  SER127     -0.2179
     36  N         11.1060  -44.5890   74.0590 N.am  128  TRP128     -0.1959
     37  CA         9.8360  -45.3170   73.8670 C.3   128  TRP128      0.1771
     38  C          9.1250  -45.0170   72.5460 C.2   128  TRP128      0.2620
     39  O          7.9350  -45.2880   72.3970 O.2   128  TRP128     -0.2715
     40  CB         8.8770  -45.1020   75.0510 C.3   128  TRP128      0.0590
     41  CG         9.3720  -45.6950   76.3480 C.ar  128  TRP128      0.0006
     42  CD1       10.4910  -46.4610   76.5340 C.ar  128  TRP128      0.0946
     43  CD2        8.7260  -45.6250   77.6180 C.ar  128  TRP128      0.0152
     44  NE1       10.5980  -46.8400   77.8480 N.ar  128  TRP128     -0.2442
     45  CE2        9.5230  -46.3490   78.5360 C.ar  128  TRP128      0.0810
     46  CE3        7.5510  -45.0120   78.0780 C.ar  128  TRP128      0.0012
     47  CZ2        9.1920  -46.4700   79.8890 C.ar  128  TRP128      0.0191
     48  CZ3        7.2190  -45.1360   79.4260 C.ar  128  TRP128      0.0001
     49  CH2        8.0410  -45.8560   80.3150 C.ar  128  TRP128      0.0015
     50  N          9.8700  -44.4830   71.5840 N.am  129  GLY129     -0.1940
     51  CA         9.3370  -44.1570   70.2760 C.3   129  GLY129      0.2014
     52  C          8.3640  -42.9940   70.2630 C.2   129  GLY129      0.2638
     53  O          7.5890  -42.8610   69.3110 O.2   129  GLY129     -0.2714
     54  N          8.3990  -42.1510   71.2970 N.am  130  ARG130     -0.1977
     55  CA         7.4120  -41.0680   71.4150 C.3   130  ARG130      0.1597
     56  C          7.7950  -39.8980   70.5210 C.2   130  ARG130      0.2287
     57  O          8.9710  -39.5890   70.3660 O.2   130  ARG130     -0.2864
     58  CB         7.2240  -40.6150   72.8780 C.3   130  ARG130      0.0334
     59  CG         8.1720  -39.5340   73.3960 C.3   130  ARG130      0.0492
     60  CD         7.7740  -39.0760   74.8030 C.3   130  ARG130      0.2205
     61  NE         7.6170  -40.2170   75.7100 N.pl3 130  ARG130     -0.0865
     62  CZ         8.6130  -40.8070   76.3700 C.cat 130  ARG130      0.5346
     63  NH1        9.8670  -40.3580   76.2770 N.pl3 130  ARG130      0.1354
     64  NH2        8.3490  -41.8540   77.1380 N.pl3 130  ARG130      0.1354
     65  N          8.0420  -39.6580   67.4660 N.3   132  LEU132     -0.1245
     66  CA         8.6520  -40.0240   66.2100 C.3   132  LEU132      0.1561
     67  C          7.6460  -39.6920   65.1360 C.2   132  LEU132      0.2260
     68  O          6.4610  -39.8800   65.3420 O.2   132  LEU132     -0.2867
     69  CB         8.9270  -41.5200   66.1620 C.3   132  LEU132      0.0270
     70  CG        10.1930  -42.1200   66.7570 C.3   132  LEU132      0.0019
     71  CD1       11.2140  -42.3340   65.6630 C.3   132  LEU132      0.0001
     72  CD2       10.7480  -41.2770   67.8910 C.3   132  LEU132      0.0001
     73  N         16.5270  -38.0600   60.4440 N.3   162  GLN162     -0.1231
     74  CA        17.2210  -39.1120   59.7160 C.3   162  GLN162      0.1698
     75  C         16.4620  -39.4290   58.4340 C.2   162  GLN162      0.2592
     76  O         15.2460  -39.2040   58.3480 O.2   162  GLN162     -0.2718
     77  CB        17.2530  -40.4090   60.5210 C.3   162  GLN162      0.0381
     78  CG        18.0680  -40.3880   61.8000 C.3   162  GLN162      0.0905
     79  CD        17.9820  -41.7160   62.5280 C.2   162  GLN162      0.2608
     80  OE1       16.8940  -42.2680   62.7170 O.2   162  GLN162     -0.2717
     81  NE2       19.1220  -42.2470   62.9210 N.am  162  GLN162     -0.0878
     82  N         17.1720  -39.9770   57.4500 N.am  163  GLU163     -0.1966
     83  CA        16.5340  -40.6740   56.3340 C.3   163  GLU163      0.1733
     84  C         15.6470  -41.7930   56.8940 C.2   163  GLU163      0.2616
     85  O         15.9840  -42.3830   57.9200 O.2   163  GLU163     -0.2715
     86  CB        17.5870  -41.2910   55.3950 C.3   163  GLU163      0.0429
     87  CG        18.4320  -42.3930   56.0220 C.3   163  GLU163      0.1163
     88  CD        19.4930  -42.9660   55.0950 C.2   163  GLU163      0.3649
     89  OE1       19.2610  -43.0400   53.8710 O.co2 163  GLU163     -0.2457
     90  OE2       20.5650  -43.3620   55.6060 O.co2 163  GLU163     -0.2457
     91  N         14.5340  -42.0870   56.2260 N.am  164  PHE164     -0.1960
     92  CA        13.7110  -43.2360   56.6070 C.3   164  PHE164      0.1771
     93  C         14.3670  -44.4910   56.0840 C.2   164  PHE164      0.2619
     94  O         14.5790  -44.6180   54.8870 O.2   164  PHE164     -0.2715
     95  CB        12.3040  -43.1450   56.0300 C.3   164  PHE164      0.0574
     96  CG        11.4510  -44.3520   56.3330 C.ar  164  PHE164     -0.0200
     97  CD1       10.9390  -44.5500   57.6180 C.ar  164  PHE164     -0.0042
     98  CD2       11.1530  -45.2850   55.3440 C.ar  164  PHE164     -0.0042
     99  CE1       10.1640  -45.6570   57.9020 C.ar  164  PHE164     -0.0003
    100  CE2       10.3680  -46.3920   55.6280 C.ar  164  PHE164     -0.0003
    101  CZ         9.8700  -46.5760   56.9050 C.ar  164  PHE164     -0.0000
    102  N         14.6910  -45.4130   56.9850 N.am  165  VAL165     -0.1977
    103  CA        15.2740  -46.6880   56.6070 C.3   165  VAL165      0.1596
    104  C         14.1780  -47.7310   56.4650 C.2   165  VAL165      0.2287
    105  O         13.3580  -47.8980   57.3670 O.2   165  VAL165     -0.2864
    106  CB        16.2860  -47.1650   57.6620 C.3   165  VAL165      0.0276
    107  CG1       16.8740  -48.5120   57.2650 C.3   165  VAL165      0.0022
    108  CG2       17.3800  -46.1210   57.8390 C.3   165  VAL165      0.0022
    109  N         13.2290  -51.0290   56.9740 N.3   167  LYS167     -0.1245
    110  CA        13.6370  -52.1830   57.7510 C.3   167  LYS167      0.1561
    111  C         12.7420  -53.3610   57.3720 C.2   167  LYS167      0.2260
    112  O         11.6310  -53.1530   56.8770 O.2   167  LYS167     -0.2867
    113  CB        13.4890  -51.8740   59.2420 C.3   167  LYS167      0.0271
    114  CG        14.0880  -50.5440   59.6910 C.3   167  LYS167      0.0035
    115  CD        14.0580  -50.3640   61.2040 C.3   167  LYS167      0.0206
    116  CE        12.6490  -50.3980   61.7880 C.3   167  LYS167      0.1093
    117  NZ        11.7330  -49.4150   61.1600 N.3   167  LYS167     -0.1314
    118  N         13.4020  -54.2880   64.0580 N.3   171  ASP171     -0.1239
    119  CA        14.7620  -53.7990   64.2340 C.3   171  ASP171      0.1674
    120  C         15.4780  -54.6440   65.2770 C.2   171  ASP171      0.2266
    121  O         14.9430  -55.6540   65.7290 O.2   171  ASP171     -0.2867
    122  CB        14.7960  -52.2910   64.5240 C.3   171  ASP171      0.1410
    123  CG        14.4320  -51.9380   65.9480 C.2   171  ASP171      0.3668
    124  OD1       13.7890  -52.7530   66.6660 O.co2 171  ASP171     -0.2456
    125  OD2       14.7740  -50.7990   66.3410 O.co2 171  ASP171     -0.2456
    126  N         17.7580  -54.8020   68.8730 N.3   173  ARG173     -0.1245
    127  CA        18.1900  -54.2250   70.1260 C.3   173  ARG173      0.1563
    128  C         19.2490  -55.1700   70.7150 C.2   173  ARG173      0.2260
    129  O         18.9910  -56.3580   70.9240 O.2   173  ARG173     -0.2867
    130  CB        16.9790  -54.0410   71.0430 C.3   173  ARG173      0.0307
    131  CG        17.2430  -53.9990   72.5400 C.3   173  ARG173      0.0489
    132  CD        18.2290  -52.9210   72.9390 C.3   173  ARG173      0.2205
    133  NE        17.7140  -51.5640   72.7800 N.pl3 173  ARG173     -0.0865
    134  CZ        16.9340  -50.9250   73.6540 C.cat 173  ARG173      0.5346
    135  NH1       16.5170  -51.5120   74.7760 N.pl3 173  ARG173      0.1354
    136  NH2       16.5720  -49.6730   73.4020 N.pl3 173  ARG173      0.1354
    137  N         13.0780  -56.8050   67.5280 N.3   187  ARG187     -0.1245
    138  CA        11.7850  -56.2520   67.9500 C.3   187  ARG187      0.1563
    139  C         10.8840  -56.1380   66.7240 C.2   187  ARG187      0.2260
    140  O         11.1420  -55.3300   65.8410 O.2   187  ARG187     -0.2867
    141  CB        11.9680  -54.8900   68.6190 C.3   187  ARG187      0.0307
    142  CG        12.7270  -54.9560   69.9320 C.3   187  ARG187      0.0489
    143  CD        12.9570  -53.5800   70.5400 C.3   187  ARG187      0.2205
    144  NE        13.6680  -52.6570   69.6540 N.pl3 187  ARG187     -0.0865
    145  CZ        14.1270  -51.4650   70.0310 C.cat 187  ARG187      0.5346
    146  NH1       13.9790  -51.0440   71.2830 N.pl3 187  ARG187      0.1354
    147  NH2       14.7650  -50.6970   69.1580 N.pl3 187  ARG187      0.1354
    148  N          6.2240  -49.3430   61.5740 N.3   192  TRP192     -0.1227
    149  CA         7.6460  -48.9990   61.4390 C.3   192  TRP192      0.1737
    150  C          8.3430  -48.6660   62.7800 C.2   192  TRP192      0.2595
    151  O          9.5350  -48.8300   62.9050 O.2   192  TRP192     -0.2718
    152  CB         7.8400  -47.8660   60.4000 C.3   192  TRP192      0.0564
    153  CG         7.3640  -46.4970   60.8170 C.ar  192  TRP192      0.0003
    154  CD1        6.0990  -45.9970   60.7190 C.ar  192  TRP192      0.0946
    155  CD2        8.1660  -45.4500   61.3860 C.ar  192  TRP192      0.0152
    156  NE1        6.0520  -44.7090   61.2200 N.ar  192  TRP192     -0.2442
    157  CE2        7.3140  -44.3450   61.6180 C.ar  192  TRP192      0.0810
    158  CE3        9.5200  -45.3410   61.7260 C.ar  192  TRP192      0.0012
    159  CZ2        7.7790  -43.1410   62.1700 C.ar  192  TRP192      0.0191
    160  CZ3        9.9810  -44.1460   62.2670 C.ar  192  TRP192      0.0001
    161  CH2        9.1100  -43.0630   62.4880 C.ar  192  TRP192      0.0015
    162  N          7.5870  -48.2140   63.7710 N.am  193  ILE193     -0.1966
    163  CA         8.1060  -47.9420   65.1070 C.3   193  ILE193      0.1727
    164  C          7.9640  -49.2220   65.9250 C.2   193  ILE193      0.2617
    165  O          6.8490  -49.6530   66.2150 O.2   193  ILE193     -0.2715
    166  CB         7.3330  -46.7930   65.8060 C.3   193  ILE193      0.0290
    167  CG1        7.3480  -45.5260   64.9430 C.3   193  ILE193      0.0022
    168  CG2        7.9560  -46.4910   67.1600 C.3   193  ILE193      0.0023
    169  CD1        6.5090  -44.3900   65.5040 C.3   193  ILE193      0.0001
    170  N          9.0970  -49.8190   66.2910 N.am  194  THR194     -0.1937
    171  CA         9.1320  -51.1840   66.8090 C.3   194  THR194      0.2028
    172  C          9.3120  -51.3100   68.3270 C.2   194  THR194      0.2642
    173  O          9.3350  -52.4250   68.8350 O.2   194  THR194     -0.2714
    174  CB        10.2700  -51.9970   66.1460 C.3   194  THR194      0.1808
    175  OG1       11.5360  -51.4080   66.4610 O.3   194  THR194     -0.2208
    176  CG2       10.1030  -52.0500   64.6360 C.3   194  THR194      0.0379
    177  N          9.4110  -50.2040   69.0600 N.am  195  ASN195     -0.1971
    178  CA         9.7210  -50.2830   70.5060 C.3   195  ASN195      0.1688
    179  C          8.7770  -51.2500   71.1730 C.2   195  ASN195      0.2292
    180  O          7.5800  -51.2570   70.8490 O.2   195  ASN195     -0.2864
    181  CB         9.5500  -48.9490   71.2500 C.3   195  ASN195      0.1181
    182  CG        10.4440  -47.8580   70.7300 C.2   195  ASN195      0.2629
    183  OD1       11.4400  -47.4820   71.3590 O.2   195  ASN195     -0.2716
    184  ND2       10.0770  -47.3170   69.5980 N.am  195  ASN195     -0.0877
    185  N         20.4590  -49.7920   69.5420 N.3   229  ASP229     -0.1239
    186  CA        19.4270  -50.0110   68.5350 C.3   229  ASP229      0.1674
    187  C         20.0620  -50.0640   67.1620 C.2   229  ASP229      0.2266
    188  O         20.7410  -49.1120   66.7630 O.2   229  ASP229     -0.2867
    189  CB        18.4150  -48.8660   68.5050 C.3   229  ASP229      0.1410
    190  CG        17.5780  -48.7700   69.7600 C.2   229  ASP229      0.3668
    191  OD1       18.0200  -49.2350   70.8380 O.co2 229  ASP229     -0.2456
    192  OD2       16.4560  -48.2000   69.6600 O.co2 229  ASP229     -0.2456
    193  N         19.4570  -51.0840   62.8760 N.3   231  PHE231     -0.1241
    194  CA        18.5540  -51.3030   61.7470 C.3   231  PHE231      0.1605
    195  C         19.2120  -52.1720   60.6850 C.2   231  PHE231      0.2264
    196  O         20.3800  -51.9900   60.3730 O.2   231  PHE231     -0.2867
    197  CB        18.1910  -49.9870   61.0560 C.3   231  PHE231      0.0534
    198  CG        17.5100  -48.9670   61.9290 C.ar  231  PHE231     -0.0203
    199  CD1       16.9820  -49.2810   63.1660 C.ar  231  PHE231     -0.0042
    200  CD2       17.3770  -47.6630   61.4630 C.ar  231  PHE231     -0.0042
    201  CE1       16.3500  -48.3130   63.9290 C.ar  231  PHE231     -0.0003
    202  CE2       16.7450  -46.7010   62.2190 C.ar  231  PHE231     -0.0003
    203  CZ        16.2260  -47.0300   63.4550 C.ar  231  PHE231     -0.0000
    204  N         21.5040  -46.9310   64.9980 N.3   240  ASN240     -0.1225
    205  CA        20.5460  -45.8340   65.1040 C.3   240  ASN240      0.1785
    206  C         20.7910  -44.9990   66.3470 C.2   240  ASN240      0.2597
    207  O         20.8880  -43.7670   66.2990 O.2   240  ASN240     -0.2718
    208  CB        19.1220  -46.3880   65.1630 C.3   240  ASN240      0.1169
    209  CG        18.0820  -45.3120   65.4530 C.2   240  ASN240      0.2627
    210  OD1       18.1640  -44.1980   64.9480 O.2   240  ASN240     -0.2716
    211  ND2       17.1040  -45.6470   66.2640 N.am  240  ASN240     -0.0877
    212  N         20.8890  -45.6920   67.4640 N.am  241  GLU241     -0.1979
    213  CA        20.7630  -45.0690   68.7390 C.3   241  GLU241      0.1602
    214  C         21.3900  -45.9180   69.8240 C.2   241  GLU241      0.2287
    215  O         21.5940  -47.1210   69.6660 O.2   241  GLU241     -0.2864
    216  CB        19.2740  -44.9550   69.0360 C.3   241  GLU241      0.0415
    217  CG        18.9400  -43.8240   69.9450 C.3   241  GLU241      0.1163
    218  CD        17.8850  -44.1820   70.9540 C.2   241  GLU241      0.3649
    219  OE1       17.2220  -45.2460   70.8300 O.co2 241  GLU241     -0.2457
    220  OE2       17.7310  -43.3780   71.8910 O.co2 241  GLU241     -0.2457
    221  N         21.2970  -46.2260   74.3730 N.3   243  ASN243     -0.1240
    222  CA        20.4010  -45.9300   75.4970 C.3   243  ASN243      0.1653
    223  C         21.0710  -46.2560   76.8380 C.2   243  ASN243      0.2266
    224  O         21.4160  -47.4030   77.0770 O.2   243  ASN243     -0.2867
    225  CB        19.1130  -46.7620   75.3830 C.3   243  ASN243      0.1155
    226  CG        18.2150  -46.3200   74.2390 C.2   243  ASN243      0.2627
    227  OD1       17.4600  -45.3540   74.3720 O.2   243  ASN243     -0.2716
    228  ND2       18.2740  -47.0420   73.1110 N.am  243  ASN243     -0.0877
@<TRIPOS>BOND
     1    89    88   ar
     2    94    93    2
     3    88    90   ar
     4    88    87    1
     5    98   100   ar
     6    98    96   ar
     7    86    87    1
     8    86    83    1
     9   100   101   ar
    10    95    96    1
    11    95    92    1
    12    93    92    1
    13    93   102   am
    14    91    92    1
    15    91    84   am
    16    96    97   ar
    17    83    84    1
    18    83    82    1
    19   104   103    1
    20   104   105    2
    21   103   102    1
    22   103   106    1
    23   112   111    2
    24    84    85    2
    25   101    99   ar
    26   109   110    1
    27   107   106    1
    28   111   110    1
    29    82    75   am
    30    97    99   ar
    31   106   108    1
    32   110   113    1
    33    76    75    2
    34    75    74    1
    35    10    11    1
    36   113   114    1
    37   114   115    1
    38    74    73    1
    39    74    77    1
    40    16    14    1
    41    11    14    1
    42    11    12    1
    43   196   195    2
    44   152   153    1
    45   152   149    1
    46    77    78    1
    47   195   194    1
    48   154   153   ar
    49   154   156   ar
    50    14    15    1
    51   153   155   ar
    52   197   194    1
    53   197   198    1
    54    12    13    2
    55   117   116    1
    56   115   116    1
    57   156   157   ar
    58   155   157   ar
    59   155   158   ar
    60   149   148    1
    61   149   150    1
    62   200   198   ar
    63   200   202   ar
    64   157   159   ar
    65   158   160   ar
    66   194   193    1
    67    78    79    1
    68   198   199   ar
    69   159   161   ar
    70   202   203   ar
    71   160   161   ar
    72    79    80    2
    73    79    81   am
    74   150   151    2
    75   150   162   am
    76   199   201   ar
    77   203   201   ar
    78   162   163    1
    79   118   119    1
    80   119   122    1
    81   119   120    1
    82   122   123    1
    83   176   174    1
    84   167   169    1
    85   167   166    1
    86   210   209    2
    87   204   205    1
    88    24    25    1
    89    24    23    1
    90    17    18    1
    91   205   208    1
    92   205   206    1
    93   163   166    1
    94   163   164    1
    95    67    68    2
    96    67    66    1
    97   208   209    1
    98   120   121    2
    99   209   211   am
   100    71    70    1
   101   166   168    1
   102   140   139    2
   103   164   165    2
   104   164   170   am
   105   123   125   ar
   106   123   124   ar
   107   174   175    1
   108   174   171    1
   109    69    66    1
   110    69    70    1
   111    22    23    1
   112    22    21    1
   113    66    65    1
   114   170   171    1
   115   207   206    2
   116   206   212   am
   117    18    21    1
   118    18    19    1
   119   139   138    1
   120    70    72    1
   121   188   187    2
   122   171   172    1
   123    20    19    2
   124   187   186    1
   125   212   213    1
   126   137   138    1
   127   138   141    1
   128   172   173    2
   129   172   177   am
   130     4     3    2
   131   189   186    1
   132   189   190    1
   133   186   185    1
   134   141   142    1
   135   213   216    1
   136   213   214    1
   137   126   127    1
   138   216   217    1
   139   177   178    1
   140   147   145    1
   141     5     6    1
   142     5     2    1
   143     3     2    1
   144    53    52    2
   145     8     7    1
   146     8     9    1
   147     7     6    1
   148   184   182   am
   149   144   145    2
   150   144   143    1
   151   192   190   ar
   152   215   214    2
   153   190   191   ar
   154   142   143    1
   155   217   218    1
   156     2     1    1
   157   145   146    1
   158   127   128    1
   159   127   130    1
   160    52    51    1
   161    52    54   am
   162    51    50    1
   163    57    56    2
   164   178   179    1
   165   178   181    1
   166    56    55    1
   167   128   129    2
   168   182   181    1
   169   182   183    2
   170   219   218   ar
   171   180   179    2
   172   218   220   ar
   173   130   131    1
   174    54    55    1
   175    55    58    1
   176    50    38   am
   177    39    38    2
   178   131   132    1
   179    38    37    1
   180   133   132    1
   181   133   134    2
   182    58    59    1
   183   228   226   am
   184    59    60    1
   185   136   134    1
   186    26    27    1
   187   134   135    1
   188    29    28    2
   189    27    28    1
   190    28    30   am
   191    37    36    1
   192    37    40    1
   193    33    32    2
   194    36    32   am
   195    32    31    1
   196    30    31    1
   197   226   227    2
   198   226   225    1
   199    31    34    1
   200   221   222    1
   201    60    61    1
   202    40    41    1
   203   225   222    1
   204   222   223    1
   205    61    62    2
   206    34    35    1
   207    63    62    1
   208    41    42   ar
   209    41    43   ar
   210    62    64    1
   211    42    44   ar
   212   223   224    2
   213    43    46   ar
   214    43    45   ar
   215    44    45   ar
   216    46    48   ar
   217    45    47   ar
   218    48    49   ar
   219    47    49   ar
