@<TRIPOS>MOLECULE
tmp/5k2mJ01.pdb
 124 121 0 0 0
SMALL
GASTEIGER

@<TRIPOS>ATOM
      1  N         12.4500  -41.2010   74.2280 N.3   127  SER127     -0.1202
      2  CA        12.5670  -42.6420   74.3470 C.3   127  SER127      0.2020
      3  C         11.1770  -43.2570   74.0990 C.2   127  SER127      0.2618
      4  O         10.1910  -42.5290   73.9460 O.2   127  SER127     -0.2717
      5  CB        13.0910  -43.0270   75.7410 C.3   127  SER127      0.2103
      6  OG        13.2620  -44.4420   75.8690 O.3   127  SER127     -0.2182
      7  N         11.1060  -44.5890   74.0590 N.am  128  TRP128     -0.1975
      8  CA         9.8360  -45.3170   73.8670 C.3   128  TRP128      0.1640
      9  C          9.1250  -45.0170   72.5460 C.2   128  TRP128      0.2290
     10  O          7.9350  -45.2880   72.3970 O.2   128  TRP128     -0.2864
     11  CB         8.8770  -45.1020   75.0510 C.3   128  TRP128      0.0576
     12  CG         9.3720  -45.6950   76.3480 C.ar  128  TRP128      0.0006
     13  CD1       10.4910  -46.4610   76.5340 C.ar  128  TRP128      0.0946
     14  CD2        8.7260  -45.6250   77.6180 C.ar  128  TRP128      0.0152
     15  NE1       10.5980  -46.8400   77.8480 N.ar  128  TRP128     -0.2442
     16  CE2        9.5230  -46.3490   78.5360 C.ar  128  TRP128      0.0810
     17  CE3        7.5510  -45.0120   78.0780 C.ar  128  TRP128      0.0012
     18  CZ2        9.1920  -46.4700   79.8890 C.ar  128  TRP128      0.0191
     19  CZ3        7.2190  -45.1360   79.4260 C.ar  128  TRP128      0.0001
     20  CH2        8.0410  -45.8560   80.3150 C.ar  128  TRP128      0.0015
     21  N         17.7580  -54.8020   68.8730 N.3   173  ARG173     -0.1245
     22  CA        18.1900  -54.2250   70.1260 C.3   173  ARG173      0.1563
     23  C         19.2490  -55.1700   70.7150 C.2   173  ARG173      0.2260
     24  O         18.9910  -56.3580   70.9240 O.2   173  ARG173     -0.2867
     25  CB        16.9790  -54.0410   71.0430 C.3   173  ARG173      0.0307
     26  CG        17.2430  -53.9990   72.5400 C.3   173  ARG173      0.0489
     27  CD        18.2290  -52.9210   72.9390 C.3   173  ARG173      0.2205
     28  NE        17.7140  -51.5640   72.7800 N.pl3 173  ARG173     -0.0865
     29  CZ        16.9340  -50.9250   73.6540 C.cat 173  ARG173      0.5346
     30  NH1       16.5170  -51.5120   74.7760 N.pl3 173  ARG173      0.1354
     31  NH2       16.5720  -49.6730   73.4020 N.pl3 173  ARG173      0.1354
     32  N         22.8150  -55.4890   73.5730 N.3   175  TYR175     -0.1241
     33  CA        23.3020  -55.0410   74.8740 C.3   175  TYR175      0.1605
     34  C         24.7980  -55.2850   74.9860 C.2   175  TYR175      0.2264
     35  O         25.2740  -56.3990   74.7310 O.2   175  TYR175     -0.2867
     36  CB        22.5610  -55.7670   75.9960 C.3   175  TYR175      0.0534
     37  CG        21.0750  -55.4900   76.0120 C.ar  175  TYR175     -0.0201
     38  CD1       20.2060  -56.1940   75.1890 C.ar  175  TYR175     -0.0009
     39  CD2       20.5390  -54.5050   76.8400 C.ar  175  TYR175     -0.0009
     40  CE1       18.8440  -55.9410   75.2010 C.ar  175  TYR175      0.0417
     41  CE2       19.1780  -54.2450   76.8590 C.ar  175  TYR175      0.0417
     42  CZ        18.3290  -54.9630   76.0380 C.ar  175  TYR175      0.1957
     43  OH        16.9710  -54.6960   76.0490 O.3   175  TYR175     -0.2866
     44  N         18.1760  -58.9840   70.6490 N.3   185  ILE185     -0.1245
     45  CA        16.8560  -59.4350   70.2220 C.3   185  ILE185      0.1561
     46  C         16.4110  -58.7090   68.9640 C.2   185  ILE185      0.2260
     47  O         16.8940  -57.6160   68.6650 O.2   185  ILE185     -0.2867
     48  CB        15.7840  -59.1480   71.2980 C.3   185  ILE185      0.0252
     49  CG1       15.7610  -57.6610   71.6710 C.3   185  ILE185      0.0019
     50  CG2       16.0230  -60.0000   72.5270 C.3   185  ILE185      0.0019
     51  CD1       14.5170  -57.2350   72.4330 C.3   185  ILE185      0.0001
     52  N         13.0780  -56.8050   67.5280 N.3   187  ARG187     -0.1245
     53  CA        11.7850  -56.2520   67.9500 C.3   187  ARG187      0.1563
     54  C         10.8840  -56.1380   66.7240 C.2   187  ARG187      0.2260
     55  O         11.1420  -55.3300   65.8410 O.2   187  ARG187     -0.2867
     56  CB        11.9680  -54.8900   68.6190 C.3   187  ARG187      0.0307
     57  CG        12.7270  -54.9560   69.9320 C.3   187  ARG187      0.0489
     58  CD        12.9570  -53.5800   70.5400 C.3   187  ARG187      0.2205
     59  NE        13.6680  -52.6570   69.6540 N.pl3 187  ARG187     -0.0865
     60  CZ        14.1270  -51.4650   70.0310 C.cat 187  ARG187      0.5346
     61  NH1       13.9790  -51.0440   71.2830 N.pl3 187  ARG187      0.1354
     62  NH2       14.7650  -50.6970   69.1580 N.pl3 187  ARG187      0.1354
     63  N          9.4110  -50.2040   69.0600 N.3   195  ASN195     -0.1225
     64  CA         9.7210  -50.2830   70.5060 C.3   195  ASN195      0.1785
     65  C          8.7770  -51.2500   71.1730 C.2   195  ASN195      0.2598
     66  O          7.5800  -51.2570   70.8490 O.2   195  ASN195     -0.2718
     67  CB         9.5500  -48.9490   71.2500 C.3   195  ASN195      0.1169
     68  CG        10.4440  -47.8580   70.7300 C.2   195  ASN195      0.2627
     69  OD1       11.4400  -47.4820   71.3590 O.2   195  ASN195     -0.2716
     70  ND2       10.0770  -47.3170   69.5980 N.am  195  ASN195     -0.0877
     71  N          9.2850  -52.0340   72.1270 N.am  196  THR196     -0.1939
     72  CA         8.4010  -52.8750   72.9290 C.3   196  THR196      0.2028
     73  C          7.4440  -52.0340   73.7730 C.2   196  THR196      0.2642
     74  O          6.3200  -52.4600   74.0140 O.2   196  THR196     -0.2714
     75  CB         9.1720  -53.8420   73.8420 C.3   196  THR196      0.1808
     76  OG1        9.9710  -53.0920   74.7600 O.3   196  THR196     -0.2208
     77  CG2       10.0450  -54.8180   72.9990 C.3   196  THR196      0.0379
     78  N          7.8720  -50.8390   74.1930 N.am  197  ALA197     -0.1977
     79  CA         7.0030  -49.9090   74.9580 C.3   197  ALA197      0.1597
     80  C          5.6970  -49.5480   74.2240 C.2   197  ALA197      0.2287
     81  O          4.6760  -49.2850   74.8660 O.2   197  ALA197     -0.2864
     82  CB         7.7640  -48.6410   75.3090 C.3   197  ALA197      0.0319
     83  N         16.1570  -50.8540   79.4950 N.3   247  GLU247     -0.1231
     84  CA        15.1730  -51.8460   79.8720 C.3   247  GLU247      0.1699
     85  C         15.5760  -53.1400   79.1660 C.2   247  GLU247      0.2592
     86  O         16.2230  -53.1120   78.1130 O.2   247  GLU247     -0.2718
     87  CB        13.7480  -51.4180   79.4890 C.3   247  GLU247      0.0402
     88  CG        13.1130  -50.4220   80.4640 C.3   247  GLU247      0.1161
     89  CD        11.7130  -49.9830   80.0420 C.2   247  GLU247      0.3649
     90  OE1       11.5880  -49.3440   78.9720 O.co2 247  GLU247     -0.2457
     91  OE2       10.7370  -50.2720   80.7810 O.co2 247  GLU247     -0.2457
     92  N         15.2150  -54.2670   79.7730 N.am  248  PHE248     -0.1962
     93  CA        15.6270  -55.5790   79.2810 C.3   248  PHE248      0.1771
     94  C         14.7260  -56.7730   79.6620 C.2   248  PHE248      0.2619
     95  O         15.0510  -57.8990   79.3180 O.2   248  PHE248     -0.2715
     96  CB        17.0690  -55.8620   79.7300 C.3   248  PHE248      0.0574
     97  CG        17.3010  -55.7070   81.2160 C.ar  248  PHE248     -0.0200
     98  CD1       16.9620  -56.7190   82.1010 C.ar  248  PHE248     -0.0042
     99  CD2       17.8980  -54.5590   81.7230 C.ar  248  PHE248     -0.0042
    100  CE1       17.1940  -56.5850   83.4660 C.ar  248  PHE248     -0.0003
    101  CE2       18.1400  -54.4180   83.0820 C.ar  248  PHE248     -0.0003
    102  CZ        17.7870  -55.4310   83.9570 C.ar  248  PHE248     -0.0000
    103  N         13.5890  -56.5470   80.3170 N.am  249  LYS249     -0.1963
    104  CA        12.7920  -57.6670   80.8380 C.3   249  LYS249      0.1728
    105  C         12.3410  -58.6340   79.7380 C.2   249  LYS249      0.2616
    106  O         12.4130  -59.8440   79.9240 O.2   249  LYS249     -0.2715
    107  CB        11.5970  -57.1720   81.6640 C.3   249  LYS249      0.0311
    108  CG        10.5240  -56.4540   80.8650 C.3   249  LYS249      0.0038
    109  CD         9.3670  -56.0240   81.7390 C.3   249  LYS249      0.0206
    110  CE         8.4240  -55.1140   80.9620 C.3   249  LYS249      0.1093
    111  NZ         7.4360  -54.4660   81.8640 N.3   249  LYS249     -0.1314
    112  N         11.9040  -58.1130   78.5910 N.am  250  ASN250     -0.1958
    113  CA        11.5740  -58.9730   77.4520 C.3   250  ASN250      0.1819
    114  C         12.8480  -59.5650   76.8460 C.2   250  ASN250      0.2621
    115  O         12.8620  -60.7240   76.4610 O.2   250  ASN250     -0.2715
    116  CB        10.7800  -58.2190   76.3800 C.3   250  ASN250      0.1195
    117  CG         9.4950  -57.6100   76.9170 C.2   250  ASN250      0.2630
    118  OD1        9.3320  -56.3880   76.9470 O.2   250  ASN250     -0.2716
    119  ND2        8.5870  -58.4580   77.3650 N.am  250  ASN250     -0.0877
    120  N         13.9240  -58.7780   76.7890 N.am  251  ALA251     -0.1977
    121  CA        15.1690  -59.2450   76.1950 C.3   251  ALA251      0.1597
    122  C         15.7980  -60.3920   76.9960 C.2   251  ALA251      0.2287
    123  O         16.1850  -61.4050   76.4140 O.2   251  ALA251     -0.2864
    124  CB        16.1510  -58.0980   76.0480 C.3   251  ALA251      0.0319
@<TRIPOS>BOND
     1    55    54    2
     2    54    53    1
     3    52    53    1
     4    53    56    1
     5    56    57    1
     6    47    46    2
     7    21    22    1
     8    46    45    1
     9    63    64    1
    10    62    60    1
    11    70    68   am
    12    59    60    2
    13    59    58    1
    14    57    58    1
    15    60    61    1
    16    22    23    1
    17    22    25    1
    18    45    44    1
    19    45    48    1
    20    64    65    1
    21    64    67    1
    22    23    24    2
    23    68    67    1
    24    68    69    2
    25    66    65    2
    26    25    26    1
    27    65    71   am
    28    48    49    1
    29    48    50    1
    30    49    51    1
    31    71    72    1
    32    10     9    2
    33    26    27    1
    34     9     8    1
    35    28    27    1
    36    28    29    2
    37    72    73    1
    38    72    75    1
    39    77    75    1
    40    31    29    1
    41    32    33    1
    42    29    30    1
    43    73    74    2
    44    73    78   am
    45    75    76    1
    46     8     7    1
    47     8    11    1
    48     4     3    2
    49     7     3   am
    50     3     2    1
    51    78    79    1
    52    80    81    2
    53    80    79    1
    54     1     2    1
    55     2     5    1
    56    35    34    2
    57    33    34    1
    58    33    36    1
    59    79    82    1
    60    11    12    1
    61    38    40   ar
    62    38    37   ar
    63    40    42   ar
    64     5     6    1
    65    36    37    1
    66    37    39   ar
    67    42    43    1
    68    42    41   ar
    69   124   121    1
    70   121   120    1
    71   121   122    1
    72    12    13   ar
    73    12    14   ar
    74   116   117    1
    75   116   113    1
    76   123   122    2
    77   115   114    2
    78    13    15   ar
    79   120   114   am
    80    39    41   ar
    81   114   113    1
    82   117   118    2
    83   117   119   am
    84   113   112    1
    85    14    17   ar
    86    14    16   ar
    87    15    16   ar
    88    17    19   ar
    89    86    85    2
    90    16    18   ar
    91   112   105   am
    92    90    89   ar
    93    85    92   am
    94    85    84    1
    95    93    94    1
    96    93    96    1
    97    93    92    1
    98    95    94    2
    99    19    20   ar
   100    87    84    1
   101    87    88    1
   102    83    84    1
   103    94   103   am
   104    96    97    1
   105   105   106    2
   106   105   104    1
   107    18    20   ar
   108    89    88    1
   109    89    91   ar
   110   103   104    1
   111   104   107    1
   112   108   107    1
   113   108   109    1
   114   110   109    1
   115   110   111    1
   116    97    99   ar
   117    97    98   ar
   118    99   101   ar
   119    98   100   ar
   120   101   102   ar
   121   100   102   ar
