@<TRIPOS>MOLECULE
tmp/5k2oA03.pdb
 144 140 0 0 0
SMALL
GASTEIGER

@<TRIPOS>ATOM
      1  N         72.8670  -66.2470  -17.1150 N.3   399  VAL399     -0.1231
      2  CA        72.5800  -67.5460  -16.5240 C.3   399  VAL399      0.1692
      3  C         73.8450  -68.3890  -16.4730 C.2   399  VAL399      0.2593
      4  O         74.5940  -68.4610  -17.4470 O.2   399  VAL399     -0.2718
      5  CB        71.4780  -68.2870  -17.3050 C.3   399  VAL399      0.0266
      6  CG1       71.3330  -69.7190  -16.8150 C.3   399  VAL399      0.0020
      7  CG2       70.1620  -67.5420  -17.1760 C.3   399  VAL399      0.0020
      8  N         74.0850  -69.0130  -15.3240 N.am  400  GLY400     -0.1942
      9  CA        75.2630  -69.8340  -15.1340 C.3   400  GLY400      0.2014
     10  C         75.8690  -69.6470  -13.7610 C.2   400  GLY400      0.2639
     11  O         75.1840  -69.2460  -12.8190 O.2   400  GLY400     -0.2714
     12  N         77.1620  -69.9350  -13.6510 N.am  401  GLN401     -0.1963
     13  CA        77.8740  -69.8180  -12.3850 C.3   401  GLN401      0.1733
     14  C         77.8370  -68.3990  -11.8290 C.2   401  GLN401      0.2616
     15  O         77.5730  -68.2010  -10.6420 O.2   401  GLN401     -0.2715
     16  CB        79.3250  -70.2680  -12.5500 C.3   401  GLN401      0.0408
     17  CG        79.4900  -71.7420  -12.8580 C.3   401  GLN401      0.0908
     18  CD        80.9470  -72.1580  -12.8920 C.2   401  GLN401      0.2608
     19  OE1       81.7800  -71.4920  -13.5080 O.2   401  GLN401     -0.2717
     20  NE2       81.2650  -73.2600  -12.2200 N.am  401  GLN401     -0.0878
     21  N         78.0990  -67.4190  -12.6910 N.am  402  HIS402     -0.1973
     22  CA        78.1290  -66.0160  -12.2830 C.3   402  HIS402      0.1656
     23  C         76.7860  -65.6000  -11.6920 C.2   402  HIS402      0.2291
     24  O         76.7220  -64.7700  -10.7840 O.2   402  HIS402     -0.2864
     25  CB        78.4820  -65.1120  -13.4670 C.3   402  HIS402      0.0771
     26  CG        77.4190  -65.0560  -14.5190 C.ar  402  HIS402      0.0820
     27  ND1       77.2440  -66.0510  -15.4560 N.ar  402  HIS402     -0.2267
     28  CD2       76.4630  -64.1300  -14.7710 C.ar  402  HIS402      0.1154
     29  CE1       76.2310  -65.7380  -16.2450 C.ar  402  HIS402      0.1986
     30  NE2       75.7410  -64.5760  -15.8500 N.ar  402  HIS402     -0.2212
     31  N         76.6390  -66.9830   -8.0810 N.3   405  TRP405     -0.1241
     32  CA        77.5330  -66.2110   -7.2300 C.3   405  TRP405      0.1605
     33  C         76.9670  -64.8200   -6.9700 C.2   405  TRP405      0.2264
     34  O         77.1500  -64.2590   -5.8900 O.2   405  TRP405     -0.2867
     35  CB        78.9250  -66.1230   -7.8610 C.3   405  TRP405      0.0550
     36  CG        79.6530  -67.4330   -7.8450 C.ar  405  TRP405      0.0003
     37  CD1       79.6390  -68.3630   -6.8470 C.ar  405  TRP405      0.0946
     38  CD2       80.4920  -67.9660   -8.8780 C.ar  405  TRP405      0.0152
     39  NE1       80.4200  -69.4390   -7.1900 N.ar  405  TRP405     -0.2442
     40  CE2       80.9530  -69.2210   -8.4310 C.ar  405  TRP405      0.0810
     41  CE3       80.8980  -67.5040  -10.1330 C.ar  405  TRP405      0.0012
     42  CZ2       81.8010  -70.0180   -9.1980 C.ar  405  TRP405      0.0191
     43  CZ3       81.7390  -68.2980  -10.8920 C.ar  405  TRP405      0.0001
     44  CH2       82.1820  -69.5410  -10.4220 C.ar  405  TRP405      0.0015
     45  N         65.5840  -69.6900  -17.2810 N.3   425  GLY425     -0.1210
     46  CA        67.0320  -69.6040  -17.2080 C.3   425  GLY425      0.1956
     47  C         67.6600  -69.2880  -18.5530 C.2   425  GLY425      0.2612
     48  O         68.5080  -70.0330  -19.0430 O.2   425  GLY425     -0.2717
     49  N         67.2500  -68.1710  -19.1440 N.am  426  ALA426     -0.1965
     50  CA        67.6990  -67.8000  -20.4810 C.3   426  ALA426      0.1728
     51  C         68.9520  -66.9320  -20.4550 C.2   426  ALA426      0.2616
     52  O         68.9520  -65.8460  -19.8780 O.2   426  ALA426     -0.2715
     53  CB        66.5830  -67.0820  -21.2260 C.3   426  ALA426      0.0334
     54  N         70.0160  -67.4200  -21.0850 N.am  427  MET427     -0.1977
     55  CA        71.2370  -66.6410  -21.2510 C.3   427  MET427      0.1605
     56  C         70.9750  -65.3960  -22.0900 C.2   427  MET427      0.2287
     57  O         70.0150  -65.3480  -22.8580 O.2   427  MET427     -0.2864
     58  CB        72.3290  -67.4840  -21.9080 C.3   427  MET427      0.0413
     59  CG        72.9090  -68.5690  -21.0270 C.3   427  MET427      0.0598
     60  SD        73.9890  -69.6560  -21.9710 S.3   427  MET427     -0.1393
     61  CE        75.2570  -68.5140  -22.5020 C.3   427  MET427      0.0692
     62  N         78.1370  -63.4310  -17.5010 N.3   451  GLY451     -0.1210
     63  CA        79.1470  -64.3970  -17.8950 C.3   451  GLY451      0.1956
     64  C         79.5310  -64.1380  -19.3390 C.2   451  GLY451      0.2612
     65  O         78.7740  -63.5040  -20.0700 O.2   451  GLY451     -0.2717
     66  N         80.6990  -64.6190  -19.7550 N.am  452  ASP452     -0.1959
     67  CA        81.2080  -64.3170  -21.0920 C.3   452  ASP452      0.1840
     68  C         80.3730  -64.9790  -22.1840 C.2   452  ASP452      0.2623
     69  O         80.3320  -64.5040  -23.3180 O.2   452  ASP452     -0.2715
     70  CB        82.6720  -64.7430  -21.2250 C.3   452  ASP452      0.1450
     71  CG        82.8950  -66.1920  -20.8480 C.2   452  ASP452      0.3671
     72  OD1       82.3230  -66.6390  -19.8320 O.co2 452  ASP452     -0.2456
     73  OD2       83.6380  -66.8840  -21.5740 O.co2 452  ASP452     -0.2456
     74  N         79.7110  -66.0780  -21.8420 N.am  453  GLY453     -0.1940
     75  CA        78.8220  -66.7370  -22.7780 C.3   453  GLY453      0.2014
     76  C         77.5150  -65.9820  -22.9010 C.2   453  GLY453      0.2639
     77  O         77.0450  -65.6980  -24.0050 O.2   453  GLY453     -0.2714
     78  N         76.9310  -65.6550  -21.7530 N.am  454  SER454     -0.1949
     79  CA        75.6600  -64.9440  -21.7020 C.3   454  SER454      0.1924
     80  C         75.7810  -63.5430  -22.2890 C.2   454  SER454      0.2314
     81  O         74.8950  -63.0850  -23.0090 O.2   454  SER454     -0.2863
     82  CB        75.1520  -64.8670  -20.2600 C.3   454  SER454      0.2116
     83  OG        74.9250  -66.1600  -19.7290 O.3   454  SER454     -0.2180
     84  N         75.8350  -63.1490  -26.2600 N.3   457  MET457     -0.1245
     85  CA        74.6090  -63.5120  -26.9760 C.3   457  MET457      0.1570
     86  C         73.8130  -62.2960  -27.4330 C.2   457  MET457      0.2261
     87  O         73.3110  -62.2600  -28.5580 O.2   457  MET457     -0.2867
     88  CB        73.7160  -64.4050  -26.1150 C.3   457  MET457      0.0387
     89  CG        74.1410  -65.8570  -26.0750 C.3   457  MET457      0.0595
     90  SD        72.7970  -66.9290  -25.5380 S.3   457  MET457     -0.1393
     91  CE        73.5360  -68.5420  -25.7800 C.3   457  MET457      0.0692
     92  N         82.1150  -61.3810  -15.4340 N.3   477  LEU477     -0.1245
     93  CA        82.9570  -62.4170  -14.8500 C.3   477  LEU477      0.1561
     94  C         83.3670  -63.3940  -15.9430 C.2   477  LEU477      0.2260
     95  O         82.5920  -64.2630  -16.3410 O.2   477  LEU477     -0.2867
     96  CB        82.2320  -63.1350  -13.7110 C.3   477  LEU477      0.0270
     97  CG        81.7200  -62.2130  -12.6000 C.3   477  LEU477      0.0019
     98  CD1       81.1100  -63.0080  -11.4570 C.3   477  LEU477      0.0001
     99  CD2       82.8320  -61.3050  -12.0960 C.3   477  LEU477      0.0001
    100  N         85.3070  -66.3600  -17.4070 N.3   479  ASN479     -0.1240
    101  CA        86.0210  -67.6080  -17.1580 C.3   479  ASN479      0.1653
    102  C         86.3320  -68.3680  -18.4450 C.2   479  ASN479      0.2266
    103  O         86.7400  -69.5290  -18.4030 O.2   479  ASN479     -0.2867
    104  CB        85.2240  -68.5030  -16.2020 C.3   479  ASN479      0.1155
    105  CG        83.8240  -68.8130  -16.7100 C.2   479  ASN479      0.2627
    106  OD1       83.4770  -68.5100  -17.8520 O.2   479  ASN479     -0.2716
    107  ND2       83.0130  -69.4280  -15.8560 N.am  479  ASN479     -0.0877
    108  N         84.6330  -69.8470  -20.4100 N.3   481  HIS481     -0.1226
    109  CA        83.8950  -71.0970  -20.5340 C.3   481  HIS481      0.1752
    110  C         82.3940  -70.9040  -20.3710 C.2   481  HIS481      0.2596
    111  O         81.9370  -69.8960  -19.8330 O.2   481  HIS481     -0.2718
    112  CB        84.3770  -72.1110  -19.4910 C.3   481  HIS481      0.0759
    113  CG        85.6970  -72.7390  -19.8090 C.ar  481  HIS481      0.0818
    114  ND1       86.8930  -72.0620  -19.6950 N.ar  481  HIS481     -0.2268
    115  CD2       86.0110  -73.9890  -20.2240 C.ar  481  HIS481      0.1154
    116  CE1       87.8850  -72.8660  -20.0320 C.ar  481  HIS481      0.1986
    117  NE2       87.3770  -74.0420  -20.3570 N.ar  481  HIS481     -0.2212
    118  N         81.6290  -71.8810  -20.8430 N.am  482  LEU482     -0.1966
    119  CA        80.2510  -72.0310  -20.4090 C.3   482  LEU482      0.1728
    120  C         80.3020  -72.6980  -19.0380 C.2   482  LEU482      0.2617
    121  O         80.1440  -73.9130  -18.9140 O.2   482  LEU482     -0.2715
    122  CB        79.4370  -72.8500  -21.4100 C.3   482  LEU482      0.0311
    123  CG        79.2780  -72.1980  -22.7850 C.3   482  LEU482      0.0022
    124  CD1       78.6040  -73.1440  -23.7600 C.3   482  LEU482      0.0001
    125  CD2       78.4950  -70.9000  -22.6700 C.3   482  LEU482      0.0001
    126  N         80.5340  -71.8770  -18.0180 N.am  483  GLY483     -0.1940
    127  CA        80.9350  -72.3300  -16.6970 C.3   483  GLY483      0.2014
    128  C         80.1250  -73.4110  -16.0130 C.2   483  GLY483      0.2639
    129  O         80.6860  -74.3820  -15.5030 O.2   483  GLY483     -0.2714
    130  N         78.8070  -73.2440  -15.9880 N.am  484  MET484     -0.1963
    131  CA        77.9370  -74.1770  -15.2780 C.3   484  MET484      0.1736
    132  C         77.8930  -75.5420  -15.9630 C.2   484  MET484      0.2616
    133  O         77.8370  -76.5750  -15.2950 O.2   484  MET484     -0.2715
    134  CB        76.5240  -73.6020  -15.1520 C.3   484  MET484      0.0427
    135  CG        75.5600  -74.4880  -14.3730 C.3   484  MET484      0.0599
    136  SD        76.0850  -74.8290  -12.6790 S.3   484  MET484     -0.1393
    137  CE        76.0570  -73.1850  -11.9710 C.3   484  MET484      0.0692
    138  N         77.9190  -75.5410  -17.2920 N.am  485  VAL485     -0.1977
    139  CA        77.9460  -76.7840  -18.0520 C.3   485  VAL485      0.1596
    140  C         79.2970  -77.4490  -17.8210 C.2   485  VAL485      0.2287
    141  O         79.3950  -78.6720  -17.7060 O.2   485  VAL485     -0.2864
    142  CB        77.7200  -76.5480  -19.5580 C.3   485  VAL485      0.0276
    143  CG1       77.6910  -77.8740  -20.3100 C.3   485  VAL485      0.0022
    144  CG2       76.4290  -75.7800  -19.7830 C.3   485  VAL485      0.0022
@<TRIPOS>BOND
     1    87    86    2
     2    86    85    1
     3    85    84    1
     4    85    88    1
     5    88    89    1
     6    89    90    1
     7    91    90    1
     8    77    76    2
     9   124   123    1
    10    69    68    2
    11    81    80    2
    12    76    75    1
    13    76    78   am
    14    57    56    2
    15   123   125    1
    16   123   122    1
    17    75    74    1
    18    61    60    1
    19    80    79    1
    20    68    74   am
    21    68    67    1
    22    56    55    1
    23    60    59    1
    24    58    55    1
    25    58    59    1
    26    78    79    1
    27    79    82    1
    28    73    71   ar
    29   122   119    1
    30    55    54    1
    31    53    50    1
    32    70    67    1
    33    70    71    1
    34    67    66    1
    35    54    51   am
    36    71    72   ar
    37   118   119    1
    38   118   110   am
    39   109   108    1
    40   109   110    1
    41   109   112    1
    42    50    51    1
    43    50    49    1
    44    51    52    2
    45   119   120    1
    46   110   111    2
    47   117   115   ar
    48   117   116   ar
    49   143   142    1
    50    82    83    1
    51   115   113   ar
    52    65    64    2
    53   116   114   ar
    54   113   114   ar
    55   113   112    1
    56   144   142    1
    57    66    64   am
    58   142   139    1
    59    64    63    1
    60    49    47   am
    61    48    47    2
    62   120   121    2
    63   120   126   am
    64    47    46    1
    65   102   103    2
    66   102   101    1
    67   139   140    1
    68   139   138    1
    69   126   127    1
    70    63    62    1
    71   106   105    2
    72   140   141    2
    73     4     3    2
    74   100   101    1
    75     5     7    1
    76     5     6    1
    77     5     2    1
    78   138   132   am
    79    45    46    1
    80   101   104    1
    81     1     2    1
    82   105   104    1
    83   105   107   am
    84   127   128    1
    85     2     3    1
    86     3     8   am
    87    95    94    2
    88    29    30   ar
    89    29    27   ar
    90   128   130   am
    91   128   129    2
    92   130   131    1
    93   132   133    2
    94   132   131    1
    95    94    93    1
    96    30    28   ar
    97    27    26   ar
    98    92    93    1
    99     8     9    1
   100   131   134    1
   101   134   135    1
   102     9    10    1
   103    93    96    1
   104    28    26   ar
   105    26    25    1
   106   135   136    1
   107    10    12   am
   108    10    11    2
   109    96    97    1
   110    12    13    1
   111    19    18    2
   112    25    22    1
   113    18    17    1
   114    18    20   am
   115    17    16    1
   116    21    22    1
   117    21    14   am
   118   136   137    1
   119    97    99    1
   120    97    98    1
   121    16    13    1
   122    13    14    1
   123    22    23    1
   124    14    15    2
   125    23    24    2
   126    43    44   ar
   127    43    41   ar
   128    44    42   ar
   129    41    38   ar
   130    42    40   ar
   131    38    40   ar
   132    38    36   ar
   133    40    39   ar
   134    31    32    1
   135    35    36    1
   136    35    32    1
   137    36    37   ar
   138    32    33    1
   139    39    37   ar
   140    33    34    2
