@<TRIPOS>MOLECULE
tmp/5k2oA02.pdb
 79 73 0 0 0
SMALL
GASTEIGER

@<TRIPOS>ATOM
      1  N         54.7220  -45.2080  -20.3510 N.3    28  GLU28      -0.1231
      2  CA        55.6220  -44.1030  -20.6600 C.3    28  GLU28       0.1699
      3  C         56.8260  -44.5720  -21.4700 C.2    28  GLU28       0.2592
      4  O         57.5130  -43.7670  -22.0990 O.2    28  GLU28      -0.2718
      5  CB        56.0900  -43.4230  -19.3730 C.3    28  GLU28       0.0402
      6  CG        54.9890  -42.7020  -18.6180 C.3    28  GLU28       0.1161
      7  CD        55.4810  -42.0870  -17.3250 C.2    28  GLU28       0.3649
      8  OE1       55.7330  -42.8460  -16.3650 O.co2  28  GLU28      -0.2457
      9  OE2       55.6170  -40.8470  -17.2690 O.co2  28  GLU28      -0.2457
     10  N         57.0760  -45.8760  -21.4530 N.am   29  THR29      -0.1953
     11  CA        58.2120  -46.4420  -22.1700 C.3    29  THR29       0.1897
     12  C         57.8340  -47.7210  -22.9050 C.2    29  THR29       0.2313
     13  O         57.1860  -48.6050  -22.3450 O.2    29  THR29      -0.2863
     14  CB        59.3850  -46.7470  -21.2160 C.3    29  THR29       0.1794
     15  OG1       59.6530  -45.6010  -20.3980 O.3    29  THR29      -0.2208
     16  CG2       60.6340  -47.1130  -22.0020 C.3    29  THR29       0.0378
     17  N         54.3710  -38.4800  -24.7690 N.3    50  SER50      -0.1217
     18  CA        54.4450  -39.0540  -23.4300 C.3    50  SER50       0.1889
     19  C         55.0630  -40.4510  -23.4260 C.2    50  SER50       0.2288
     20  O         55.4900  -40.9390  -22.3810 O.2    50  SER50      -0.2866
     21  CB        53.0550  -39.1040  -22.7940 C.3    50  SER50       0.2089
     22  OG        52.1900  -39.9590  -23.5180 O.3    50  SER50      -0.2183
     23  N         58.0890  -42.8030  -24.6450 N.3    52  ARG52      -0.1245
     24  CA        59.4430  -42.8930  -25.1730 C.3    52  ARG52       0.1563
     25  C         59.7010  -44.2840  -25.7340 C.2    52  ARG52       0.2260
     26  O         59.3830  -45.2860  -25.0930 O.2    52  ARG52      -0.2867
     27  CB        60.4630  -42.5700  -24.0780 C.3    52  ARG52       0.0307
     28  CG        61.8990  -42.9610  -24.4070 C.3    52  ARG52       0.0489
     29  CD        62.7760  -42.9300  -23.1610 C.3    52  ARG52       0.2205
     30  NE        64.1980  -43.0470  -23.4760 N.pl3  52  ARG52      -0.0865
     31  CZ        65.1680  -43.0650  -22.5660 C.cat  52  ARG52       0.5346
     32  NH1       64.8740  -42.9800  -21.2760 N.pl3  52  ARG52       0.1354
     33  NH2       66.4350  -43.1740  -22.9440 N.pl3  52  ARG52       0.1354
     34  N         62.6050  -53.8270  -17.1660 N.3    69  TYR69      -0.1241
     35  CA        61.7500  -52.6900  -16.8500 C.3    69  TYR69       0.1605
     36  C         60.6650  -53.1000  -15.8590 C.2    69  TYR69       0.2264
     37  O         60.4390  -52.4280  -14.8520 O.2    69  TYR69      -0.2867
     38  CB        61.1270  -52.1330  -18.1340 C.3    69  TYR69       0.0534
     39  CG        60.3240  -50.8590  -17.9680 C.ar   69  TYR69      -0.0201
     40  CD1       58.9960  -50.8950  -17.5570 C.ar   69  TYR69      -0.0009
     41  CD2       60.8910  -49.6210  -18.2420 C.ar   69  TYR69      -0.0009
     42  CE1       58.2590  -49.7340  -17.4130 C.ar   69  TYR69       0.0417
     43  CE2       60.1620  -48.4550  -18.1010 C.ar   69  TYR69       0.0417
     44  CZ        58.8470  -48.5170  -17.6870 C.ar   69  TYR69       0.1957
     45  OH        58.1190  -47.3580  -17.5460 O.3    69  TYR69      -0.2866
     46  N         60.4430  -52.5270  -11.3810 N.3    73  SER73      -0.1217
     47  CA        59.5020  -51.4540  -11.0750 C.3    73  SER73       0.1889
     48  C         58.1390  -51.9410  -10.5930 C.2    73  SER73       0.2288
     49  O         57.4510  -51.2360   -9.8540 O.2    73  SER73      -0.2866
     50  CB        59.3150  -50.5640  -12.3040 C.3    73  SER73       0.2089
     51  OG        58.6790  -51.2740  -13.3510 O.3    73  SER73      -0.2183
     52  N         55.8400  -52.4300  -12.6750 N.3    75  LYS75      -0.1245
     53  CA        54.9850  -51.9780  -13.7650 C.3    75  LYS75       0.1561
     54  C         55.0060  -53.0120  -14.8840 C.2    75  LYS75       0.2260
     55  O         55.8970  -53.8570  -14.9270 O.2    75  LYS75      -0.2867
     56  CB        55.4510  -50.6170  -14.2850 C.3    75  LYS75       0.0271
     57  CG        55.7950  -49.6180  -13.1940 C.3    75  LYS75       0.0035
     58  CD        56.3740  -48.3440  -13.7850 C.3    75  LYS75       0.0206
     59  CE        55.3490  -47.6330  -14.6480 C.3    75  LYS75       0.1093
     60  NZ        55.8400  -46.3140  -15.1350 N.3    75  LYS75      -0.1314
     61  N         66.1770  -47.5830  -17.4130 N.3   439  VAL439     -0.1231
     62  CA        65.1730  -46.6560  -17.9190 C.3   439  VAL439      0.1692
     63  C         64.0770  -46.4720  -16.8730 C.2   439  VAL439      0.2591
     64  O         63.5570  -45.3710  -16.6860 O.2   439  VAL439     -0.2718
     65  CB        64.5640  -47.1460  -19.2500 C.3   439  VAL439      0.0266
     66  CG1       63.4120  -46.2510  -19.6820 C.3   439  VAL439      0.0020
     67  CG2       65.6340  -47.2020  -20.3290 C.3   439  VAL439      0.0020
     68  N         63.7480  -47.5560  -16.1770 N.am  440  ALA440     -0.1980
     69  CA        62.7340  -47.5170  -15.1290 C.3   440  ALA440      0.1597
     70  C         63.2830  -46.9030  -13.8430 C.2   440  ALA440      0.2287
     71  O         62.5230  -46.4580  -12.9860 O.2   440  ALA440     -0.2864
     72  CB        62.1980  -48.9170  -14.8610 C.3   440  ALA440      0.0319
     73  N         66.2700  -44.3000  -13.4070 N.3   442  PRO442     -0.2116
     74  CA        67.3270  -43.4540  -13.9750 C.3   442  PRO442      0.1372
     75  C         68.3730  -43.0160  -12.9550 C.2   442  PRO442      0.2244
     76  O         69.5250  -42.7890  -13.3250 O.2   442  PRO442     -0.2868
     77  CB        66.5590  -42.2340  -14.5070 C.3   442  PRO442      0.0268
     78  CG        65.1210  -42.6390  -14.5300 C.3   442  PRO442      0.0207
     79  CD        64.9640  -43.6240  -13.4250 C.3   442  PRO442      0.0892
@<TRIPOS>BOND
     1    25    24    1
     2    25    26    2
     3    24    23    1
     4    24    27    1
     5    17    18    1
     6    28    27    1
     7    28    29    1
     8    22    21    1
     9    30    29    1
    10    30    31    2
    11    18    19    1
    12    18    21    1
    13    19    20    2
    14    33    31    1
    15    12    13    2
    16    12    11    1
    17    31    32    1
    18    11    10    1
    19    11    14    1
    20     4     3    2
    21    16    14    1
    22     3    10   am
    23     3     2    1
    24    14    15    1
    25     2     1    1
    26     2     5    1
    27    67    65    1
    28    66    65    1
    29     5     6    1
    30    65    62    1
    31     6     7    1
    32    41    43   ar
    33    41    39   ar
    34    38    39    1
    35    38    35    1
    36    43    44   ar
    37    39    40   ar
    38    62    61    1
    39    62    63    1
    40    44    45    1
    41    44    42   ar
    42    40    42   ar
    43     7     9   ar
    44     7     8   ar
    45    34    35    1
    46    63    64    2
    47    63    68   am
    48    35    36    1
    49    68    69    1
    50    36    37    2
    51    60    59    1
    52    69    72    1
    53    69    70    1
    54    55    54    2
    55    54    53    1
    56    59    58    1
    57    78    77    1
    58    78    79    1
    59    77    74    1
    60    56    53    1
    61    56    57    1
    62    74    73    1
    63    74    75    1
    64    70    71    2
    65    58    57    1
    66    53    52    1
    67    79    73    1
    68    51    50    1
    69    76    75    2
    70    50    47    1
    71    46    47    1
    72    47    48    1
    73    48    49    2
