@<TRIPOS>MOLECULE
tmp/5k2xA00.pdb
 86 83 0 0 0
SMALL
GASTEIGER

@<TRIPOS>ATOM
      1  N         21.5600    5.2870  -21.9640 N.3    81  MET81      -0.1230
      2  CA        22.0730    6.0630  -23.0820 C.3    81  MET81       0.1702
      3  C         23.5210    6.5030  -22.8420 C.2    81  MET81       0.2592
      4  O         23.8970    6.9410  -21.7450 O.2    81  MET81      -0.2718
      5  CB        21.2340    7.3290  -23.2540 C.3    81  MET81       0.0401
      6  CG        19.8350    7.0520  -23.7720 C.3    81  MET81       0.0596
      7  SD        18.9200    8.5940  -23.9070 S.3    81  MET81      -0.1393
      8  CE        17.3600    7.8740  -24.4230 C.3    81  MET81       0.0692
      9  N         24.3500    6.4150  -23.8920 N.am   82  LYS82      -0.1966
     10  CA        25.6600    7.0480  -23.8020 C.3    82  LYS82       0.1728
     11  C         25.4400    8.5630  -23.7240 C.2    82  LYS82       0.2616
     12  O         24.6310    9.1380  -24.4580 O.2    82  LYS82      -0.2715
     13  CB        26.4830    6.7410  -25.0950 C.3    82  LYS82       0.0311
     14  CG        26.8150    5.2930  -25.3330 C.3    82  LYS82       0.0038
     15  CD        27.7370    5.1800  -26.5240 C.3    82  LYS82       0.0206
     16  CE        28.0210    3.7250  -26.8700 C.3    82  LYS82       0.1093
     17  NZ        28.2210    2.8740  -25.6430 N.3    82  LYS82      -0.1314
     18  N         26.1870    9.1990  -22.8510 N.am   83  ILE83      -0.1963
     19  CA        26.1120   10.6500  -22.7610 C.3    83  ILE83       0.1727
     20  C         27.1880   11.2410  -23.6900 C.2    83  ILE83       0.2616
     21  O         28.3920   11.1970  -23.3470 O.2    83  ILE83      -0.2715
     22  CB        26.2710   11.1150  -21.2950 C.3    83  ILE83       0.0290
     23  CG1       25.1790   10.4900  -20.3710 C.3    83  ILE83       0.0022
     24  CG2       26.2860   12.6620  -21.2080 C.3    83  ILE83       0.0023
     25  CD1       23.7350   10.6770  -20.8180 C.3    83  ILE83       0.0001
     26  N         26.7340   11.7960  -24.8090 N.am   84  GLN84      -0.1963
     27  CA        27.6360   12.1320  -25.9080 C.3    84  GLN84       0.1733
     28  C         27.6750   13.6510  -26.0120 C.2    84  GLN84       0.2617
     29  O         26.8720   14.2840  -26.7020 O.2    84  GLN84      -0.2715
     30  CB        27.1650   11.4710  -27.2290 C.3    84  GLN84       0.0408
     31  CG        27.1660    9.9480  -27.1510 C.3    84  GLN84       0.0908
     32  CD        26.4580    9.3010  -28.3200 C.2    84  GLN84       0.2608
     33  OE1       25.3490    9.6700  -28.6480 O.2    84  GLN84      -0.2717
     34  NE2       27.1140    8.3640  -28.9720 N.am   84  GLN84      -0.0878
     35  N         28.6050   14.2240  -25.2530 N.am   85  THR85      -0.1951
     36  CA        28.8130   15.6730  -25.1960 C.3    85  THR85       0.1897
     37  C         30.1550   15.8910  -24.4810 C.2    85  THR85       0.2313
     38  O         30.6920   14.9580  -23.8930 O.2    85  THR85      -0.2863
     39  CB        27.6760   16.3940  -24.4610 C.3    85  THR85       0.1794
     40  OG1       27.8490   17.8270  -24.5580 O.3    85  THR85      -0.2208
     41  CG2       27.6510   15.9860  -23.0150 C.3    85  THR85       0.0378
     42  N         31.1320   20.1020  -16.1680 N.3    90  TRP90      -0.1241
     43  CA        30.5930   19.2000  -15.1560 C.3    90  TRP90       0.1605
     44  C         31.6660   18.8650  -14.1340 C.2    90  TRP90       0.2264
     45  O         32.8300   18.6750  -14.5010 O.2    90  TRP90      -0.2867
     46  CB        30.0480   17.9220  -15.8070 C.3    90  TRP90       0.0550
     47  CG        28.8200   18.1730  -16.6050 C.ar   90  TRP90       0.0003
     48  CD1       27.9270   19.2280  -16.4740 C.ar   90  TRP90       0.0946
     49  CD2       28.3080   17.3470  -17.6630 C.ar   90  TRP90       0.0152
     50  NE1       26.9010   19.0920  -17.3750 N.ar   90  TRP90      -0.2442
     51  CE2       27.1170   17.9730  -18.1380 C.ar   90  TRP90       0.0810
     52  CE3       28.7820   16.1850  -18.3010 C.ar   90  TRP90       0.0012
     53  CZ2       26.3490   17.4400  -19.1840 C.ar   90  TRP90       0.0191
     54  CZ3       28.0020   15.6440  -19.3070 C.ar   90  TRP90       0.0001
     55  CH2       26.8080   16.2770  -19.7470 C.ar   90  TRP90       0.0015
     56  N         24.2470   12.1170  -16.7310 N.3   107  VAL107     -0.1245
     57  CA        24.5160   13.5510  -16.6970 C.3   107  VAL107      0.1561
     58  C         24.6810   13.9390  -15.2160 C.2   107  VAL107      0.2260
     59  O         23.7300   13.7810  -14.4140 O.2   107  VAL107     -0.2867
     60  CB        23.3360   14.3400  -17.2890 C.3   107  VAL107      0.0252
     61  CG1       23.5180   15.8590  -17.0830 C.3   107  VAL107      0.0019
     62  CG2       23.1950   14.0020  -18.7770 C.3   107  VAL107      0.0019
     63  N         16.6800   13.1670  -24.7410 N.3   306  ARG306     -0.1245
     64  CA        17.9430   13.8810  -24.9540 C.3   306  ARG306      0.1563
     65  C         17.8400   15.3720  -24.7230 C.2   306  ARG306      0.2260
     66  O         18.7560   15.9690  -24.1580 O.2   306  ARG306     -0.2867
     67  CB        18.5030   13.5810  -26.3390 C.3   306  ARG306      0.0307
     68  CG        19.0530   12.1580  -26.4170 C.3   306  ARG306      0.0489
     69  CD        19.7760   11.9020  -27.7270 C.3   306  ARG306      0.2205
     70  NE        18.8290   11.8060  -28.8320 N.pl3 306  ARG306     -0.0865
     71  CZ        18.3060   10.6550  -29.2550 C.cat 306  ARG306      0.5346
     72  NH1       18.6550    9.5040  -28.6530 N.pl3 306  ARG306      0.1354
     73  NH2       17.4550   10.6630  -30.2650 N.pl3 306  ARG306      0.1354
     74  N         17.6070   15.7620  -20.8500 N.3   309  LEU309     -0.1231
     75  CA        18.9600   15.6330  -20.2890 C.3   309  LEU309      0.1693
     76  C         19.8590   16.7990  -20.5780 C.2   309  LEU309      0.2591
     77  O         20.5970   17.1950  -19.6870 O.2   309  LEU309     -0.2718
     78  CB        19.6370   14.3590  -20.8140 C.3   309  LEU309      0.0284
     79  CG        19.0470   13.0420  -20.2850 C.3   309  LEU309      0.0019
     80  CD1       19.6530   11.8640  -21.0350 C.3   309  LEU309      0.0001
     81  CD2       19.3060   12.8800  -18.7840 C.3   309  LEU309      0.0001
     82  N         19.7810   17.3760  -21.7950 N.am  310  ALA310     -0.1980
     83  CA        20.5860   18.6040  -22.0790 C.3   310  ALA310      0.1597
     84  C         20.1790   19.7410  -21.1490 C.2   310  ALA310      0.2287
     85  O         21.0470   20.4320  -20.5430 O.2   310  ALA310     -0.2864
     86  CB        20.5090   19.0410  -23.5240 C.3   310  ALA310      0.0319
@<TRIPOS>BOND
     1    73    71    1
     2    71    70    2
     3    71    72    1
     4    34    32   am
     5    70    69    1
     6    33    32    2
     7    32    31    1
     8    69    68    1
     9    30    31    1
    10    30    27    1
    11    16    15    1
    12    16    17    1
    13    29    28    2
    14    15    14    1
    15    68    67    1
    16    67    64    1
    17    28    27    1
    18    28    35   am
    19    27    26    1
    20    14    13    1
    21    35    36    1
    22    36    37    1
    23    36    39    1
    24    13    10    1
    25    64    63    1
    26    64    65    1
    27    26    20   am
    28    65    66    2
    29    40    39    1
    30    37    38    2
    31    39    41    1
    32    12    11    2
    33     8     7    1
    34     7     6    1
    35     9    10    1
    36     9     3   am
    37    10    11    1
    38     6     5    1
    39    11    18   am
    40    20    21    2
    41    20    19    1
    42    86    83    1
    43     5     2    1
    44     2     3    1
    45     2     1    1
    46    18    19    1
    47     3     4    2
    48    19    22    1
    49    83    82    1
    50    83    84    1
    51    82    76   am
    52    22    24    1
    53    22    23    1
    54    84    85    2
    55    80    79    1
    56    74    75    1
    57    25    23    1
    58    78    75    1
    59    78    79    1
    60    76    75    1
    61    76    77    2
    62    79    81    1
    63    55    54   ar
    64    55    53   ar
    65    54    52   ar
    66    53    51   ar
    67    62    60    1
    68    52    49   ar
    69    51    49   ar
    70    51    50   ar
    71    49    47   ar
    72    50    48   ar
    73    60    61    1
    74    60    57    1
    75    56    57    1
    76    57    58    1
    77    47    48   ar
    78    47    46    1
    79    42    43    1
    80    46    43    1
    81    58    59    2
    82    43    44    1
    83    45    44    2
