@<TRIPOS>MOLECULE
tmp/5k2zB00.pdb
 102 91 0 0 0
SMALL
GASTEIGER

@<TRIPOS>ATOM
      1  N        -22.9770  -29.6820   28.6610 N.3    21  ASP21      -0.1239
      2  CA       -21.5620  -29.8370   28.9970 C.3    21  ASP21       0.1674
      3  C        -21.4340  -29.8940   30.5090 C.2    21  ASP21       0.2266
      4  O        -22.0440  -29.1000   31.2290 O.2    21  ASP21      -0.2867
      5  CB       -20.6820  -28.6870   28.4590 C.3    21  ASP21       0.1410
      6  CG       -20.6080  -28.6250   26.9280 C.2    21  ASP21       0.3668
      7  OD1      -21.1280  -29.5070   26.2180 O.co2  21  ASP21      -0.2456
      8  OD2      -20.0250  -27.6340   26.4200 O.co2  21  ASP21      -0.2456
      9  N        -22.1220  -34.1150   28.2380 N.3    40  MET40      -0.1245
     10  CA       -20.8770  -33.9860   27.4920 C.3    40  MET40       0.1570
     11  C        -19.7870  -33.7200   28.5190 C.2    40  MET40       0.2261
     12  O        -19.7260  -32.6430   29.1010 O.2    40  MET40      -0.2867
     13  CB       -20.9980  -32.8240   26.5020 C.3    40  MET40       0.0387
     14  CG       -19.7440  -32.4720   25.7120 C.3    40  MET40       0.0595
     15  SD       -19.2500  -33.7970   24.6350 S.3    40  MET40      -0.1393
     16  CE       -20.5300  -33.7760   23.3850 C.3    40  MET40       0.0692
     17  N        -16.6640  -24.0450   27.6850 N.3    46  PRO46      -0.2116
     18  CA       -16.0710  -23.1600   26.6750 C.3    46  PRO46       0.1372
     19  C        -15.7740  -21.7190   27.1330 C.2    46  PRO46       0.2244
     20  O        -14.7210  -21.1730   26.7600 O.2    46  PRO46      -0.2868
     21  CB       -17.1110  -23.1830   25.5500 C.3    46  PRO46       0.0268
     22  CG       -17.7290  -24.5250   25.6650 C.3    46  PRO46       0.0207
     23  CD       -17.8380  -24.7550   27.1440 C.3    46  PRO46       0.0892
     24  N        -15.3200  -35.0840   24.7050 N.3    78  LYS78      -0.1245
     25  CA       -14.6300  -34.3390   23.6470 C.3    78  LYS78       0.1561
     26  C        -13.2170  -34.8550   23.4060 C.2    78  LYS78       0.2260
     27  O        -12.4810  -35.1680   24.3340 O.2    78  LYS78      -0.2867
     28  CB       -14.5940  -32.8470   23.9660 C.3    78  LYS78       0.0271
     29  CG       -15.9580  -32.1700   23.8460 C.3    78  LYS78       0.0035
     30  CD       -15.8770  -30.6820   24.1390 C.3    78  LYS78       0.0206
     31  CE       -17.2190  -29.9730   23.9610 C.3    78  LYS78       0.1093
     32  NZ       -17.6100  -29.7010   22.5370 N.3    78  LYS78      -0.1314
     33  N        -17.2870  -36.3820   20.7310 N.3    99  ASP99      -0.1239
     34  CA       -17.3800  -35.1100   20.0320 C.3    99  ASP99       0.1674
     35  C        -15.9640  -34.6620   19.6210 C.2    99  ASP99       0.2266
     36  O        -15.1490  -34.2960   20.4650 O.2    99  ASP99      -0.2867
     37  CB       -18.0720  -34.0850   20.9310 C.3    99  ASP99       0.1410
     38  CG       -18.3530  -32.7530   20.2220 C.2    99  ASP99       0.3668
     39  OD1      -17.6820  -32.4260   19.2090 O.co2  99  ASP99      -0.2456
     40  OD2      -19.2610  -32.0240   20.6700 O.co2  99  ASP99      -0.2456
     41  N        -14.0960  -32.0070   18.7570 N.3   101  SER101     -0.1217
     42  CA       -14.5720  -30.6600   19.0830 C.3   101  SER101      0.1889
     43  C        -13.5910  -29.5230   18.8210 C.2   101  SER101      0.2288
     44  O        -12.4760  -29.4930   19.3240 O.2   101  SER101     -0.2866
     45  CB       -14.9490  -30.6070   20.5480 C.3   101  SER101      0.2089
     46  OG       -15.3090  -29.2960   20.9180 O.3   101  SER101     -0.2183
     47  N        -13.8080  -26.6610   20.2290 N.3   103  VAL103     -0.1245
     48  CA       -13.5250  -25.8520   21.4240 C.3   103  VAL103      0.1561
     49  C        -12.2550  -26.2950   22.1270 C.2   103  VAL103      0.2260
     50  O        -11.6420  -25.5030   22.8440 O.2   103  VAL103     -0.2867
     51  CB       -14.6850  -25.7400   22.4530 C.3   103  VAL103      0.0252
     52  CG1      -15.9780  -25.3460   21.7510 C.3   103  VAL103      0.0019
     53  CG2      -14.8420  -26.9930   23.2840 C.3   103  VAL103      0.0019
     54  N        -23.1480  -30.7660   14.8340 N.3   144  ARG144     -0.1245
     55  CA       -23.3850  -29.6460   15.7140 C.3   144  ARG144      0.1563
     56  C        -23.1180  -28.3990   14.8490 C.2   144  ARG144      0.2260
     57  O        -21.9880  -28.1630   14.4140 O.2   144  ARG144     -0.2867
     58  CB       -22.4080  -29.7540   16.8800 C.3   144  ARG144      0.0307
     59  CG       -22.3960  -28.6020   17.8350 C.3   144  ARG144      0.0489
     60  CD       -21.6250  -28.9270   19.1170 C.3   144  ARG144      0.2205
     61  NE       -20.3940  -29.6950   18.9000 N.pl3 144  ARG144     -0.0865
     62  CZ       -19.3210  -29.2090   18.3070 C.cat 144  ARG144      0.5346
     63  NH1      -19.3260  -27.9650   17.8330 N.pl3 144  ARG144      0.1354
     64  NH2      -18.2400  -29.9660   18.1570 N.pl3 144  ARG144      0.1354
     65  N        -22.3820  -24.8100   14.7350 N.3   146  LYS146     -0.1245
     66  CA       -21.7290  -24.0940   15.8070 C.3   146  LYS146      0.1561
     67  C        -21.5730  -22.5970   15.5580 C.2   146  LYS146      0.2260
     68  O        -21.0750  -22.1850   14.5150 O.2   146  LYS146     -0.2867
     69  CB       -20.3380  -24.6790   16.0360 C.3   146  LYS146      0.0271
     70  CG       -19.6020  -24.0190   17.1910 C.3   146  LYS146      0.0035
     71  CD       -20.2540  -24.2710   18.5340 C.3   146  LYS146      0.0206
     72  CE       -19.3330  -23.8400   19.6650 C.3   146  LYS146      0.1093
     73  NZ       -19.8230  -24.2370   21.0250 N.3   146  LYS146     -0.1314
     74  N        -18.2630  -19.8860   20.6720 N.3   149  ALA149     -0.1245
     75  CA       -18.0890  -20.6740   21.8810 C.3   149  ALA149      0.1562
     76  C        -17.7380  -19.7530   23.0270 C.2   149  ALA149      0.2260
     77  O        -16.8160  -18.9460   22.9200 O.2   149  ALA149     -0.2867
     78  CB       -16.9870  -21.7190   21.6740 C.3   149  ALA149      0.0290
     79  N        -25.4500  -25.2270   18.5180 N.3   209  ALA209     -0.1231
     80  CA       -24.6060  -24.9600   19.6600 C.3   209  ALA209      0.1694
     81  C        -23.9440  -23.5930   19.5200 C.2   209  ALA209      0.2592
     82  O        -23.7150  -23.1200   18.4050 O.2   209  ALA209     -0.2718
     83  CB       -23.5460  -26.0190   19.7540 C.3   209  ALA209      0.0304
     84  N        -23.6280  -22.9850   20.6540 N.am  210  GLY210     -0.1957
     85  CA       -22.8450  -21.7690   20.6770 C.3   210  GLY210      0.1869
     86  C        -23.6640  -20.5590   21.0310 C.2   210  GLY210      0.2309
     87  O        -24.3520  -19.9770   20.1990 O.2   210  GLY210     -0.2863
     88  N        -27.0380  -28.0610   22.0650 N.3   230  PHE230     -0.1241
     89  CA       -26.0170  -28.1400   23.0960 C.3   230  PHE230      0.1605
     90  C        -26.0230  -26.8430   23.9090 C.2   230  PHE230      0.2264
     91  O        -26.1800  -25.7520   23.3590 O.2   230  PHE230     -0.2867
     92  CB       -24.6190  -28.2990   22.5050 C.3   230  PHE230      0.0534
     93  CG       -24.3620  -29.6040   21.8360 C.ar  230  PHE230     -0.0203
     94  CD1      -24.8170  -29.8490   20.5360 C.ar  230  PHE230     -0.0042
     95  CD2      -23.6080  -30.5740   22.4650 C.ar  230  PHE230     -0.0042
     96  CE1      -24.5370  -31.0430   19.9030 C.ar  230  PHE230     -0.0003
     97  CE2      -23.3500  -31.7790   21.8410 C.ar  230  PHE230     -0.0003
     98  CZ       -23.8070  -32.0140   20.5620 C.ar  230  PHE230     -0.0000
     99  N        -23.3610  -25.2410   26.8230 N.3   232  GLY232     -0.1225
    100  CA       -22.0990  -25.4370   27.5280 C.3   232  GLY232      0.1811
    101  C        -22.0540  -24.4980   28.6960 C.2   232  GLY232      0.2280
    102  O        -22.3740  -24.8530   29.8560 O.2   232  GLY232     -0.2866
@<TRIPOS>BOND
     1    57    56    2
     2    68    67    2
     3    65    66    1
     4    54    55    1
     5    56    55    1
     6    67    66    1
     7    55    58    1
     8    66    69    1
     9    69    70    1
    10    58    59    1
    11    70    71    1
    12    63    62    1
    13    59    60    1
    14    64    62    1
    15    62    61    2
    16    82    81    2
    17    79    80    1
    18    71    72    1
    19    41    42    1
    20    43    42    1
    21    43    44    2
    22    61    60    1
    23    42    45    1
    24    39    38   ar
    25    81    80    1
    26    81    84   am
    27    35    34    1
    28    35    36    2
    29    80    83    1
    30    72    73    1
    31    96    94   ar
    32    96    98   ar
    33    34    33    1
    34    34    37    1
    35    87    86    2
    36    38    40   ar
    37    38    37    1
    38    47    48    1
    39    94    93   ar
    40    45    46    1
    41    98    97   ar
    42    84    85    1
    43    74    75    1
    44    85    86    1
    45    48    49    1
    46    48    51    1
    47    78    75    1
    48    52    51    1
    49    93    95   ar
    50    93    92    1
    51    97    95   ar
    52    75    76    1
    53    88    89    1
    54    49    50    2
    55    51    53    1
    56    92    89    1
    57    32    31    1
    58    77    76    2
    59    89    90    1
    60    91    90    2
    61    16    15    1
    62    26    25    1
    63    26    27    2
    64    25    28    1
    65    25    24    1
    66    29    28    1
    67    29    30    1
    68    31    30    1
    69    15    14    1
    70    21    22    1
    71    21    18    1
    72    22    23    1
    73    14    13    1
    74     7     6   ar
    75     8     6   ar
    76    13    10    1
    77    18    19    1
    78    18    17    1
    79    20    19    2
    80    99   100    1
    81     6     5    1
    82    23    17    1
    83    10     9    1
    84    10    11    1
    85   100   101    1
    86     5     2    1
    87    11    12    2
    88     1     2    1
    89   101   102    2
    90     2     3    1
    91     3     4    2
