@<TRIPOS>MOLECULE
tmp/5k30A00.pdb
 111 103 0 0 0
SMALL
GASTEIGER

@<TRIPOS>ATOM
      1  N          0.8790   17.3770    5.2120 N.3    75  SER75      -0.1202
      2  CA         1.9740   17.5100    6.1680 C.3    75  SER75       0.2020
      3  C          1.5080   18.3840    7.3150 C.2    75  SER75       0.2619
      4  O          0.5330   19.1340    7.1900 O.2    75  SER75      -0.2717
      5  CB         3.2260   18.1330    5.5320 C.3    75  SER75       0.2103
      6  OG         2.9590   19.4520    5.0490 O.3    75  SER75      -0.2182
      7  N          2.2230   18.2740    8.4320 N.am   76  GLY76      -0.1942
      8  CA         1.9970   19.1960    9.5360 C.3    76  GLY76       0.2014
      9  C          2.0970   20.6460    9.0970 C.2    76  GLY76       0.2638
     10  O          1.2320   21.4660    9.4090 O.2    76  GLY76      -0.2714
     11  N          3.1320   20.9800    8.3270 N.am   77  ILE77      -0.1977
     12  CA         3.2570   22.3760    7.9140 C.3    77  ILE77       0.1596
     13  C          2.0820   22.7770    7.0250 C.2    77  ILE77       0.2287
     14  O          1.5610   23.8950    7.1340 O.2    77  ILE77      -0.2864
     15  CB         4.6250   22.6410    7.2550 C.3    77  ILE77       0.0276
     16  CG1        4.7710   24.1380    6.9340 C.3    77  ILE77       0.0022
     17  CG2        4.8240   21.8120    6.0110 C.3    77  ILE77       0.0022
     18  CD1        4.6720   25.0590    8.1740 C.3    77  ILE77       0.0001
     19  N         -0.7680   23.8330    9.1210 N.3    80  ILE80      -0.1245
     20  CA        -0.5630   25.1700    9.6670 C.3    80  ILE80       0.1561
     21  C         -0.7860   26.2290    8.5920 C.2    80  ILE80       0.2260
     22  O         -1.4780   27.2280    8.8180 O.2    80  ILE80      -0.2867
     23  CB         0.8440   25.2700   10.2840 C.3    80  ILE80       0.0252
     24  CG1        0.9730   24.3000   11.4630 C.3    80  ILE80       0.0019
     25  CG2        1.1610   26.7100   10.7080 C.3    80  ILE80       0.0019
     26  CD1        2.4010   24.0430   11.8730 C.3    80  ILE80       0.0001
     27  N          8.0450   25.6090   16.3900 N.3   101  TYR101     -0.1241
     28  CA         8.7500   24.6530   15.5480 C.3   101  TYR101      0.1605
     29  C          9.3890   25.3570   14.3530 C.2   101  TYR101      0.2264
     30  O          8.8090   26.2770   13.7680 O.2   101  TYR101     -0.2867
     31  CB         7.7620   23.5700   15.1060 C.3   101  TYR101      0.0534
     32  CG         8.1920   22.7160   13.9410 C.ar  101  TYR101     -0.0201
     33  CD1        8.9940   21.6020   14.1340 C.ar  101  TYR101     -0.0009
     34  CD2        7.7600   23.0020   12.6550 C.ar  101  TYR101     -0.0009
     35  CE1        9.3760   20.8080   13.0720 C.ar  101  TYR101      0.0417
     36  CE2        8.1310   22.2200   11.5930 C.ar  101  TYR101      0.0417
     37  CZ         8.9450   21.1270   11.7990 C.ar  101  TYR101      0.1957
     38  OH         9.3240   20.3480   10.7270 O.3   101  TYR101     -0.2866
     39  N          2.1430   27.1680   20.5660 N.3   143  GLU143     -0.1245
     40  CA         2.5500   25.7720   20.6000 C.3   143  GLU143      0.1567
     41  C          2.9350   25.4340   22.0360 C.2   143  GLU143      0.2260
     42  O          3.7030   26.1770   22.6570 O.2   143  GLU143     -0.2867
     43  CB         3.7140   25.6150   19.6190 C.3   143  GLU143      0.0388
     44  CG         4.2380   24.2680   19.3520 C.3   143  GLU143      0.1160
     45  CD         5.4500   24.3510   18.4440 C.2   143  GLU143      0.3649
     46  OE1        5.4130   25.1270   17.4510 O.co2 143  GLU143     -0.2457
     47  OE2        6.4490   23.6690   18.7470 O.co2 143  GLU143     -0.2457
     48  N         -0.9740   24.5510   18.0750 N.3   172  ASP172     -0.1239
     49  CA        -0.3000   23.3630   17.5610 C.3   172  ASP172      0.1674
     50  C         -0.1660   22.3690   18.7120 C.2   172  ASP172      0.2266
     51  O          0.6200   22.5850   19.6420 O.2   172  ASP172     -0.2867
     52  CB         1.0580   23.7480   16.9750 C.3   172  ASP172      0.1410
     53  CG         1.8060   22.5690   16.3610 C.2   172  ASP172      0.3668
     54  OD1        1.4660   21.4110   16.6590 O.co2 172  ASP172     -0.2456
     55  OD2        2.7600   22.8190   15.5960 O.co2 172  ASP172     -0.2456
     56  N          0.7500   19.1170   18.4910 N.3   174  THR174     -0.1203
     57  CA         1.4980   17.9550   18.0040 C.3   174  THR174      0.1994
     58  C          2.2320   17.2210   19.1270 C.2   174  THR174      0.2617
     59  O          2.2070   15.9810   19.2080 O.2   174  THR174     -0.2717
     60  CB         2.5070   18.4270   16.9610 C.3   174  THR174      0.1784
     61  OG1        1.8270   18.9810   15.8310 O.3   174  THR174     -0.2211
     62  CG2        3.4120   17.2900   16.5360 C.3   174  THR174      0.0376
     63  N          2.9310   17.9850   19.9710 N.am  175  PHE175     -0.1975
     64  CA         3.7810   17.3780   20.9890 C.3   175  PHE175      0.1639
     65  C          2.9830   16.5260   21.9660 C.2   175  PHE175      0.2290
     66  O          3.5020   15.5040   22.4340 O.2   175  PHE175     -0.2864
     67  CB         4.5560   18.4550   21.7490 C.3   175  PHE175      0.0560
     68  CG         5.9140   18.7450   21.1780 C.ar  175  PHE175     -0.0200
     69  CD1        6.1210   18.7360   19.8060 C.ar  175  PHE175     -0.0042
     70  CD2        6.9790   19.0450   22.0140 C.ar  175  PHE175     -0.0042
     71  CE1        7.3670   19.0170   19.2770 C.ar  175  PHE175     -0.0003
     72  CE2        8.2290   19.3210   21.4940 C.ar  175  PHE175     -0.0003
     73  CZ         8.4250   19.3050   20.1210 C.ar  175  PHE175     -0.0000
     74  N          0.8670   17.9870   13.3930 N.3   194  SER194     -0.1217
     75  CA         1.6150   17.0830   12.5270 C.3   194  SER194      0.1889
     76  C          1.2820   15.6630   12.9630 C.2   194  SER194      0.2288
     77  O          1.6840   15.2490   14.0560 O.2   194  SER194     -0.2866
     78  CB         3.1110   17.3450   12.6440 C.3   194  SER194      0.2089
     79  OG         3.8580   16.3720   11.9180 O.3   194  SER194     -0.2183
     80  N          2.5140   13.2110   11.5780 N.3   196  THR196     -0.1203
     81  CA         3.8450   12.6290   11.4330 C.3   196  THR196      0.1994
     82  C          4.4380   12.1620   12.7600 C.2   196  THR196      0.2617
     83  O          5.2730   11.2570   12.7790 O.2   196  THR196     -0.2717
     84  CB         4.8100   13.6520   10.8010 C.3   196  THR196      0.1784
     85  OG1        4.2170   14.2290    9.6290 O.3   196  THR196     -0.2211
     86  CG2        6.1640   13.0220   10.4480 C.3   196  THR196      0.0376
     87  N          4.0180   12.7870   13.8590 N.am  197  LYS197     -0.1979
     88  CA         4.5790   12.4810   15.1860 C.3   197  LYS197      0.1596
     89  C          3.7400   11.4400   15.8860 C.2   197  LYS197      0.2287
     90  O          3.6320   10.3380   15.3820 O.2   197  LYS197     -0.2864
     91  CB         4.7250   13.7860   15.9590 C.3   197  LYS197      0.0298
     92  CG         5.3520   14.8810   15.0700 C.3   197  LYS197      0.0038
     93  CD         6.7620   14.5170   14.5740 C.3   197  LYS197      0.0206
     94  CE         7.2730   15.5480   13.5500 C.3   197  LYS197      0.1093
     95  NZ         7.2300   16.8940   14.1470 N.3   197  LYS197     -0.1314
     96  N          4.0220   11.1190    6.6960 N.3   206  ILE206     -0.1245
     97  CA         4.0510   12.5710    6.8100 C.3   206  ILE206      0.1561
     98  C          2.6450   13.0680    6.5260 C.2   206  ILE206      0.2260
     99  O          2.0590   12.7200    5.4980 O.2   206  ILE206     -0.2867
    100  CB         5.0700   13.1890    5.8410 C.3   206  ILE206      0.0252
    101  CG1        6.4940   12.8240    6.2650 C.3   206  ILE206      0.0019
    102  CG2        4.8900   14.7110    5.7730 C.3   206  ILE206      0.0019
    103  CD1        7.5460   13.1390    5.2050 C.3   206  ILE206      0.0001
    104  N         10.1890   13.0140   15.9890 N.3   326  LEU326     -0.1245
    105  CA         9.7590   12.6310   17.3280 C.3   326  LEU326      0.1561
    106  C          8.4340   11.8940   17.2370 C.2   326  LEU326      0.2260
    107  O          7.7560   11.9160   16.2070 O.2   326  LEU326     -0.2867
    108  CB         9.6420   13.8510   18.2580 C.3   326  LEU326      0.0270
    109  CG         8.5770   14.8710   17.8450 C.3   326  LEU326      0.0019
    110  CD1        7.2840   14.6730   18.6290 C.3   326  LEU326      0.0001
    111  CD2        9.0980   16.2930   18.0060 C.3   326  LEU326      0.0001
@<TRIPOS>BOND
     1     6     5    1
     2   103   101    1
     3     1     2    1
     4    99    98    2
     5     5     2    1
     6   102   100    1
     7   100   101    1
     8   100    97    1
     9    17    15    1
    10     2     3    1
    11    98    97    1
    12    96    97    1
    13    16    15    1
    14    16    18    1
    15    13    14    2
    16    13    12    1
    17     4     3    2
    18    15    12    1
    19     3     7   am
    20    12    11    1
    21    11     9   am
    22     7     8    1
    23    21    22    2
    24    21    20    1
    25     9    10    2
    26     9     8    1
    27    19    20    1
    28    85    84    1
    29    20    23    1
    30    23    25    1
    31    23    24    1
    32    86    84    1
    33    38    37    1
    34    84    81    1
    35    81    80    1
    36    81    82    1
    37    24    26    1
    38    36    37   ar
    39    36    34   ar
    40    37    35   ar
    41    79    78    1
    42    75    78    1
    43    75    76    1
    44    75    74    1
    45    34    32   ar
    46    82    83    2
    47    82    87   am
    48    76    77    2
    49    35    33   ar
    50    94    95    1
    51    94    93    1
    52    30    29    2
    53    87    88    1
    54    32    33   ar
    55    32    31    1
    56    29    28    1
    57    93    92    1
    58    92    91    1
    59    31    28    1
    60    88    89    1
    61    88    91    1
    62    90    89    2
    63    28    27    1
    64    55    53   ar
    65    61    60    1
    66   104   105    1
    67   107   106    2
    68    53    54   ar
    69    53    52    1
    70    62    60    1
    71    60    57    1
    72    52    49    1
    73   106   105    1
    74   105   108    1
    75    46    45   ar
    76    49    48    1
    77    49    50    1
    78   109   111    1
    79   109   108    1
    80   109   110    1
    81    57    56    1
    82    57    58    1
    83    45    47   ar
    84    45    44    1
    85    50    51    2
    86    58    59    2
    87    58    63   am
    88    71    69   ar
    89    71    73   ar
    90    44    43    1
    91    43    40    1
    92    69    68   ar
    93    63    64    1
    94    73    72   ar
    95    39    40    1
    96    40    41    1
    97    64    67    1
    98    64    65    1
    99    68    67    1
   100    68    70   ar
   101    72    70   ar
   102    65    66    2
   103    41    42    2
