@<TRIPOS>MOLECULE
tmp/5k30A01.pdb
 133 130 0 0 0
SMALL
GASTEIGER

@<TRIPOS>ATOM
      1  N        -12.3620    7.5420   26.4630 N.3     7  PHE7       -0.1241
      2  CA       -11.4250    8.0530   25.4660 C.3     7  PHE7        0.1605
      3  C        -10.7230    6.9220   24.7200 C.2     7  PHE7        0.2264
      4  O        -10.4790    7.0330   23.5140 O.2     7  PHE7       -0.2867
      5  CB       -10.4040    8.9890   26.1190 C.3     7  PHE7        0.0534
      6  CG        -9.7650    9.9530   25.1440 C.ar    7  PHE7       -0.0203
      7  CD1      -10.4380   11.0970   24.7460 C.ar    7  PHE7       -0.0042
      8  CD2       -8.5080    9.7040   24.6150 C.ar    7  PHE7       -0.0042
      9  CE1       -9.8580   11.9900   23.8440 C.ar    7  PHE7       -0.0003
     10  CE2       -7.9240   10.5850   23.7120 C.ar    7  PHE7       -0.0003
     11  CZ        -8.6000   11.7270   23.3260 C.ar    7  PHE7       -0.0000
     12  N        -12.5750   16.9370   20.6840 N.3    66  ARG66      -0.1245
     13  CA       -13.8460   17.5810   21.0360 C.3    66  ARG66       0.1563
     14  C        -14.1340   18.7870   20.1400 C.2    66  ARG66       0.2260
     15  O        -14.6520   19.8100   20.5930 O.2    66  ARG66      -0.2867
     16  CB       -13.8800   17.9820   22.5170 C.3    66  ARG66       0.0307
     17  CG       -14.1070   16.8020   23.4610 C.3    66  ARG66       0.0489
     18  CD       -12.8560   15.9760   23.6630 C.3    66  ARG66       0.2205
     19  NE       -13.0340   14.9950   24.7370 N.pl3  66  ARG66      -0.0865
     20  CZ       -13.1970   13.6840   24.5580 C.cat  66  ARG66       0.5346
     21  NH1      -13.1880   13.1500   23.3360 N.pl3  66  ARG66       0.1354
     22  NH2      -13.3550   12.8980   25.6180 N.pl3  66  ARG66       0.1354
     23  N         -4.1060   14.5030   21.2540 N.3   178  PRO178     -0.2102
     24  CA        -5.3370   14.7160   22.0300 C.3   178  PRO178      0.1504
     25  C         -5.4150   13.8590   23.2780 C.2   178  PRO178      0.2576
     26  O         -6.2160   14.1640   24.1690 O.2   178  PRO178     -0.2718
     27  CB        -6.4540   14.3700   21.0340 C.3   178  PRO178      0.0282
     28  CG        -5.7870   13.6380   19.9090 C.3   178  PRO178      0.0208
     29  CD        -4.3830   14.1360   19.8470 C.3   178  PRO178      0.0893
     30  N         -4.6130   12.7940   23.3760 N.am  179  TYR179     -0.1963
     31  CA        -4.6430   11.9670   24.5810 C.3   179  TYR179      0.1771
     32  C         -4.1450   12.7270   25.8020 C.2   179  TYR179      0.2620
     33  O         -4.5560   12.4260   26.9290 O.2   179  TYR179     -0.2715
     34  CB        -3.8030   10.7100   24.3760 C.3   179  TYR179      0.0574
     35  CG        -3.9960    9.6880   25.4680 C.ar  179  TYR179     -0.0198
     36  CD1       -5.1100    8.8640   25.4700 C.ar  179  TYR179     -0.0009
     37  CD2       -3.0640    9.5410   26.4770 C.ar  179  TYR179     -0.0009
     38  CE1       -5.3040    7.9220   26.4630 C.ar  179  TYR179      0.0417
     39  CE2       -3.2470    8.5790   27.4920 C.ar  179  TYR179      0.0417
     40  CZ        -4.3780    7.7860   27.4640 C.ar  179  TYR179      0.1957
     41  OH        -4.5970    6.8310   28.4220 O.3   179  TYR179     -0.2866
     42  N         -3.2600   13.7020   25.6080 N.am  180  CYS180     -0.1954
     43  CA        -2.6260   14.3760   26.7290 C.3   180  CYS180      0.1843
     44  C         -3.0440   15.8260   26.8930 C.2   180  CYS180      0.2625
     45  O         -2.8270   16.3920   27.9650 O.2   180  CYS180     -0.2714
     46  CB        -1.0990   14.3220   26.5950 C.3   180  CYS180      0.0997
     47  SG        -0.3800   12.6550   26.5760 S.3   180  CYS180     -0.0797
     48  N         -3.6250   16.4440   25.8700 N.am  181  GLN181     -0.1963
     49  CA        -4.0030   17.8430   25.9760 C.3   181  GLN181      0.1733
     50  C         -5.1090   18.1000   24.9670 C.2   181  GLN181      0.2616
     51  O         -5.0660   17.5690   23.8540 O.2   181  GLN181     -0.2715
     52  CB        -2.7930   18.7460   25.7180 C.3   181  GLN181      0.0408
     53  CG        -3.0460   20.2360   25.8300 C.3   181  GLN181      0.0908
     54  CD        -1.7600   21.0110   25.7130 C.2   181  GLN181      0.2608
     55  OE1       -1.2010   21.4460   26.7110 O.2   181  GLN181     -0.2717
     56  NE2       -1.2650   21.1660   24.4880 N.am  181  GLN181     -0.0878
     57  N         -6.1010   18.9020   25.3580 N.am  182  GLN182     -0.1977
     58  CA        -7.2480   19.1780   24.4950 C.3   182  GLN182      0.1601
     59  C         -7.4840   20.6810   24.4260 C.2   182  GLN182      0.2287
     60  O         -8.3120   21.2310   25.1640 O.2   182  GLN182     -0.2864
     61  CB        -8.4900   18.4400   24.9790 C.3   182  GLN182      0.0394
     62  CG        -8.3580   16.9200   24.8740 C.3   182  GLN182      0.0908
     63  CD        -9.5450   16.2020   25.4560 C.2   182  GLN182      0.2608
     64  OE1      -10.1030   16.6290   26.4680 O.2   182  GLN182     -0.2717
     65  NE2       -9.9370   15.0970   24.8310 N.am  182  GLN182     -0.0878
     66  N        -10.1100   24.0270   26.3260 N.3   186  LEU186     -0.1245
     67  CA        -9.5920   25.1500   27.0970 C.3   186  LEU186      0.1561
     68  C         -9.8300   26.4820   26.4050 C.2   186  LEU186      0.2260
     69  O         -9.2900   27.5070   26.8400 O.2   186  LEU186     -0.2867
     70  CB        -8.1010   24.9540   27.3670 C.3   186  LEU186      0.0270
     71  CG        -7.7920   23.6940   28.1900 C.3   186  LEU186      0.0019
     72  CD1       -6.3000   23.4310   28.2900 C.3   186  LEU186      0.0001
     73  CD2       -8.4040   23.8240   29.5740 C.3   186  LEU186      0.0001
     74  N          0.5060    6.3010   26.9450 N.3   252  GLU252     -0.1245
     75  CA         0.7340    5.8520   28.3180 C.3   252  GLU252      0.1567
     76  C          2.1520    5.3210   28.4910 C.2   252  GLU252      0.2260
     77  O          2.8450    5.6760   29.4520 O.2   252  GLU252     -0.2867
     78  CB        -0.2910    4.7900   28.7170 C.3   252  GLU252      0.0388
     79  CG        -1.6970    5.3250   28.9850 C.3   252  GLU252      0.1160
     80  CD        -1.8170    6.1560   30.2690 C.2   252  GLU252      0.3649
     81  OE1       -0.8790    6.1710   31.1030 O.co2 252  GLU252     -0.2457
     82  OE2       -2.8740    6.7910   30.4490 O.co2 252  GLU252     -0.2457
     83  N          0.1950   20.5290   35.2130 N.3   289  GLN289     -0.1231
     84  CA        -0.6780   19.5740   35.8850 C.3   289  GLN289      0.1698
     85  C         -2.1550   19.8610   35.6260 C.2   289  GLN289      0.2592
     86  O         -2.9690   18.9270   35.6030 O.2   289  GLN289     -0.2718
     87  CB        -0.3960   19.5750   37.3920 C.3   289  GLN289      0.0381
     88  CG         0.9650   19.0050   37.7850 C.3   289  GLN289      0.0905
     89  CD         1.1770   17.5690   37.3190 C.2   289  GLN289      0.2608
     90  OE1        0.5840   16.6340   37.8560 O.2   289  GLN289     -0.2717
     91  NE2        2.0410   17.3890   36.3250 N.am  289  GLN289     -0.0878
     92  N         -2.5220   21.1290   35.4410 N.am  290  ARG290     -0.1966
     93  CA        -3.9140   21.4690   35.1630 C.3   290  ARG290      0.1729
     94  C         -4.2640   21.2490   33.7000 C.2   290  ARG290      0.2616
     95  O         -5.3670   20.7940   33.3810 O.2   290  ARG290     -0.2715
     96  CB        -4.1980   22.9220   35.5350 C.3   290  ARG290      0.0348
     97  CG        -4.1590   23.1990   37.0250 C.3   290  ARG290      0.0492
     98  CD        -4.7170   24.5810   37.3410 C.3   290  ARG290      0.2205
     99  NE        -3.9740   25.6590   36.6940 N.pl3 290  ARG290     -0.0865
    100  CZ        -2.8930   26.2300   37.2160 C.cat 290  ARG290      0.5346
    101  NH1       -2.2790   27.2170   36.5700 N.pl3 290  ARG290      0.1354
    102  NH2       -2.4260   25.8100   38.3860 N.pl3 290  ARG290      0.1354
    103  N         -3.3260   21.5500   32.8130 N.am  291  GLN291     -0.1963
    104  CA        -3.5680   21.6300   31.3820 C.3   291  GLN291      0.1733
    105  C         -3.3090   20.3210   30.6490 C.2   291  GLN291      0.2616
    106  O         -3.8880   20.1030   29.5740 O.2   291  GLN291     -0.2715
    107  CB        -2.6750   22.7390   30.8200 C.3   291  GLN291      0.0408
    108  CG        -2.7010   22.9710   29.3610 C.3   291  GLN291      0.0908
    109  CD        -2.0690   24.3000   29.0280 C.2   291  GLN291      0.2608
    110  OE1       -2.6940   25.3380   29.2030 O.2   291  GLN291     -0.2717
    111  NE2       -0.8200   24.2820   28.5640 N.am  291  GLN291     -0.0878
    112  N         -2.4750   19.4490   31.2070 N.am  292  MET292     -0.1963
    113  CA        -2.0230   18.2330   30.5410 C.3   292  MET292      0.1736
    114  C         -2.3820   17.0240   31.3890 C.2   292  MET292      0.2617
    115  O         -2.1370   17.0130   32.5990 O.2   292  MET292     -0.2715
    116  CB        -0.5130   18.2690   30.3080 C.3   292  MET292      0.0427
    117  CG        -0.0400   19.4670   29.5220 C.3   292  MET292      0.0599
    118  SD         1.6400   19.9660   29.9170 S.3   292  MET292     -0.1393
    119  CE         2.6190   18.5520   29.4500 C.3   292  MET292      0.0692
    120  N         -2.9450   15.9980   30.7530 N.am  293  SER293     -0.1936
    121  CA        -3.3030   14.7970   31.4980 C.3   293  SER293      0.2055
    122  C         -2.0950   13.9060   31.7680 C.2   293  SER293      0.2642
    123  O         -2.1080   13.1190   32.7270 O.2   293  SER293     -0.2714
    124  CB        -4.3680   14.0170   30.7380 C.3   293  SER293      0.2130
    125  OG        -3.7740   13.3850   29.6280 O.3   293  SER293     -0.2179
    126  N         -1.0700   13.9930   30.9270 N.am  294  LEU294     -0.1977
    127  CA         0.2060   13.3160   31.1050 C.3   294  LEU294      0.1596
    128  C          1.3060   14.2810   30.6980 C.2   294  LEU294      0.2287
    129  O          1.0650   15.2030   29.9140 O.2   294  LEU294     -0.2864
    130  CB         0.2980   12.0330   30.2670 C.3   294  LEU294      0.0297
    131  CG        -0.5510   10.8550   30.7150 C.3   294  LEU294      0.0022
    132  CD1       -0.4510    9.7280   29.6730 C.3   294  LEU294      0.0001
    133  CD2       -0.0770   10.3670   32.0820 C.3   294  LEU294      0.0001
@<TRIPOS>BOND
     1    29    28    1
     2    29    23    1
     3    28    27    1
     4    14    15    2
     5    14    13    1
     6    12    13    1
     7    27    24    1
     8    13    16    1
     9    23    24    1
    10    24    25    1
    11    16    17    1
    12    25    30   am
    13    25    26    2
    14    11    10   ar
    15    11     9   ar
    16    21    20    1
    17    30    31    1
    18    17    18    1
    19     4     3    2
    20    18    19    1
    21    10     8   ar
    22     9     7   ar
    23    51    50    2
    24    34    31    1
    25    34    35    1
    26    59    58    1
    27    59    60    2
    28    56    54   am
    29    58    61    1
    30    58    57    1
    31    20    19    2
    32    20    22    1
    33    31    32    1
    34     8     6   ar
    35     3     2    1
    36     7     6   ar
    37    65    63   am
    38    62    61    1
    39    62    63    1
    40    50    57   am
    41    50    49    1
    42     6     5    1
    43    63    64    2
    44     2     5    1
    45     2     1    1
    46    35    36   ar
    47    35    37   ar
    48    36    38   ar
    49    42    32   am
    50    42    43    1
    51    54    53    1
    52    54    55    2
    53    52    53    1
    54    52    49    1
    55    32    33    2
    56    48    49    1
    57    48    44   am
    58    66    67    1
    59    68    69    2
    60    68    67    1
    61    38    40   ar
    62    37    39   ar
    63    47    46    1
    64    46    43    1
    65    43    44    1
    66    44    45    2
    67    74    75    1
    68    67    70    1
    69    70    71    1
    70    40    39   ar
    71    40    41    1
    72    71    72    1
    73    71    73    1
    74    75    76    1
    75    75    78    1
    76    76    77    2
    77   111   109   am
    78    78    79    1
    79    79    80    1
    80   109   110    2
    81   109   108    1
    82   108   107    1
    83   119   118    1
    84   117   118    1
    85   117   116    1
    86   106   105    2
    87   125   124    1
    88   132   131    1
    89   129   128    2
    90   130   131    1
    91   130   127    1
    92    80    82   ar
    93    80    81   ar
    94   116   113    1
    95   113   112    1
    96   113   114    1
    97   105   112   am
    98   105   104    1
    99   128   127    1
   100   131   133    1
   101   124   121    1
   102   120   114   am
   103   120   121    1
   104   107   104    1
   105   126   127    1
   106   126   122   am
   107   104   103    1
   108   114   115    2
   109   121   122    1
   110   122   123    2
   111   103    94   am
   112    95    94    2
   113    94    93    1
   114    93    92    1
   115    93    96    1
   116    83    84    1
   117    92    85   am
   118    96    97    1
   119    86    85    2
   120    85    84    1
   121    84    87    1
   122    91    89   am
   123   101   100    1
   124    99   100    2
   125    99    98    1
   126    97    98    1
   127   100   102    1
   128    89    88    1
   129    89    90    2
   130    87    88    1
