@<TRIPOS>MOLECULE
tmp/5k32B00.pdb
 192 188 0 0 0
SMALL
GASTEIGER

@<TRIPOS>ATOM
      1  N          3.3740   46.6770   59.3720 N.3    73  TYR73      -0.1227
      2  CA         4.5830   45.8320   59.2030 C.3    73  TYR73       0.1736
      3  C          5.5310   46.4500   58.1900 C.2    73  TYR73       0.2595
      4  O          6.7270   46.6950   58.5060 O.2    73  TYR73      -0.2718
      5  CB         4.2650   44.3770   58.8340 C.3    73  TYR73       0.0548
      6  CG         5.5140   43.5350   58.6760 C.ar   73  TYR73      -0.0200
      7  CD1        5.9850   42.7860   59.7230 C.ar   73  TYR73      -0.0009
      8  CD2        6.2770   43.5730   57.4820 C.ar   73  TYR73      -0.0009
      9  CE1        7.2020   42.0870   59.6340 C.ar   73  TYR73       0.0417
     10  CE2        7.4840   42.8530   57.3760 C.ar   73  TYR73       0.0417
     11  CZ         7.9450   42.1120   58.4450 C.ar   73  TYR73       0.1957
     12  OH         9.1650   41.4030   58.3500 O.3    73  TYR73      -0.2866
     13  N          5.0200   46.6910   56.9690 N.am   74  HIS74      -0.1975
     14  CA         5.8550   47.1510   55.8250 C.3    74  HIS74       0.1656
     15  C          6.0910   48.6770   55.8250 C.2    74  HIS74       0.2291
     16  O          5.7060   49.3980   54.8990 O.2    74  HIS74      -0.2864
     17  CB         5.2510   46.6470   54.4820 C.3    74  HIS74       0.0771
     18  CG         5.4840   45.1770   54.2610 C.ar   74  HIS74       0.0820
     19  ND1        4.5020   44.2350   54.4000 N.ar   74  HIS74      -0.2267
     20  CD2        6.6180   44.4970   53.9620 C.ar   74  HIS74       0.1154
     21  CE1        5.0140   43.0310   54.1860 C.ar   74  HIS74       0.1986
     22  NE2        6.2940   43.1690   53.9050 N.ar   74  HIS74      -0.2212
     23  N         10.8410   48.2450   59.6370 N.3    78  HIS78      -0.1241
     24  CA        11.1730   47.0550   58.8060 C.3    78  HIS78       0.1621
     25  C         12.3200   47.2800   57.8300 C.2    78  HIS78       0.2264
     26  O         13.2540   46.5060   57.7770 O.2    78  HIS78      -0.2867
     27  CB         9.9160   46.5750   58.0040 C.3    78  HIS78       0.0745
     28  CG        10.2320   45.4630   57.0260 C.ar   78  HIS78       0.0817
     29  ND1       10.6910   44.2360   57.4330 N.ar   78  HIS78      -0.2268
     30  CD2       10.1930   45.4140   55.6730 C.ar   78  HIS78       0.1154
     31  CE1       10.8620   43.4510   56.3780 C.ar   78  HIS78       0.1986
     32  NE2       10.5810   44.1510   55.3100 N.ar   78  HIS78      -0.2212
     33  N         11.3160   47.9430   50.2930 N.3   115  ASP115     -0.1239
     34  CA         9.8100   47.9700   50.5050 C.3   115  ASP115      0.1674
     35  C          9.1510   49.3760   50.4610 C.2   115  ASP115      0.2266
     36  O          7.9850   49.5190   50.8770 O.2   115  ASP115     -0.2867
     37  CB         9.4330   47.2870   51.8440 C.3   115  ASP115      0.1410
     38  CG         9.0420   45.7570   51.6990 C.2   115  ASP115      0.3668
     39  OD1        8.6550   45.2110   50.6180 O.co2 115  ASP115     -0.2456
     40  OD2        9.0670   45.0620   52.7200 O.co2 115  ASP115     -0.2456
     41  N          5.2800   50.7720   50.1070 N.3   118  HIS118     -0.1241
     42  CA         4.4750   49.5980   50.2990 C.3   118  HIS118      0.1621
     43  C          3.0520   49.9900   50.8170 C.2   118  HIS118      0.2264
     44  O          2.9280   50.7240   51.8010 O.2   118  HIS118     -0.2867
     45  CB         5.1840   48.6030   51.2490 C.3   118  HIS118      0.0745
     46  CG         4.7410   47.1980   51.0620 C.ar  118  HIS118      0.0817
     47  ND1        3.4380   46.7950   51.2570 N.ar  118  HIS118     -0.2268
     48  CD2        5.4230   46.0940   50.6860 C.ar  118  HIS118      0.1154
     49  CE1        3.3340   45.5070   50.9960 C.ar  118  HIS118      0.1986
     50  NE2        4.5230   45.0560   50.6380 N.ar  118  HIS118     -0.2212
     51  N         13.4920   39.7290   46.2550 N.3   185  THR185     -0.1218
     52  CA        12.6650   39.7410   47.5090 C.3   185  THR185      0.1862
     53  C         11.2010   39.3820   47.2940 C.2   185  THR185      0.2287
     54  O         10.4250   39.2450   48.2690 O.2   185  THR185     -0.2866
     55  CB        12.7600   41.1150   48.3110 C.3   185  THR185      0.1770
     56  OG1       12.1660   42.1840   47.5580 O.3   185  THR185     -0.2211
     57  CG2       14.1690   41.4510   48.6790 C.3   185  THR185      0.0375
     58  N          8.4300   37.0270   47.1380 N.3   187  MET187     -0.1245
     59  CA         8.2070   35.6500   47.6310 C.3   187  MET187      0.1570
     60  C          7.7810   34.6390   46.5590 C.2   187  MET187      0.2261
     61  O          7.8850   33.4360   46.7920 O.2   187  MET187     -0.2867
     62  CB         7.2070   35.6040   48.7940 C.3   187  MET187      0.0387
     63  CG         7.7820   35.9950   50.1630 C.3   187  MET187      0.0595
     64  SD         9.2990   35.1880   50.7140 S.3   187  MET187     -0.1393
     65  CE         8.5640   33.5840   50.9620 C.3   187  MET187      0.0692
     66  N         17.3940   38.4490   51.0700 N.3   227  HIS227     -0.1241
     67  CA        16.1470   37.6330   51.2800 C.3   227  HIS227      0.1621
     68  C         16.1230   37.0510   52.6730 C.2   227  HIS227      0.2264
     69  O         15.0690   36.9900   53.3170 O.2   227  HIS227     -0.2867
     70  CB        15.9840   36.5490   50.1380 C.3   227  HIS227      0.0745
     71  CG        14.7470   35.6710   50.2200 C.ar  227  HIS227      0.0817
     72  ND1       13.4610   36.1770   50.2050 N.ar  227  HIS227     -0.2268
     73  CD2       14.6090   34.3110   50.1470 C.ar  227  HIS227      0.1154
     74  CE1       12.5810   35.1770   50.2010 C.ar  227  HIS227      0.1986
     75  NE2       13.2490   34.0320   50.1650 N.ar  227  HIS227     -0.2212
     76  N         15.4630   40.0400   55.0010 N.3   230  ASP230     -0.1225
     77  CA        14.0290   40.2110   54.8290 C.3   230  ASP230      0.1805
     78  C         13.1780   39.2210   55.6270 C.2   230  ASP230      0.2597
     79  O         12.1050   39.6140   56.2290 O.2   230  ASP230     -0.2718
     80  CB        13.6740   40.2210   53.3340 C.3   230  ASP230      0.1424
     81  CG        12.2880   40.8760   53.0340 C.2   230  ASP230      0.3668
     82  OD1       11.7940   41.8010   53.7270 O.co2 230  ASP230     -0.2456
     83  OD2       11.7050   40.5100   52.0280 O.co2 230  ASP230     -0.2456
     84  N         13.6340   37.9620   55.6700 N.am  231  LEU231     -0.1979
     85  CA        12.9020   36.9560   56.4610 C.3   231  LEU231      0.1596
     86  C         13.5780   36.6450   57.7600 C.2   231  LEU231      0.2287
     87  O         13.5230   35.5130   58.2040 O.2   231  LEU231     -0.2864
     88  CB        12.5830   35.6750   55.6480 C.3   231  LEU231      0.0297
     89  CG        11.6820   35.8540   54.4160 C.3   231  LEU231      0.0022
     90  CD1       11.4590   34.5280   53.5970 C.3   231  LEU231      0.0001
     91  CD2       10.3400   36.5000   54.7390 C.3   231  LEU231      0.0001
     92  N         13.0620   37.9410   60.8980 N.3   233  ASN233     -0.1226
     93  CA        12.3720   38.2150   62.1620 C.3   233  ASN233      0.1770
     94  C         12.4000   36.9760   63.1070 C.2   233  ASN233      0.2439
     95  O         12.6500   37.1230   64.2800 O.2   233  ASN233     -0.2733
     96  CB        10.8980   38.6780   61.9630 C.3   233  ASN233      0.1168
     97  CG        10.7190   40.0620   61.2580 C.2   233  ASN233      0.2627
     98  OD1        9.5800   40.3980   60.8330 O.2   233  ASN233     -0.2716
     99  ND2       11.7810   40.8520   61.1180 N.am  233  ASN233     -0.0877
    100  N         12.0350   35.7630   62.5960 N.am  234  PRO234     -0.2729
    101  CA        11.8880   34.5840   63.4530 C.3   234  PRO234      0.1401
    102  C         13.2300   34.0280   63.9890 C.2   234  PRO234      0.2269
    103  O         13.2250   33.1610   64.8550 O.2   234  PRO234     -0.2865
    104  CB        11.1430   33.5940   62.5290 C.3   234  PRO234      0.0296
    105  CG        10.5380   34.4850   61.4160 C.3   234  PRO234      0.0237
    106  CD        11.6190   35.4590   61.2080 C.3   234  PRO234      0.0939
    107  N         10.8660   39.2390   67.6920 N.3   241  TYR241     -0.1241
    108  CA         9.9740   38.3940   66.8560 C.3   241  TYR241      0.1605
    109  C          8.4680   38.5870   67.0890 C.2   241  TYR241      0.2264
    110  O          7.7090   38.8180   66.1430 O.2   241  TYR241     -0.2867
    111  CB        10.3900   36.9250   67.0020 C.3   241  TYR241      0.0534
    112  CG         9.6260   35.8980   66.2010 C.ar  241  TYR241     -0.0201
    113  CD1        8.9180   36.2260   65.0390 C.ar  241  TYR241     -0.0009
    114  CD2        9.6920   34.5840   66.5610 C.ar  241  TYR241     -0.0009
    115  CE1        8.2530   35.2290   64.3180 C.ar  241  TYR241      0.0417
    116  CE2        9.0620   33.6110   65.8390 C.ar  241  TYR241      0.0417
    117  CZ         8.3610   33.9220   64.7310 C.ar  241  TYR241      0.1957
    118  OH         7.7440   32.8840   64.0510 O.3   241  TYR241     -0.2866
    119  N          7.1930   41.6890   65.7130 N.3   244  TRP244     -0.1227
    120  CA         7.0910   41.5790   64.2430 C.3   244  TRP244      0.1737
    121  C          5.8580   40.8070   63.7500 C.2   244  TRP244      0.2596
    122  O          5.1980   41.2520   62.8080 O.2   244  TRP244     -0.2718
    123  CB         8.3910   41.0270   63.6670 C.3   244  TRP244      0.0564
    124  CG         9.4700   42.0000   63.6680 C.ar  244  TRP244      0.0003
    125  CD1       10.6930   41.8650   64.2510 C.ar  244  TRP244      0.0946
    126  CD2        9.4690   43.2770   62.9990 C.ar  244  TRP244      0.0152
    127  NE1       11.4390   43.0080   64.0360 N.ar  244  TRP244     -0.2442
    128  CE2       10.6980   43.8950   63.2910 C.ar  244  TRP244      0.0810
    129  CE3        8.4780   44.0080   62.2840 C.ar  244  TRP244      0.0012
    130  CZ2       11.0430   45.1710   62.7910 C.ar  244  TRP244      0.0191
    131  CZ3        8.8170   45.2720   61.7590 C.ar  244  TRP244      0.0001
    132  CH2       10.1110   45.8150   62.0080 C.ar  244  TRP244      0.0015
    133  N          5.4700   39.7360   64.4720 N.am  245  THR245     -0.1953
    134  CA         4.2380   38.9640   64.1670 C.3   245  THR245      0.1897
    135  C          2.9370   39.7590   64.4000 C.2   245  THR245      0.2313
    136  O          2.0520   39.7310   63.5640 O.2   245  THR245     -0.2863
    137  CB         4.2490   37.5960   64.9220 C.3   245  THR245      0.1794
    138  OG1        5.5010   36.9320   64.7020 O.3   245  THR245     -0.2208
    139  CG2        3.0900   36.6830   64.6170 C.3   245  THR245      0.0378
    140  N          2.5780   42.0910   61.3830 N.3   248  ILE248     -0.1231
    141  CA         2.2170   41.4680   60.1080 C.3   248  ILE248      0.1692
    142  C          0.7940   40.9180   60.1830 C.2   248  ILE248      0.2591
    143  O          0.0590   41.0280   59.2040 O.2   248  ILE248     -0.2718
    144  CB         3.2080   40.3710   59.6250 C.3   248  ILE248      0.0266
    145  CG1        3.0010   40.0190   58.1170 C.3   248  ILE248      0.0019
    146  CG2        3.0540   39.0390   60.4400 C.3   248  ILE248      0.0020
    147  CD1        3.1100   41.1570   57.1450 C.3   248  ILE248      0.0001
    148  N          0.3650   40.4200   61.3470 N.am  249  MET249     -0.1979
    149  CA        -1.0780   39.9740   61.4820 C.3   249  MET249      0.1605
    150  C         -2.1220   41.0930   61.3700 C.2   249  MET249      0.2287
    151  O         -3.2150   40.8950   60.7880 O.2   249  MET249     -0.2864
    152  CB        -1.3250   39.1370   62.7680 C.3   249  MET249      0.0413
    153  CG        -0.4070   37.8690   62.8770 C.3   249  MET249      0.0598
    154  SD        -0.4320   36.8830   61.3520 S.3   249  MET249     -0.1393
    155  CE        -2.1780   36.6620   61.1590 C.3   249  MET249      0.0692
    156  N         -2.1370   41.9090   57.6950 N.3   252  PHE252     -0.1241
    157  CA        -2.9260   40.8300   57.1130 C.3   252  PHE252      0.1605
    158  C         -4.4150   40.9840   57.4030 C.2   252  PHE252      0.2264
    159  O         -5.1860   40.8220   56.4760 O.2   252  PHE252     -0.2867
    160  CB        -2.4670   39.4080   57.5090 C.3   252  PHE252      0.0534
    161  CG        -1.2190   38.9400   56.8130 C.ar  252  PHE252     -0.0203
    162  CD1       -0.6230   39.6960   55.7780 C.ar  252  PHE252     -0.0042
    163  CD2       -0.6060   37.7620   57.2020 C.ar  252  PHE252     -0.0042
    164  CE1        0.5610   39.2420   55.1360 C.ar  252  PHE252     -0.0003
    165  CE2        0.5750   37.3230   56.5640 C.ar  252  PHE252     -0.0003
    166  CZ         1.1500   38.0790   55.5290 C.ar  252  PHE252     -0.0000
    167  N          0.1170   29.1220   62.2210 N.3   278  SER278     -0.1202
    168  CA         0.6350   29.7440   61.0070 C.3   278  SER278      0.2020
    169  C          2.1290   30.0800   61.0810 C.2   278  SER278      0.2618
    170  O          2.8260   30.0260   60.0730 O.2   278  SER278     -0.2717
    171  CB        -0.1270   31.0090   60.6870 C.3   278  SER278      0.2103
    172  OG        -1.4730   30.6550   60.3670 O.3   278  SER278     -0.2182
    173  N          2.5860   30.5090   62.2530 N.am  279  GLN279     -0.1979
    174  CA         4.0020   30.8540   62.4150 C.3   279  GLN279      0.1601
    175  C          4.8510   29.5790   62.3580 C.2   279  GLN279      0.2287
    176  O          5.9060   29.5390   61.7320 O.2   279  GLN279     -0.2864
    177  CB         4.2140   31.6120   63.7370 C.3   279  GLN279      0.0394
    178  CG         3.9130   33.1410   63.7130 C.3   279  GLN279      0.0908
    179  CD         4.5010   33.7770   62.4910 C.2   279  GLN279      0.2608
    180  OE1        5.7400   33.6800   62.2510 O.2   279  GLN279     -0.2717
    181  NE2        3.6320   34.2820   61.6270 N.am  279  GLN279     -0.0878
    182  N          5.1730   28.5920   58.8570 N.3   282  PHE282     -0.1241
    183  CA         5.9760   29.6140   58.1500 C.3   282  PHE282      0.1605
    184  C          7.4400   29.2510   58.3100 C.2   282  PHE282      0.2264
    185  O          8.1630   29.1630   57.3620 O.2   282  PHE282     -0.2867
    186  CB         5.6470   30.9830   58.7210 C.3   282  PHE282      0.0534
    187  CG         6.4970   32.1190   58.1930 C.ar  282  PHE282     -0.0203
    188  CD1        6.7480   32.2600   56.8130 C.ar  282  PHE282     -0.0042
    189  CD2        6.9970   33.0780   59.0660 C.ar  282  PHE282     -0.0042
    190  CE1        7.4730   33.3290   56.3150 C.ar  282  PHE282     -0.0003
    191  CE2        7.7590   34.1600   58.5550 C.ar  282  PHE282     -0.0003
    192  CZ         7.9620   34.2990   57.1950 C.ar  282  PHE282     -0.0000
@<TRIPOS>BOND
     1    51    52    1
     2    60    61    2
     3    60    59    1
     4    58    59    1
     5    53    52    1
     6    53    54    2
     7    52    55    1
     8    56    55    1
     9    59    62    1
    10    55    57    1
    11    62    63    1
    12    41    42    1
    13    70    71    1
    14    70    67    1
    15    73    75   ar
    16    73    71   ar
    17    63    64    1
    18    75    74   ar
    19    74    72   ar
    20    72    71   ar
    21    33    34    1
    22    42    43    1
    23    42    45    1
    24    35    34    1
    25    35    36    2
    26    34    37    1
    27    39    38   ar
    28    50    48   ar
    29    50    49   ar
    30    48    46   ar
    31    64    65    1
    32    43    44    2
    33    49    47   ar
    34    46    45    1
    35    46    47   ar
    36    66    67    1
    37    67    68    1
    38    38    37    1
    39    38    40   ar
    40    83    81   ar
    41    68    69    2
    42    81    80    1
    43    81    82   ar
    44    80    77    1
    45    90    89    1
    46    22    20   ar
    47    22    21   ar
    48    20    18   ar
    49    21    19   ar
    50    18    19   ar
    51    18    17    1
    52    89    91    1
    53    89    88    1
    54    17    14    1
    55    77    76    1
    56    77    78    1
    57    16    15    2
    58   164   166   ar
    59   164   162   ar
    60    32    30   ar
    61    32    31   ar
    62   166   165   ar
    63    78    84   am
    64    78    79    2
    65    88    85    1
    66    84    85    1
    67    30    28   ar
    68   162   161   ar
    69    14    15    1
    70    14    13    1
    71   190   188   ar
    72   190   192   ar
    73    31    29   ar
    74    85    86    1
    75   159   158    2
    76   165   163   ar
    77   188   187   ar
    78   161   163   ar
    79   161   160    1
    80    13     3   am
    81    28    29   ar
    82    28    27    1
    83   157   158    1
    84   157   160    1
    85   157   156    1
    86   147   145    1
    87   192   191   ar
    88   185   184    2
    89    10     8   ar
    90    10    11   ar
    91     8     6   ar
    92    86    87    2
    93    26    25    2
    94    25    24    1
    95    27    24    1
    96   145   144    1
    97   183   184    1
    98   183   186    1
    99   183   182    1
   100     3     4    2
   101     3     2    1
   102   187   186    1
   103   187   189   ar
   104    12    11    1
   105    11     9   ar
   106   191   189   ar
   107     6     5    1
   108     6     7   ar
   109    24    23    1
   110     5     2    1
   111     2     1    1
   112   143   142    2
   113   144   141    1
   114   144   146    1
   115     9     7   ar
   116   170   169    2
   117   141   142    1
   118   141   140    1
   119   142   148   am
   120   172   171    1
   121   171   168    1
   122   151   150    2
   123    98    97    2
   124    92    93    1
   125   168   169    1
   126   168   167    1
   127   169   173   am
   128    99    97   am
   129   155   154    1
   130   106   105    1
   131   106   100    1
   132    97    96    1
   133   148   149    1
   134   154   153    1
   135   150   149    1
   136   105   104    1
   137   149   152    1
   138   181   179   am
   139   176   175    2
   140   131   132   ar
   141   131   129   ar
   142    96    93    1
   143   132   130   ar
   144    93    94    1
   145   180   179    2
   146   173   174    1
   147   129   126   ar
   148   175   174    1
   149   174   177    1
   150   179   178    1
   151   104   101    1
   152   100    94   am
   153   100   101    1
   154   152   153    1
   155   130   128   ar
   156   122   121    2
   157   126   128   ar
   158   126   124   ar
   159    94    95    2
   160   128   127   ar
   161   101   102    1
   162   136   135    2
   163   123   124    1
   164   123   120    1
   165   124   125   ar
   166   178   177    1
   167   121   120    1
   168   121   133   am
   169   102   103    2
   170   127   125   ar
   171   118   117    1
   172   134   135    1
   173   134   133    1
   174   134   137    1
   175   120   119    1
   176   115   117   ar
   177   115   113   ar
   178   139   137    1
   179   138   137    1
   180   117   116   ar
   181   113   112   ar
   182   116   114   ar
   183   110   109    2
   184   112   114   ar
   185   112   111    1
   186   108   111    1
   187   108   109    1
   188   108   107    1
