@<TRIPOS>MOLECULE
tmp/5k3iA02.pdb
 140 135 0 0 0
SMALL
GASTEIGER

@<TRIPOS>ATOM
      1  N         75.0390    8.6480    3.7210 N.3   308  TYR308     -0.1241
      2  CA        75.8080    8.4300    4.9490 C.3   308  TYR308      0.1605
      3  C         74.9210    8.1040    6.1420 C.2   308  TYR308      0.2264
      4  O         75.3430    7.3670    7.0440 O.2   308  TYR308     -0.2867
      5  CB        76.6850    9.6400    5.2590 C.3   308  TYR308      0.0534
      6  CG        77.4990    9.4950    6.5270 C.ar  308  TYR308     -0.0201
      7  CD1       78.6690    8.7430    6.5530 C.ar  308  TYR308     -0.0009
      8  CD2       77.1000   10.1150    7.6980 C.ar  308  TYR308     -0.0009
      9  CE1       79.4110    8.6100    7.7250 C.ar  308  TYR308      0.0417
     10  CE2       77.8350    9.9860    8.8620 C.ar  308  TYR308      0.0417
     11  CZ        78.9890    9.2330    8.8690 C.ar  308  TYR308      0.1957
     12  OH        79.7280    9.0960   10.0210 O.3   308  TYR308     -0.2866
     13  N         75.8120    5.0910    8.5290 N.3   312  ARG312     -0.1245
     14  CA        76.2550    5.4560    9.8780 C.3   312  ARG312      0.1563
     15  C         75.2840    4.9180   10.9310 C.2   312  ARG312      0.2260
     16  O         74.1240    5.3360   10.9950 O.2   312  ARG312     -0.2867
     17  CB        76.3840    6.9760   10.0020 C.3   312  ARG312      0.0307
     18  CG        76.8690    7.5050   11.3690 C.3   312  ARG312      0.0489
     19  CD        78.1470    6.8540   11.9190 C.3   312  ARG312      0.2205
     20  NE        78.7180    7.6530   13.0080 N.pl3 312  ARG312     -0.0865
     21  CZ        80.0080    7.6810   13.3370 C.cat 312  ARG312      0.5346
     22  NH1       80.8740    6.9150   12.6950 N.pl3 312  ARG312      0.1354
     23  NH2       80.4290    8.4430   14.3390 N.pl3 312  ARG312      0.1354
     24  N         74.7300    4.5610   15.1080 N.3   314  GLN314     -0.1231
     25  CA        75.1610    5.3090   16.2860 C.3   314  GLN314      0.1698
     26  C         74.0690    5.3910   17.3470 C.2   314  GLN314      0.2593
     27  O         73.0730    6.0990   17.1670 O.2   314  GLN314     -0.2718
     28  CB        75.6040    6.7190   15.8850 C.3   314  GLN314      0.0381
     29  CG        76.5310    7.4290   16.8670 C.3   314  GLN314      0.0905
     30  CD        77.8990    6.7650   17.0330 C.2   314  GLN314      0.2608
     31  OE1       78.6250    7.0620   17.9840 O.2   314  GLN314     -0.2717
     32  NE2       78.2500    5.8630   16.1190 N.am  314  GLN314     -0.0878
     33  N         74.2460    4.6750   18.4490 N.am  315  GLY315     -0.1942
     34  CA        73.2990    4.7120   19.5390 C.3   315  GLY315      0.2014
     35  C         72.1960    3.6810   19.3910 C.2   315  GLY315      0.2638
     36  O         71.9390    3.1400   18.3150 O.2   315  GLY315     -0.2714
     37  N         71.5000    3.4600   20.4960 N.am  316  GLN316     -0.1977
     38  CA        70.3860    2.5330   20.5640 C.3   316  GLN316      0.1601
     39  C         69.0790    3.2750   20.7840 C.2   316  GLN316      0.2287
     40  O         69.0290    4.2780   21.4970 O.2   316  GLN316     -0.2864
     41  CB        70.5980    1.5430   21.7070 C.3   316  GLN316      0.0394
     42  CG        71.8770    0.7780   21.6080 C.3   316  GLN316      0.0908
     43  CD        72.0240   -0.1960   22.7480 C.2   316  GLN316      0.2608
     44  OE1       72.6460    0.1160   23.7590 O.2   316  GLN316     -0.2717
     45  NE2       71.4590   -1.3930   22.5900 N.am  316  GLN316     -0.0878
     46  N         71.5370    6.1530   12.0020 N.3   326  VAL326     -0.1245
     47  CA        71.1240    7.4840   12.4410 C.3   326  VAL326      0.1561
     48  C         69.9260    7.9790   11.6360 C.2   326  VAL326      0.2260
     49  O         69.1860    8.8460   12.1080 O.2   326  VAL326     -0.2867
     50  CB        72.2920    8.4910   12.4090 C.3   326  VAL326      0.0252
     51  CG1       73.4230    8.0060   13.3040 C.3   326  VAL326      0.0019
     52  CG2       72.7580    8.7220   10.9870 C.3   326  VAL326      0.0019
     53  N         66.4420    8.2650   13.6770 N.3   329  TYR329     -0.1241
     54  CA        66.0330    9.2790   14.6410 C.3   329  TYR329      0.1605
     55  C         65.2020   10.3740   13.9810 C.2   329  TYR329      0.2264
     56  O         65.5380   10.8480   12.8970 O.2   329  TYR329     -0.2867
     57  CB        67.2580    9.9040   15.3120 C.3   329  TYR329      0.0534
     58  CG        68.1380    8.9190   16.0470 C.ar  329  TYR329     -0.0201
     59  CD1       67.6790    8.2570   17.1770 C.ar  329  TYR329     -0.0009
     60  CD2       69.4300    8.6560   15.6130 C.ar  329  TYR329     -0.0009
     61  CE1       68.4820    7.3580   17.8530 C.ar  329  TYR329      0.0417
     62  CE2       70.2400    7.7590   16.2830 C.ar  329  TYR329      0.0417
     63  CZ        69.7610    7.1140   17.4010 C.ar  329  TYR329      0.1957
     64  OH        70.5640    6.2200   18.0700 O.3   329  TYR329     -0.2866
     65  N         65.0000   13.4430   14.7850 N.3   331  THR331     -0.1203
     66  CA        65.7980   14.6550   14.5840 C.3   331  THR331      0.1994
     67  C         66.5820   14.5920   13.2900 C.2   331  THR331      0.2617
     68  O         66.7990   15.6220   12.6440 O.2   331  THR331     -0.2717
     69  CB        66.8000   14.9000   15.7200 C.3   331  THR331      0.1784
     70  OG1       67.7300   13.8030   15.7890 O.3   331  THR331     -0.2211
     71  CG2       66.1320   15.1980   17.0460 C.3   331  THR331      0.0376
     72  N         67.0180   13.3970   12.8960 N.am  332  GLN332     -0.1979
     73  CA        67.8110   13.2710   11.6800 C.3   332  GLN332      0.1601
     74  C         66.9350   13.3660   10.4420 C.2   332  GLN332      0.2287
     75  O         67.2560   14.0990    9.5020 O.2   332  GLN332     -0.2864
     76  CB        68.5900   11.9600   11.7150 C.3   332  GLN332      0.0394
     77  CG        69.5260   11.7370   10.5400 C.3   332  GLN332      0.0908
     78  CD        70.9070   12.3540   10.7510 C.2   332  GLN332      0.2608
     79  OE1       71.1170   13.1340   11.6820 O.2   332  GLN332     -0.2717
     80  NE2       71.8540   11.9950    9.8910 N.am  332  GLN332     -0.0878
     81  N         65.9610   16.9580   10.0310 N.3   335  ARG335     -0.1245
     82  CA        66.9980   17.8610    9.5460 C.3   335  ARG335      0.1563
     83  C         67.4260   17.5980    8.1000 C.2   335  ARG335      0.2260
     84  O         68.1560   18.4170    7.5250 O.2   335  ARG335     -0.2867
     85  CB        68.1920   17.8540   10.5220 C.3   335  ARG335      0.0307
     86  CG        69.2170   16.7680   10.3840 C.3   335  ARG335      0.0489
     87  CD        70.2310   16.8180   11.5330 C.3   335  ARG335      0.2205
     88  NE        70.8070   18.1550   11.7140 N.pl3 335  ARG335     -0.0865
     89  CZ        71.9080   18.4200   12.4180 C.cat 335  ARG335      0.5346
     90  NH1       72.5950   17.4380   12.9870 N.pl3 335  ARG335      0.1354
     91  NH2       72.3550   19.6650   12.5050 N.pl3 335  ARG335      0.1354
     92  N         76.1840   18.8170    8.8830 N.3   399  MET399     -0.1230
     93  CA        76.2530   18.5030   10.3070 C.3   399  MET399      0.1702
     94  C         75.5580   17.1870   10.6130 C.2   399  MET399      0.2592
     95  O         75.8470   16.5680   11.6410 O.2   399  MET399     -0.2718
     96  CB        75.6410   19.6290   11.1420 C.3   399  MET399      0.0401
     97  CG        76.4090   20.9310   11.0730 C.3   399  MET399      0.0596
     98  SD        75.6500   22.2140   12.0730 S.3   399  MET399     -0.1393
     99  CE        74.2500   22.6860   11.0690 C.3   399  MET399      0.0692
    100  N         74.6800   16.7270    9.7190 N.am  400  ALA400     -0.1966
    101  CA        74.0570   15.4190    9.8460 C.3   400  ALA400      0.1728
    102  C         75.0350   14.2710    9.6280 C.2   400  ALA400      0.2616
    103  O         74.6750   13.1160    9.8910 O.2   400  ALA400     -0.2715
    104  CB        72.9060   15.2830    8.8480 C.3   400  ALA400      0.0334
    105  N         76.2350   14.5470    9.1270 N.am  401  CYS401     -0.1954
    106  CA        77.2900   13.5520    9.0220 C.3   401  CYS401      0.1843
    107  C         78.1960   13.5030   10.2390 C.2   401  CYS401      0.2626
    108  O         79.1820   12.7590   10.2260 O.2   401  CYS401     -0.2714
    109  CB        78.1330   13.8440    7.7980 C.3   401  CYS401      0.0997
    110  SG        77.1760   13.8860    6.3400 S.3   401  CYS401     -0.0797
    111  N         77.9090   14.2830   11.2780 N.am  402  GLY402     -0.1940
    112  CA        78.7340   14.1900   12.4720 C.3   402  GLY402      0.2014
    113  C         80.1260   14.7210   12.1430 C.2   402  GLY402      0.2639
    114  O         80.3280   15.4840   11.1960 O.2   402  GLY402     -0.2714
    115  N         81.0850   14.3160   12.9770 N.am  403  GLY403     -0.1939
    116  CA        82.4550   14.7840   12.8260 C.3   403  GLY403      0.2014
    117  C         82.9390   14.7330   11.3930 C.2   403  GLY403      0.2638
    118  O         83.4540   15.7180   10.8650 O.2   403  GLY403     -0.2714
    119  N         82.7270   13.5930   10.7240 N.am  404  HIS404     -0.1973
    120  CA        83.2710   13.3750    9.3840 C.3   404  HIS404      0.1656
    121  C         82.7710   14.3880    8.3610 C.2   404  HIS404      0.2291
    122  O         83.4580   14.6170    7.3570 O.2   404  HIS404     -0.2864
    123  CB        82.9240   11.9660    8.8970 C.3   404  HIS404      0.0771
    124  CG        83.5060   10.8650    9.7320 C.ar  404  HIS404      0.0820
    125  ND1       84.7790   10.9190   10.2530 N.ar  404  HIS404     -0.2267
    126  CD2       82.9850    9.6840   10.1400 C.ar  404  HIS404      0.1154
    127  CE1       85.0210    9.8210   10.9430 C.ar  404  HIS404      0.1986
    128  NE2       83.9480    9.0540   10.8900 N.ar  404  HIS404     -0.2212
    129  N         82.7570   17.5320    8.6360 N.3   406  TYR406     -0.1241
    130  CA        83.6900   18.6520    8.6620 C.3   406  TYR406      0.1605
    131  C         84.9290   18.3530    7.8380 C.2   406  TYR406      0.2264
    132  O         85.6670   19.2760    7.4820 O.2   406  TYR406     -0.2867
    133  CB        84.0690   18.9440   10.1230 C.3   406  TYR406      0.0534
    134  CG        84.6640   20.3100   10.4230 C.ar  406  TYR406     -0.0201
    135  CD1       83.8570   21.4440   10.5340 C.ar  406  TYR406     -0.0009
    136  CD2       86.0250   20.4590   10.6420 C.ar  406  TYR406     -0.0009
    137  CE1       84.4010   22.6870   10.8260 C.ar  406  TYR406      0.0417
    138  CE2       86.5670   21.6920   10.9350 C.ar  406  TYR406      0.0417
    139  CZ        85.7550   22.7980   11.0250 C.ar  406  TYR406      0.1957
    140  OH        86.2930   24.0290   11.3220 O.3   406  TYR406     -0.2866
@<TRIPOS>BOND
     1     1     2    1
     2     2     5    1
     3     2     3    1
     4     5     6    1
     5     3     4    2
     6   110   109    1
     7     6     7   ar
     8     6     8   ar
     9     7     9   ar
    10   122   121    2
    11   132   131    2
    12    84    83    2
    13     8    10   ar
    14     9    11   ar
    15   109   106    1
    16   131   130    1
    17    83    82    1
    18   121   120    1
    19    13    14    1
    20   129   130    1
    21   130   133    1
    22   104   101    1
    23    10    11   ar
    24    11    12    1
    25    92    93    1
    26   123   120    1
    27   123   124    1
    28   106   105    1
    29   106   107    1
    30   105   102   am
    31   120   119    1
    32    75    74    2
    33    82    81    1
    34    82    85    1
    35   102   101    1
    36   102   103    2
    37   100   101    1
    38   100    94   am
    39   124   126   ar
    40   124   125   ar
    41    14    17    1
    42    14    15    1
    43    80    78   am
    44    17    18    1
    45   133   134    1
    46   126   128   ar
    47   108   107    2
    48   107   111   am
    49   125   127   ar
    50    93    94    1
    51    93    96    1
    52    86    85    1
    53    86    87    1
    54   134   135   ar
    55   134   136   ar
    56    74    73    1
    57   135   137   ar
    58    77    78    1
    59    77    76    1
    60    94    95    2
    61   136   138   ar
    62   119   117   am
    63    78    79    2
    64   137   139   ar
    65   118   117    2
    66   128   127   ar
    67    15    16    2
    68   138   139   ar
    69    52    50    1
    70   139   140    1
    71    99    98    1
    72    97    96    1
    73    97    98    1
    74   114   113    2
    75   111   112    1
    76    18    19    1
    77   117   116    1
    78    87    88    1
    79    48    49    2
    80    48    47    1
    81    73    76    1
    82    73    72    1
    83    88    89    2
    84    19    20    1
    85    46    47    1
    86   113   112    1
    87   113   115   am
    88    50    47    1
    89    50    51    1
    90    89    91    1
    91    89    90    1
    92    68    67    2
    93    22    21    1
    94   116   115    1
    95    72    67   am
    96    56    55    2
    97    20    21    2
    98    67    66    1
    99    21    23    1
   100    53    54    1
   101    55    54    1
   102    66    65    1
   103    66    69    1
   104    54    57    1
   105    24    25    1
   106    57    58    1
   107    60    58   ar
   108    60    62   ar
   109    69    70    1
   110    69    71    1
   111    28    25    1
   112    28    29    1
   113    58    59   ar
   114    32    30   am
   115    62    63   ar
   116    25    26    1
   117    29    30    1
   118    30    31    2
   119    27    26    2
   120    59    61   ar
   121    26    33   am
   122    63    61   ar
   123    63    64    1
   124    36    35    2
   125    33    34    1
   126    35    34    1
   127    35    37   am
   128    37    38    1
   129    38    39    1
   130    38    41    1
   131    39    40    2
   132    42    41    1
   133    42    43    1
   134    45    43   am
   135    43    44    2
