@<TRIPOS>MOLECULE
tmp/5k3iA01.pdb
 120 111 0 0 0
SMALL
GASTEIGER

@<TRIPOS>ATOM
      1  N         66.6800   35.2380   -4.1660 N.3   384  SER384     -0.1202
      2  CA        67.0490   35.5310   -2.7860 C.3   384  SER384      0.2020
      3  C         66.5850   34.4490   -1.8070 C.2   384  SER384      0.2618
      4  O         67.3410   34.0710   -0.8980 O.2   384  SER384     -0.2717
      5  CB        66.4960   36.8960   -2.3790 C.3   384  SER384      0.2103
      6  OG        66.5810   37.8190   -3.4580 O.3   384  SER384     -0.2182
      7  N         65.3560   33.9430   -1.9560 N.am  385  VAL385     -0.1979
      8  CA        64.8720   32.9090   -1.0420 C.3   385  VAL385      0.1595
      9  C         65.5730   31.5850   -1.3010 C.2   385  VAL385      0.2287
     10  O         66.0240   30.9140   -0.3640 O.2   385  VAL385     -0.2864
     11  CB        63.3420   32.7710   -1.1460 C.3   385  VAL385      0.0276
     12  CG1       62.8540   31.6430   -0.2360 C.3   385  VAL385      0.0022
     13  CG2       62.6660   34.0800   -0.7870 C.3   385  VAL385      0.0022
     14  N         69.1730   31.4370    0.0260 N.3   388  HIS388     -0.1241
     15  CA        69.2820   31.5090    1.4810 C.3   388  HIS388      0.1621
     16  C         68.8280   30.2020    2.1240 C.2   388  HIS388      0.2264
     17  O         69.4340   29.7340    3.0980 O.2   388  HIS388     -0.2867
     18  CB        68.4700   32.7140    1.9930 C.3   388  HIS388      0.0745
     19  CG        68.3020   32.7860    3.4870 C.ar  388  HIS388      0.0817
     20  ND1       69.3560   32.9620    4.3590 N.ar  388  HIS388     -0.2268
     21  CD2       67.1830   32.7680    4.2520 C.ar  388  HIS388      0.1154
     22  CE1       68.8950   33.0140    5.5970 C.ar  388  HIS388      0.1986
     23  NE2       67.5800   32.9000    5.5590 N.ar  388  HIS388     -0.2212
     24  N         74.0350   34.0780   -2.6700 N.3   423  CYS423     -0.1235
     25  CA        73.3640   35.0890   -1.8500 C.3   423  CYS423      0.1677
     26  C         73.8520   36.4980   -2.1640 C.2   423  CYS423      0.2270
     27  O         73.1210   37.4620   -1.9250 O.2   423  CYS423     -0.2867
     28  CB        73.5290   34.7940   -0.3550 C.3   423  CYS423      0.0956
     29  SG        72.8970   33.1830    0.2030 S.3   423  CYS423     -0.0801
     30  N         71.0930   39.8560   -1.8250 N.3   429  ASN429     -0.1225
     31  CA        69.7920   39.2990   -1.4470 C.3   429  ASN429      0.1785
     32  C         68.8660   40.3370   -0.8250 C.2   429  ASN429      0.2597
     33  O         67.6700   40.3810   -1.1400 O.2   429  ASN429     -0.2718
     34  CB        69.9910   38.1430   -0.4720 C.3   429  ASN429      0.1169
     35  CG        70.2370   36.8380   -1.1630 C.2   429  ASN429      0.2627
     36  OD1       70.2290   35.7710   -0.5420 O.2   429  ASN429     -0.2716
     37  ND2       70.4310   36.9070   -2.4690 N.am  429  ASN429     -0.0877
     38  N         69.3970   41.1700    0.0720 N.am  430  MET430     -0.1979
     39  CA        68.5890   42.2280    0.6600 C.3   430  MET430      0.1605
     40  C         68.0800   43.1750   -0.4130 C.2   430  MET430      0.2287
     41  O         66.9340   43.6290   -0.3630 O.2   430  MET430     -0.2864
     42  CB        69.4130   42.9990    1.6890 C.3   430  MET430      0.0413
     43  CG        69.8150   42.2160    2.9130 C.3   430  MET430      0.0598
     44  SD        68.4180   41.2990    3.5720 S.3   430  MET430     -0.1393
     45  CE        68.5890   41.7140    5.2980 C.3   430  MET430      0.0692
     46  N         65.3580   41.4040   -2.6680 N.3   433  LEU433     -0.1245
     47  CA        64.0770   41.3270   -1.9630 C.3   433  LEU433      0.1561
     48  C         63.3470   42.6660   -1.9610 C.2   433  LEU433      0.2260
     49  O         62.1170   42.7070   -2.1000 O.2   433  LEU433     -0.2867
     50  CB        64.2760   40.8230   -0.5300 C.3   433  LEU433      0.0270
     51  CG        64.6270   39.3380   -0.3580 C.3   433  LEU433      0.0019
     52  CD1       64.8990   39.0020    1.0960 C.3   433  LEU433      0.0001
     53  CD2       63.5140   38.4610   -0.9110 C.3   433  LEU433      0.0001
     54  N         62.5710   46.5680    6.2770 N.3   521  VAL521     -0.1245
     55  CA        62.6350   45.2160    6.8320 C.3   521  VAL521      0.1561
     56  C         61.2670   44.5530    6.7350 C.2   521  VAL521      0.2260
     57  O         61.1370   43.4090    6.2810 O.2   521  VAL521     -0.2867
     58  CB        63.1440   45.2370    8.2860 C.3   521  VAL521      0.0252
     59  CG1       63.0390   43.8340    8.8840 C.3   521  VAL521      0.0019
     60  CG2       64.5830   45.7270    8.3600 C.3   521  VAL521      0.0019
     61  N         59.8030   41.2100    4.5100 N.3   525  ARG525     -0.1245
     62  CA        58.9650   40.1330    5.0280 C.3   525  ARG525      0.1563
     63  C         57.8820   39.7700    4.0300 C.2   525  ARG525      0.2260
     64  O         57.5440   38.5940    3.8670 O.2   525  ARG525     -0.2867
     65  CB        58.3360   40.5260    6.3620 C.3   525  ARG525      0.0307
     66  CG        59.3540   40.9750    7.3570 C.3   525  ARG525      0.0489
     67  CD        58.7930   41.1310    8.7370 C.3   525  ARG525      0.2205
     68  NE        59.6450   40.3280    9.6130 N.pl3 525  ARG525     -0.0865
     69  CZ        60.4690   40.8230   10.5270 C.cat 525  ARG525      0.5346
     70  NH1       60.4840   42.1260   10.7720 N.pl3 525  ARG525      0.1354
     71  NH2       61.2240   40.0110   11.2500 N.pl3 525  ARG525      0.1354
     72  N         59.3980   37.9210    0.9220 N.3   528  ARG528     -0.1245
     73  CA        59.7740   36.5550    1.2690 C.3   528  ARG528      0.1563
     74  C         58.5590   35.6270    1.2640 C.2   528  ARG528      0.2260
     75  O         58.5850   34.5450    0.6630 O.2   528  ARG528     -0.2867
     76  CB        60.4690   36.5700    2.6360 C.3   528  ARG528      0.0307
     77  CG        61.4350   35.4420    2.9090 C.3   528  ARG528      0.0489
     78  CD        62.1160   35.6760    4.2570 C.3   528  ARG528      0.2205
     79  NE        62.9380   36.8890    4.2420 N.pl3 528  ARG528     -0.0865
     80  CZ        62.7790   37.9140    5.0770 C.cat 528  ARG528      0.5346
     81  NH1       61.8280   37.8720    5.9970 N.pl3 528  ARG528      0.1354
     82  NH2       63.5590   38.9830    4.9910 N.pl3 528  ARG528      0.1354
     83  N         57.8470   32.5040   -1.1730 N.3   532  ARG532     -0.1245
     84  CA        57.6920   31.1580   -0.6330 C.3   532  ARG532      0.1563
     85  C         56.3410   30.5710   -1.0130 C.2   532  ARG532      0.2260
     86  O         56.2140   29.3510   -1.1700 O.2   532  ARG532     -0.2867
     87  CB        57.8600   31.1680    0.8870 C.3   532  ARG532      0.0307
     88  CG        59.2630   31.5020    1.3340 C.3   532  ARG532      0.0489
     89  CD        59.3410   31.7040    2.8330 C.3   532  ARG532      0.2205
     90  NE        59.3750   30.4330    3.5560 N.pl3 532  ARG532     -0.0865
     91  CZ        59.6160   30.3200    4.8570 C.cat 532  ARG532      0.5346
     92  NH1       59.8220   31.4110    5.5810 N.pl3 532  ARG532      0.1354
     93  NH2       59.6320   29.1240    5.4390 N.pl3 532  ARG532      0.1354
     94  N         57.0330   26.9920    9.8500 N.3   569  ASP569     -0.1225
     95  CA        58.0830   28.0060    9.9140 C.3   569  ASP569      0.1805
     96  C         57.5590   29.4420    9.8210 C.2   569  ASP569      0.2597
     97  O         58.2250   30.3590   10.3070 O.2   569  ASP569     -0.2718
     98  CB        59.0960   27.7400    8.8030 C.3   569  ASP569      0.1424
     99  CG        60.3680   28.5120    8.9890 C.2   569  ASP569      0.3668
    100  OD1       60.9050   28.5060   10.1250 O.co2 569  ASP569     -0.2456
    101  OD2       60.8490   29.1120    8.0050 O.co2 569  ASP569     -0.2456
    102  N         56.3900   29.6630    9.2270 N.am  570  VAL570     -0.1980
    103  CA        55.7990   30.9920    9.1060 C.3   570  VAL570      0.1595
    104  C         54.5120   31.1080    9.9260 C.2   570  VAL570      0.2287
    105  O         53.7260   32.0330    9.7170 O.2   570  VAL570     -0.2864
    106  CB        55.5500   31.3510    7.6320 C.3   570  VAL570      0.0276
    107  CG1       56.8310   31.2260    6.8240 C.3   570  VAL570      0.0022
    108  CG2       54.4800   30.4610    7.0540 C.3   570  VAL570      0.0022
    109  N         52.6680   34.3810   11.2150 N.3   573  TYR573     -0.1241
    110  CA        51.8050   35.2140   10.3870 C.3   573  TYR573      0.1605
    111  C         50.3920   34.6500   10.2950 C.2   573  TYR573      0.2264
    112  O         49.4360   35.4070   10.0870 O.2   573  TYR573     -0.2867
    113  CB        52.4130   35.3650    8.9930 C.3   573  TYR573      0.0534
    114  CG        53.7010   36.1600    8.9750 C.ar  573  TYR573     -0.0201
    115  CD1       53.6930   37.5290    9.1870 C.ar  573  TYR573     -0.0009
    116  CD2       54.9230   35.5390    8.7730 C.ar  573  TYR573     -0.0009
    117  CE1       54.8610   38.2580    9.1750 C.ar  573  TYR573      0.0417
    118  CE2       56.1000   36.2640    8.7660 C.ar  573  TYR573      0.0417
    119  CZ        56.0620   37.6230    8.9670 C.ar  573  TYR573      0.1957
    120  OH        57.2230   38.3600    8.9630 O.3   573  TYR573     -0.2866
@<TRIPOS>BOND
     1     1     2    1
     2     6     5    1
     3     2     5    1
     4     2     3    1
     5    24    25    1
     6    46    47    1
     7    37    35   am
     8    26    27    2
     9    26    25    1
    10    49    48    2
    11    47    48    1
    12    47    50    1
    13     7     3   am
    14     7     8    1
    15    25    28    1
    16    30    31    1
    17     3     4    2
    18    31    32    1
    19    31    34    1
    20     9     8    1
    21     9    10    2
    22    83    84    1
    23    86    85    2
    24    35    36    2
    25    35    34    1
    26    11     8    1
    27    11    13    1
    28    11    12    1
    29    33    32    2
    30    85    84    1
    31    53    51    1
    32    32    38   am
    33    84    87    1
    34    50    51    1
    35    40    41    2
    36    40    39    1
    37    51    52    1
    38    28    29    1
    39    14    15    1
    40    38    39    1
    41    39    42    1
    42    75    74    2
    43    87    88    1
    44    72    73    1
    45    74    73    1
    46    73    76    1
    47    88    89    1
    48    15    18    1
    49    15    16    1
    50    42    43    1
    51    18    19    1
    52    16    17    2
    53    76    77    1
    54    89    90    1
    55    77    78    1
    56    43    44    1
    57    19    21   ar
    58    19    20   ar
    59    90    91    2
    60    44    45    1
    61    64    63    2
    62    63    62    1
    63    79    78    1
    64    79    80    2
    65    21    23   ar
    66    20    22   ar
    67    61    62    1
    68    91    93    1
    69    91    92    1
    70    82    80    1
    71    62    65    1
    72    80    81    1
    73    23    22   ar
    74    54    55    1
    75    57    56    2
    76    65    66    1
    77    56    55    1
    78   107   106    1
    79    55    58    1
    80   108   106    1
    81    66    67    1
    82   106   103    1
    83   101    99   ar
    84    58    60    1
    85    58    59    1
    86    67    68    1
    87   118   116   ar
    88   118   119   ar
    89   116   114   ar
    90    98    99    1
    91    98    95    1
    92   120   119    1
    93   119   117   ar
    94   114   113    1
    95   114   115   ar
    96    99   100   ar
    97   113   110    1
    98   103   102    1
    99   103   104    1
   100   117   115   ar
   101   102    96   am
   102    68    69    2
   103   105   104    2
   104    96    95    1
   105    96    97    2
   106    94    95    1
   107   112   111    2
   108   111   110    1
   109   110   109    1
   110    69    70    1
   111    69    71    1
