@<TRIPOS>MOLECULE
tmp/5k3iA00.pdb
 197 189 0 0 0
SMALL
GASTEIGER

@<TRIPOS>ATOM
      1  N         82.6790   31.7510  -16.6690 N.3   114  LEU114     -0.1245
      2  CA        81.9000   32.9240  -17.0370 C.3   114  LEU114      0.1561
      3  C         81.8320   33.1470  -18.5370 C.2   114  LEU114      0.2260
      4  O         81.0350   33.9760  -18.9920 O.2   114  LEU114     -0.2867
      5  CB        82.4570   34.1600  -16.3500 C.3   114  LEU114      0.0270
      6  CG        81.6330   34.3150  -15.0720 C.3   114  LEU114      0.0019
      7  CD1       82.3530   33.6990  -13.8810 C.3   114  LEU114      0.0001
      8  CD2       81.2760   35.7630  -14.8600 C.3   114  LEU114      0.0001
      9  N         77.9190   34.2020  -18.6640 N.3   118  MET118     -0.1245
     10  CA        77.5610   35.5980  -18.9140 C.3   118  MET118      0.1570
     11  C         78.1120   36.1960  -20.2060 C.2   118  MET118      0.2261
     12  O         77.4260   36.9960  -20.8520 O.2   118  MET118     -0.2867
     13  CB        78.0010   36.4910  -17.7510 C.3   118  MET118      0.0387
     14  CG        77.3800   36.1740  -16.4040 C.3   118  MET118      0.0595
     15  SD        77.6320   37.5430  -15.2640 S.3   118  MET118     -0.1393
     16  CE        76.3010   38.6360  -15.7520 C.3   118  MET118      0.0692
     17  N         82.3270   38.8950  -18.2190 N.3   148  TYR148     -0.1241
     18  CA        81.3990   40.0180  -18.1310 C.3   148  TYR148      0.1605
     19  C         81.8580   40.8680  -16.9540 C.2   148  TYR148      0.2264
     20  O         81.8150   40.4130  -15.8050 O.2   148  TYR148     -0.2867
     21  CB        79.9620   39.5300  -17.9440 C.3   148  TYR148      0.0534
     22  CG        78.9480   40.6430  -17.9190 C.ar  148  TYR148     -0.0201
     23  CD1       78.4950   41.2120  -19.0980 C.ar  148  TYR148     -0.0009
     24  CD2       78.4680   41.1430  -16.7180 C.ar  148  TYR148     -0.0009
     25  CE1       77.5730   42.2300  -19.0870 C.ar  148  TYR148      0.0417
     26  CE2       77.5500   42.1630  -16.6910 C.ar  148  TYR148      0.0417
     27  CZ        77.1060   42.7050  -17.8700 C.ar  148  TYR148      0.1957
     28  OH        76.1920   43.7320  -17.8410 O.3   148  TYR148     -0.2866
     29  N         81.1770   43.9540  -14.8670 N.3   150  GLN150     -0.1231
     30  CA        80.2690   44.9880  -14.3800 C.3   150  GLN150      0.1698
     31  C         80.7380   45.6080  -13.0690 C.2   150  GLN150      0.2592
     32  O         80.9800   46.8170  -12.9970 O.2   150  GLN150     -0.2718
     33  CB        78.8750   44.3790  -14.2110 C.3   150  GLN150      0.0381
     34  CG        77.8040   45.3450  -13.7800 C.3   150  GLN150      0.0905
     35  CD        76.4190   44.7500  -13.9450 C.2   150  GLN150      0.2608
     36  OE1       75.9040   44.6380  -15.0570 O.2   150  GLN150     -0.2717
     37  NE2       75.8160   44.3360  -12.8330 N.am  150  GLN150     -0.0878
     38  N         80.8570   44.7920  -12.0210 N.am  151  THR151     -0.1953
     39  CA        81.2100   45.2700  -10.6880 C.3   151  THR151      0.1897
     40  C         82.5800   45.9360  -10.6390 C.2   151  THR151      0.2313
     41  O         83.5230   45.5340  -11.3300 O.2   151  THR151     -0.2863
     42  CB        81.1490   44.1060   -9.7010 C.3   151  THR151      0.1794
     43  OG1       79.8540   43.5040   -9.7850 O.3   151  THR151     -0.2208
     44  CG2       81.3980   44.5570   -8.2620 C.3   151  THR151      0.0378
     45  N         81.6010   49.7820   -6.3070 N.3   155  HIS155     -0.1226
     46  CA        80.1810   49.6850   -6.6210 C.3   155  HIS155      0.1752
     47  C         79.8840   48.3420   -7.2660 C.2   155  HIS155      0.2597
     48  O         80.5550   47.9340   -8.2240 O.2   155  HIS155     -0.2718
     49  CB        79.7380   50.8040   -7.5610 C.3   155  HIS155      0.0759
     50  CG        79.8090   52.1700   -6.9530 C.ar  155  HIS155      0.0818
     51  ND1       80.9660   52.9200   -6.9420 N.ar  155  HIS155     -0.2268
     52  CD2       78.8660   52.9240   -6.3350 C.ar  155  HIS155      0.1154
     53  CE1       80.7330   54.0770   -6.3460 C.ar  155  HIS155      0.1986
     54  NE2       79.4670   54.1050   -5.9700 N.ar  155  HIS155     -0.2212
     55  N         78.8560   47.6810   -6.7530 N.am  156  GLY156     -0.1942
     56  CA        78.3040   46.4800   -7.3390 C.3   156  GLY156      0.2014
     57  C         76.8000   46.5950   -7.4880 C.2   156  GLY156      0.2639
     58  O         76.2440   46.2890   -8.5490 O.2   156  GLY156     -0.2714
     59  N         76.1390   46.9880   -6.3980 N.am  157  THR157     -0.1950
     60  CA        74.7000   47.2300   -6.4110 C.3   157  THR157      0.1897
     61  C         74.3190   48.4820   -7.2070 C.2   157  THR157      0.2313
     62  O         73.4130   48.4370   -8.0450 O.2   157  THR157     -0.2863
     63  CB        74.1990   47.3410   -4.9690 C.3   157  THR157      0.1794
     64  OG1       74.5670   46.1510   -4.2570 O.3   157  THR157     -0.2208
     65  CG2       72.6800   47.4790   -4.9220 C.3   157  THR157      0.0378
     66  N         85.7950   41.6350   -9.2310 N.3   188  TRP188     -0.1228
     67  CA        84.9700   40.4240   -9.1000 C.3   188  TRP188      0.1722
     68  C         84.5750   39.7000  -10.3900 C.2   188  TRP188      0.2437
     69  O         84.1860   38.5340  -10.2850 O.2   188  TRP188     -0.2733
     70  CB        83.7000   40.6750   -8.2860 C.3   188  TRP188      0.0563
     71  CG        83.9630   40.6700   -6.8330 C.ar  188  TRP188      0.0003
     72  CD1       83.9680   41.7360   -5.9820 C.ar  188  TRP188      0.0946
     73  CD2       84.3190   39.5300   -6.0520 C.ar  188  TRP188      0.0152
     74  NE1       84.2830   41.3210   -4.7110 N.ar  188  TRP188     -0.2442
     75  CE2       84.5050   39.9700   -4.7320 C.ar  188  TRP188      0.0810
     76  CE3       84.4900   38.1740   -6.3430 C.ar  188  TRP188      0.0012
     77  CZ2       84.8630   39.1060   -3.7070 C.ar  188  TRP188      0.0191
     78  CZ3       84.8380   37.3220   -5.3280 C.ar  188  TRP188      0.0001
     79  CH2       85.0180   37.7870   -4.0220 C.ar  188  TRP188      0.0015
     80  N         84.6000   40.2980  -11.5890 N.am  189  PRO189     -0.2718
     81  CA        84.2940   39.5010  -12.7820 C.3   189  PRO189      0.1535
     82  C         85.1160   38.2210  -12.8070 C.2   189  PRO189      0.2599
     83  O         86.3460   38.2430  -12.7160 O.2   189  PRO189     -0.2715
     84  CB        84.6570   40.4490  -13.9290 C.3   189  PRO189      0.0310
     85  CG        84.3600   41.7590  -13.3750 C.3   189  PRO189      0.0237
     86  CD        84.8210   41.7080  -11.9720 C.3   189  PRO189      0.0939
     87  N         84.4200   37.0970  -12.9310 N.am  190  GLY190     -0.1955
     88  CA        85.0940   35.8170  -12.8780 C.3   190  GLY190      0.1869
     89  C         85.9200   35.5840  -14.1290 C.2   190  GLY190      0.2309
     90  O         85.5590   36.0120  -15.2240 O.2   190  GLY190     -0.2863
     91  N         89.7030   33.0300   -1.8430 N.3   241  LYS241     -0.1245
     92  CA        88.3230   33.3270   -1.4930 C.3   241  LYS241      0.1561
     93  C         87.7930   32.2420   -0.5760 C.2   241  LYS241      0.2260
     94  O         88.4510   31.2250   -0.3220 O.2   241  LYS241     -0.2867
     95  CB        87.4260   33.4120   -2.7340 C.3   241  LYS241      0.0271
     96  CG        87.7980   34.4990   -3.7070 C.3   241  LYS241      0.0035
     97  CD        86.9750   34.4190   -4.9780 C.3   241  LYS241      0.0206
     98  CE        87.0610   33.0280   -5.5380 C.3   241  LYS241      0.1093
     99  NZ        87.5560   33.0000   -6.9290 N.3   241  LYS241     -0.1314
    100  N         85.2260   28.4130   -4.4030 N.3   244  TYR244     -0.1241
    101  CA        85.1590   28.7190   -5.8370 C.3   244  TYR244      0.1605
    102  C         86.5010   29.2350   -6.3500 C.2   244  TYR244      0.2264
    103  O         86.5610   30.1370   -7.1850 O.2   244  TYR244     -0.2867
    104  CB        84.0330   29.7300   -6.0960 C.3   244  TYR244      0.0534
    105  CG        83.5010   29.7960   -7.5110 C.ar  244  TYR244     -0.0201
    106  CD1       82.9080   28.6940   -8.1030 C.ar  244  TYR244     -0.0009
    107  CD2       83.5410   30.9840   -8.2280 C.ar  244  TYR244     -0.0009
    108  CE1       82.4030   28.7610   -9.3810 C.ar  244  TYR244      0.0417
    109  CE2       83.0360   31.0650   -9.5020 C.ar  244  TYR244      0.0417
    110  CZ        82.4670   29.9420  -10.0790 C.ar  244  TYR244      0.1957
    111  OH        81.9550   29.9970  -11.3570 O.3   244  TYR244     -0.2866
    112  N         88.8840   35.2340  -10.2980 N.3   249  ASN249     -0.1240
    113  CA        88.1800   36.5080  -10.2420 C.3   249  ASN249      0.1653
    114  C         89.2110   37.6310  -10.2570 C.2   249  ASN249      0.2266
    115  O         90.2460   37.5450   -9.5920 O.2   249  ASN249     -0.2867
    116  CB        87.3040   36.5830   -8.9850 C.3   249  ASN249      0.1155
    117  CG        86.1620   35.5790   -9.0030 C.2   249  ASN249      0.2627
    118  OD1       86.2920   34.4550   -8.5130 O.2   249  ASN249     -0.2716
    119  ND2       85.0300   35.9870   -9.5630 N.am  249  ASN249     -0.0877
    120  N         77.6560   31.7090   -2.2730 N.3   421  GLY421     -0.1225
    121  CA        78.0700   32.9000   -2.9990 C.3   421  GLY421      0.1811
    122  C         76.9320   33.5470   -3.7650 C.2   421  GLY421      0.2280
    123  O         76.9330   34.7640   -3.9800 O.2   421  GLY421     -0.2866
    124  N         75.0740   36.6500   -2.6660 N.3   424  THR424     -0.1203
    125  CA        75.5770   37.9770   -2.9930 C.3   424  THR424      0.1994
    126  C         75.7050   38.2490   -4.4860 C.2   424  THR424      0.2618
    127  O         75.3360   39.3370   -4.9280 O.2   424  THR424     -0.2717
    128  CB        76.9190   38.2330   -2.3150 C.3   424  THR424      0.1784
    129  OG1       77.8190   37.1490   -2.5910 O.3   424  THR424     -0.2211
    130  CG2       76.7370   38.3750   -0.8050 C.3   424  THR424      0.0376
    131  N         76.1920   37.3150   -5.3000 N.am  425  TYR425     -0.1961
    132  CA        76.2720   37.6180   -6.7220 C.3   425  TYR425      0.1771
    133  C         74.8800   37.6310   -7.3540 C.2   425  TYR425      0.2619
    134  O         73.8950   37.1310   -6.7980 O.2   425  TYR425     -0.2715
    135  CB        77.2050   36.6600   -7.4740 C.3   425  TYR425      0.0574
    136  CG        76.8240   35.1850   -7.6040 C.ar  425  TYR425     -0.0198
    137  CD1       75.7680   34.7720   -8.4110 C.ar  425  TYR425     -0.0009
    138  CD2       77.6090   34.2000   -7.0110 C.ar  425  TYR425     -0.0009
    139  CE1       75.4550   33.4280   -8.5570 C.ar  425  TYR425      0.0417
    140  CE2       77.3080   32.8580   -7.1620 C.ar  425  TYR425      0.0417
    141  CZ        76.2330   32.4770   -7.9320 C.ar  425  TYR425      0.1957
    142  OH        75.9550   31.1320   -8.0650 O.3   425  TYR425     -0.2866
    143  N         74.8180   38.2450   -8.5340 N.am  426  ALA426     -0.1963
    144  CA        73.5890   38.4520   -9.2900 C.3   426  ALA426      0.1728
    145  C         72.5690   39.2820   -8.5180 C.2   426  ALA426      0.2617
    146  O         71.3620   39.1470   -8.7320 O.2   426  ALA426     -0.2715
    147  CB        72.9750   37.1220   -9.7360 C.3   426  ALA426      0.0334
    148  N         73.0420   40.1540   -7.6270 N.am  427  GLY427     -0.1940
    149  CA        72.1520   40.9920   -6.8430 C.3   427  GLY427      0.2014
    150  C         72.1860   40.6390   -5.3700 C.2   427  GLY427      0.2638
    151  O         71.7980   39.5310   -5.0110 O.2   427  GLY427     -0.2714
    152  N         72.6820   41.5250   -4.5090 N.am  428  GLU428     -0.1977
    153  CA        72.6120   41.2870   -3.0690 C.3   428  GLU428      0.1602
    154  C         71.1940   40.9010   -2.6510 C.2   428  GLU428      0.2287
    155  O         70.2170   41.5240   -3.0710 O.2   428  GLU428     -0.2864
    156  CB        73.0730   42.5260   -2.3020 C.3   428  GLU428      0.0415
    157  CG        74.0530   42.2180   -1.1720 C.3   428  GLU428      0.1163
    158  CD        73.4280   41.3650   -0.0790 C.2   428  GLU428      0.3649
    159  OE1       74.0580   40.3650    0.3220 O.co2 428  GLU428     -0.2457
    160  OE2       72.3110   41.6940    0.3650 O.co2 428  GLU428     -0.2457
    161  N         69.3970   41.1700    0.0720 N.3   430  MET430     -0.1230
    162  CA        68.5890   42.2280    0.6600 C.3   430  MET430      0.1702
    163  C         68.0800   43.1750   -0.4130 C.2   430  MET430      0.2592
    164  O         66.9340   43.6290   -0.3630 O.2   430  MET430     -0.2718
    165  CB        69.4130   42.9990    1.6890 C.3   430  MET430      0.0401
    166  CG        69.8150   42.2160    2.9130 C.3   430  MET430      0.0596
    167  SD        68.4180   41.2990    3.5720 S.3   430  MET430     -0.1393
    168  CE        68.5890   41.7140    5.2980 C.3   430  MET430      0.0692
    169  N         68.9170   43.4700   -1.4060 N.am  431  VAL431     -0.1980
    170  CA        68.5360   44.4250   -2.4370 C.3   431  VAL431      0.1595
    171  C         67.5160   43.8090   -3.3830 C.2   431  VAL431      0.2287
    172  O         66.5830   44.4840   -3.8290 O.2   431  VAL431     -0.2864
    173  CB        69.7860   44.9260   -3.1800 C.3   431  VAL431      0.0276
    174  CG1       69.3960   45.9250   -4.2690 C.3   431  VAL431      0.0022
    175  CG2       70.7600   45.5520   -2.2030 C.3   431  VAL431      0.0022
    176  N         64.0820   43.7750   -1.8200 N.3   434  LEU434     -0.1245
    177  CA        63.4420   45.0930   -1.9000 C.3   434  LEU434      0.1561
    178  C         63.0470   45.4490   -3.3270 C.2   434  LEU434      0.2260
    179  O         62.0700   46.1790   -3.5260 O.2   434  LEU434     -0.2867
    180  CB        64.3470   46.1840   -1.3320 C.3   434  LEU434      0.0270
    181  CG        64.6050   46.1050    0.1750 C.3   434  LEU434      0.0019
    182  CD1       65.7400   47.0310    0.5420 C.3   434  LEU434      0.0001
    183  CD2       63.3350   46.4930    0.8940 C.3   434  LEU434      0.0001
    184  N         63.0250   53.4500    3.5990 N.3   517  ASN517     -0.1240
    185  CA        64.0570   52.8770    4.4620 C.3   517  ASN517      0.1653
    186  C         63.4680   52.4100    5.7900 C.2   517  ASN517      0.2266
    187  O         63.7450   51.2970    6.2530 O.2   517  ASN517     -0.2867
    188  CB        65.1740   53.8970    4.6970 C.3   517  ASN517      0.1155
    189  CG        66.4270   53.2680    5.2600 C.2   517  ASN517      0.2627
    190  OD1       66.7160   52.1010    5.0070 O.2   517  ASN517     -0.2716
    191  ND2       67.1690   54.0370    6.0470 N.am  517  ASN517     -0.0877
    192  N         61.6490   49.1060    5.2780 N.3   520  SER520     -0.1217
    193  CA        62.3050   48.1420    4.3980 C.3   520  SER520      0.1889
    194  C         62.3320   46.7240    4.9720 C.2   520  SER520      0.2288
    195  O         62.1200   45.7560    4.2330 O.2   520  SER520     -0.2866
    196  CB        63.7120   48.6410    4.0630 C.3   520  SER520      0.2089
    197  OG        64.5770   48.6250    5.1910 O.3   520  SER520     -0.2183
@<TRIPOS>BOND
     1    12    11    2
     2    11    10    1
     3    23    25   ar
     4    23    22   ar
     5    25    27   ar
     6     4     3    2
     7    10     9    1
     8    10    13    1
     9     3     2    1
    10    17    18    1
    11    18    21    1
    12    18    19    1
    13    21    22    1
    14    22    24   ar
    15    27    28    1
    16    27    26   ar
    17    13    14    1
    18     2     1    1
    19     2     5    1
    20    19    20    2
    21    24    26   ar
    22    14    15    1
    23     5     6    1
    24    16    15    1
    25    90    89    2
    26     6     8    1
    27     6     7    1
    28    36    35    2
    29    29    30    1
    30    30    33    1
    31    30    31    1
    32    33    34    1
    33    89    88    1
    34    35    34    1
    35    35    37   am
    36    84    85    1
    37    84    81    1
    38    85    86    1
    39    31    32    2
    40    31    38   am
    41    87    88    1
    42    87    82   am
    43    82    81    1
    44    82    83    2
    45    81    80    1
    46    38    39    1
    47    86    80    1
    48    80    68   am
    49   111   110    1
    50    41    40    2
    51    39    40    1
    52    39    42    1
    53    68    69    2
    54    68    67    1
    55   112   113    1
    56   114   113    1
    57   114   115    2
    58   113   116    1
    59   110   109   ar
    60   110   108   ar
    61    43    42    1
    62   147   144    1
    63    42    44    1
    64   119   117   am
    65   109   107   ar
    66   108   106   ar
    67   144   143    1
    68   144   145    1
    69    66    67    1
    70    67    70    1
    71   117   116    1
    72   117   118    2
    73   146   145    2
    74   139   137   ar
    75   139   141   ar
    76    58    57    2
    77   143   133   am
    78   145   148   am
    79   137   136   ar
    80    70    71    1
    81   107   105   ar
    82    48    47    2
    83   106   105   ar
    84   142   141    1
    85    62    61    2
    86   141   140   ar
    87   148   149    1
    88   136   135    1
    89   136   138   ar
    90    49    50    1
    91    49    46    1
    92   105   104    1
    93    57    56    1
    94    57    59   am
    95   135   132    1
    96   133   134    2
    97   133   132    1
    98    56    55    1
    99    47    55   am
   100    47    46    1
   101    61    60    1
   102   103   102    2
   103   140   138   ar
   104    50    51   ar
   105    50    52   ar
   106    51    53   ar
   107    99    98    1
   108   149   150    1
   109    71    73   ar
   110    71    72   ar
   111   132   131    1
   112    46    45    1
   113    60    59    1
   114    60    63    1
   115   102   101    1
   116    53    54   ar
   117    76    73   ar
   118    76    78   ar
   119    52    54   ar
   120   104   101    1
   121    73    75   ar
   122    72    74   ar
   123   101   100    1
   124    98    97    1
   125   150   151    2
   126   150   152   am
   127    78    79   ar
   128   131   126   am
   129    97    96    1
   130    63    65    1
   131    63    64    1
   132   127   126    2
   133    75    74   ar
   134    75    77   ar
   135   152   153    1
   136   126   125    1
   137   174   173    1
   138    79    77   ar
   139   123   122    2
   140   172   171    2
   141   122   121    1
   142    96    95    1
   143   179   178    2
   144   171   170    1
   145   178   177    1
   146   173   170    1
   147   173   175    1
   148   155   154    2
   149   153   154    1
   150   153   156    1
   151   121   120    1
   152   125   124    1
   153   125   128    1
   154    95    92    1
   155   129   128    1
   156   170   169    1
   157   128   130    1
   158   156   157    1
   159   177   176    1
   160   177   180    1
   161    91    92    1
   162    92    93    1
   163   169   163   am
   164   180   181    1
   165   157   158    1
   166    93    94    2
   167   163   164    2
   168   163   162    1
   169   158   159   ar
   170   158   160   ar
   171   161   162    1
   172   181   182    1
   173   181   183    1
   174   162   165    1
   175   165   166    1
   176   166   167    1
   177   167   168    1
   178   184   185    1
   179   196   193    1
   180   196   197    1
   181   195   194    2
   182   193   194    1
   183   193   192    1
   184   185   188    1
   185   185   186    1
   186   188   189    1
   187   190   189    2
   188   189   191   am
   189   186   187    2
