@<TRIPOS>MOLECULE
tmp/5k3jA03.pdb
 119 114 0 0 0
SMALL
GASTEIGER

@<TRIPOS>ATOM
      1  N        -19.7730  -15.0630   44.0760 N.3   316  ARG316     -0.1245
      2  CA       -19.9840  -13.7950   44.7690 C.3   316  ARG316      0.1563
      3  C        -21.1910  -13.8480   45.6970 C.2   316  ARG316      0.2260
      4  O        -22.3360  -13.8570   45.2470 O.2   316  ARG316     -0.2867
      5  CB       -20.1650  -12.6590   43.7600 C.3   316  ARG316      0.0307
      6  CG       -20.5540  -11.3210   44.3770 C.3   316  ARG316      0.0489
      7  CD       -19.4440  -10.7930   45.2720 C.3   316  ARG316      0.2205
      8  NE       -19.5390   -9.3510   45.4860 N.pl3 316  ARG316     -0.0865
      9  CZ       -18.5590   -8.6180   46.0040 C.cat 316  ARG316      0.5346
     10  NH1      -17.4160   -9.1990   46.3480 N.pl3 316  ARG316      0.1354
     11  NH2      -18.7100   -7.3090   46.1700 N.pl3 316  ARG316      0.1354
     12  N        -23.2940  -11.7880   48.4410 N.3   318  GLN318     -0.1231
     13  CA       -23.5000  -10.4080   48.8630 C.3   318  GLN318      0.1698
     14  C        -24.9500  -10.1560   49.2530 C.2   318  GLN318      0.2592
     15  O        -25.8690  -10.4630   48.4940 O.2   318  GLN318     -0.2718
     16  CB       -23.0810   -9.4440   47.7520 C.3   318  GLN318      0.0381
     17  CG       -21.7890   -8.6970   48.0310 C.3   318  GLN318      0.0905
     18  CD       -22.0120   -7.4470   48.8540 C.2   318  GLN318      0.2608
     19  OE1      -23.1430   -6.9910   49.0130 O.2   318  GLN318     -0.2717
     20  NE2      -20.9340   -6.8810   49.3770 N.am  318  GLN318     -0.0878
     21  N        -25.1460   -9.5880   50.4380 N.am  319  GLY319     -0.1957
     22  CA       -26.4770   -9.3170   50.9470 C.3   319  GLY319      0.1869
     23  C        -27.0260  -10.5270   51.6720 C.2   319  GLY319      0.2309
     24  O        -26.4220  -11.5970   51.6460 O.2   319  GLY319     -0.2863
     25  N        -25.2970  -14.0700   44.7890 N.3   330  VAL330     -0.1245
     26  CA       -25.9950  -12.9830   44.1050 C.3   330  VAL330      0.1561
     27  C        -26.8270  -13.4890   42.9350 C.2   330  VAL330      0.2260
     28  O        -27.7370  -12.8050   42.4730 O.2   330  VAL330     -0.2867
     29  CB       -25.0120  -11.9100   43.5960 C.3   330  VAL330      0.0252
     30  CG1      -24.4310  -11.1260   44.7640 C.3   330  VAL330      0.0019
     31  CG2      -23.9150  -12.5490   42.7610 C.3   330  VAL330      0.0019
     32  N        -30.6850  -13.6460   43.5590 N.3   333  TYR333     -0.1241
     33  CA       -31.5100  -12.4500   43.4220 C.3   333  TYR333      0.1605
     34  C        -32.2470  -12.4430   42.0880 C.2   333  TYR333      0.2264
     35  O        -31.7440  -12.9500   41.0880 O.2   333  TYR333     -0.2867
     36  CB       -30.6610  -11.1840   43.5550 C.3   333  TYR333      0.0534
     37  CG       -30.1360  -10.9330   44.9520 C.ar  333  TYR333     -0.0201
     38  CD1      -31.0040  -10.8130   46.0290 C.ar  333  TYR333     -0.0009
     39  CD2      -28.7760  -10.7990   45.1900 C.ar  333  TYR333     -0.0009
     40  CE1      -30.5320  -10.5780   47.3060 C.ar  333  TYR333      0.0417
     41  CE2      -28.2930  -10.5630   46.4650 C.ar  333  TYR333      0.0417
     42  CZ       -29.1770  -10.4530   47.5190 C.ar  333  TYR333      0.1957
     43  OH       -28.7130  -10.2170   48.7930 O.3   333  TYR333     -0.2866
     44  N        -33.3430   -9.7520   40.1660 N.3   335  THR335     -0.1203
     45  CA       -32.7500   -8.7980   39.2350 C.3   335  THR335      0.1994
     46  C        -31.5350   -9.3840   38.5210 C.2   335  THR335      0.2617
     47  O        -31.3150   -9.1310   37.3360 O.2   335  THR335     -0.2717
     48  CB       -32.3210   -7.5040   39.9560 C.3   335  THR335      0.1784
     49  OG1      -31.4230   -7.8280   41.0250 O.3   335  THR335     -0.2211
     50  CG2      -33.5270   -6.7740   40.5200 C.3   335  THR335      0.0376
     51  N        -30.7510  -10.1680   39.2530 N.am  336  GLN336     -0.1979
     52  CA       -29.5540  -10.7930   38.7010 C.3   336  GLN336      0.1601
     53  C        -29.8880  -11.9120   37.7240 C.2   336  GLN336      0.2287
     54  O        -29.2210  -12.0650   36.7010 O.2   336  GLN336     -0.2864
     55  CB       -28.6710  -11.3310   39.8240 C.3   336  GLN336      0.0394
     56  CG       -27.4690  -10.4590   40.1370 C.3   336  GLN336      0.0908
     57  CD       -26.1770  -11.0120   39.5560 C.2   336  GLN336      0.2608
     58  OE1      -26.0560  -12.2120   39.3030 O.2   336  GLN336     -0.2717
     59  NE2      -25.2050  -10.1340   39.3380 N.am  336  GLN336     -0.0878
     60  N        -31.2340   -9.9840   34.7040 N.3   339  ARG339     -0.1245
     61  CA       -30.2710   -9.2450   33.8960 C.3   339  ARG339      0.1563
     62  C        -29.2740  -10.1930   33.2360 C.2   339  ARG339      0.2260
     63  O        -28.3720   -9.7600   32.5190 O.2   339  ARG339     -0.2867
     64  CB       -29.5390   -8.2030   34.7490 C.3   339  ARG339      0.0307
     65  CG       -28.3610   -8.7360   35.5540 C.3   339  ARG339      0.0489
     66  CD       -27.8910   -7.7080   36.5740 C.3   339  ARG339      0.2205
     67  NE       -27.9300   -6.3560   36.0290 N.pl3 339  ARG339     -0.0865
     68  CZ       -27.4730   -5.2770   36.6530 C.cat 339  ARG339      0.5346
     69  NH1      -26.9280   -5.3800   37.8590 N.pl3 339  ARG339      0.1354
     70  NH2      -27.5620   -4.0910   36.0640 N.pl3 339  ARG339      0.1354
     71  N        -21.5730   -5.6590   34.3890 N.3   403  MET403     -0.1230
     72  CA       -22.0770   -4.9830   35.5810 C.3   403  MET403      0.1702
     73  C        -22.6230   -5.9670   36.6130 C.2   403  MET403      0.2592
     74  O        -22.7110   -5.6520   37.7960 O.2   403  MET403     -0.2718
     75  CB       -23.1650   -3.9710   35.2020 C.3   403  MET403      0.0401
     76  CG       -22.6800   -2.8090   34.3470 C.3   403  MET403      0.0596
     77  SD       -24.0130   -1.7040   33.8460 S.3   403  MET403     -0.1393
     78  CE       -24.9810   -2.8000   32.8130 C.3   403  MET403      0.0692
     79  N        -22.9910   -7.1570   36.1510 N.am  404  ALA404     -0.1966
     80  CA       -23.4870   -8.2150   37.0260 C.3   404  ALA404      0.1728
     81  C        -22.4130   -8.6750   38.0100 C.2   404  ALA404      0.2616
     82  O        -22.7210   -9.1670   39.0980 O.2   404  ALA404     -0.2715
     83  CB       -23.9740   -9.3890   36.2030 C.3   404  ALA404      0.0334
     84  N        -21.1520   -8.5220   37.6110 N.am  405  CYS405     -0.1954
     85  CA       -20.0130   -8.8440   38.4630 C.3   405  CYS405      0.1843
     86  C        -19.7370   -7.7040   39.4340 C.2   405  CYS405      0.2626
     87  O        -18.8390   -7.7930   40.2710 O.2   405  CYS405     -0.2714
     88  CB       -18.7700   -9.1300   37.6160 C.3   405  CYS405      0.0997
     89  SG       -18.9980  -10.4620   36.4230 S.3   405  CYS405     -0.0797
     90  N        -20.5190   -6.6340   39.3090 N.am  406  GLY406     -0.1940
     91  CA       -20.3470   -5.4480   40.1260 C.3   406  GLY406      0.2014
     92  C        -19.0070   -4.7940   39.8630 C.2   406  GLY406      0.2639
     93  O        -18.5060   -4.8350   38.7370 O.2   406  GLY406     -0.2714
     94  N        -18.4300   -4.2070   40.9080 N.am  407  GLY407     -0.1939
     95  CA       -17.1430   -3.5400   40.8280 C.3   407  GLY407      0.2014
     96  C        -16.0930   -4.3060   40.0480 C.2   407  GLY407      0.2638
     97  O        -15.4670   -3.7540   39.1490 O.2   407  GLY407     -0.2714
     98  N        -15.9250   -5.5870   40.3630 N.am  408  HIS408     -0.1973
     99  CA       -14.8870   -6.3970   39.7270 C.3   408  HIS408      0.1656
    100  C        -15.1080   -6.6100   38.2280 C.2   408  HIS408      0.2291
    101  O        -14.1800   -6.9790   37.5080 O.2   408  HIS408     -0.2864
    102  CB       -14.7750   -7.7520   40.4230 C.3   408  HIS408      0.0771
    103  CG       -14.2390   -7.6680   41.8180 C.ar  408  HIS408      0.0820
    104  ND1      -13.1320   -6.9160   42.1460 N.ar  408  HIS408     -0.2267
    105  CD2      -14.6590   -8.2440   42.9680 C.ar  408  HIS408      0.1154
    106  CE1      -12.8930   -7.0320   43.4400 C.ar  408  HIS408      0.1986
    107  NE2      -13.8030   -7.8330   43.9620 N.ar  408  HIS408     -0.2212
    108  N        -15.6320   -4.2980   36.1760 N.3   410  TYR410     -0.1241
    109  CA       -14.9680   -3.1690   35.5410 C.3   410  TYR410      0.1605
    110  C        -13.4780   -3.4460   35.3540 C.2   410  TYR410      0.2264
    111  O        -12.8160   -2.8340   34.5130 O.2   410  TYR410     -0.2867
    112  CB       -15.1820   -1.9120   36.3800 C.3   410  TYR410      0.0534
    113  CG       -14.8990   -0.6260   35.6480 C.ar  410  TYR410     -0.0201
    114  CD1      -15.8440   -0.0680   34.7980 C.ar  410  TYR410     -0.0009
    115  CD2      -13.6930    0.0400   35.8160 C.ar  410  TYR410     -0.0009
    116  CE1      -15.5910    1.1130   34.1270 C.ar  410  TYR410      0.0417
    117  CE2      -13.4300    1.2180   35.1510 C.ar  410  TYR410      0.0417
    118  CZ       -14.3810    1.7540   34.3070 C.ar  410  TYR410      0.1957
    119  OH       -14.1280    2.9320   33.6390 O.3   410  TYR410     -0.2866
@<TRIPOS>BOND
     1    63    62    2
     2    78    77    1
     3    62    61    1
     4   119   118    1
     5    77    76    1
     6    61    60    1
     7    61    64    1
     8   116   118   ar
     9   116   114   ar
    10   118   117   ar
    11    76    75    1
    12    71    72    1
    13   111   110    2
    14    64    65    1
    15   114   113   ar
    16   117   115   ar
    17    75    72    1
    18   110   109    1
    19   109   108    1
    20   109   112    1
    21    65    66    1
    22    72    73    1
    23   113   115   ar
    24   113   112    1
    25    67    66    1
    26    67    68    2
    27    70    68    1
    28    79    73   am
    29    79    80    1
    30    83    80    1
    31    89    88    1
    32    73    74    2
    33    68    69    1
    34    54    53    2
    35    80    81    1
    36    47    46    2
    37   101   100    2
    38    84    81   am
    39    84    85    1
    40    88    85    1
    41    53    52    1
    42    81    82    2
    43   100    99    1
    44    85    86    1
    45    46    45    1
    46    46    51   am
    47    52    51    1
    48    52    55    1
    49    93    92    2
    50    97    96    2
    51    45    48    1
    52    45    44    1
    53    58    57    2
    54    90    86   am
    55    90    91    1
    56    59    57   am
    57    86    87    2
    58    57    56    1
    59    99    98    1
    60    99   102    1
    61    55    56    1
    62    92    91    1
    63    92    94   am
    64    48    50    1
    65    48    49    1
    66    96    98   am
    67    96    95    1
    68   102   103    1
    69    95    94    1
    70    35    34    2
    71   103   104   ar
    72   103   105   ar
    73    34    33    1
    74   104   106   ar
    75    28    27    2
    76    31    29    1
    77    27    26    1
    78   105   107   ar
    79    33    36    1
    80    33    32    1
    81   106   107   ar
    82    36    37    1
    83    29    26    1
    84    29    30    1
    85     5     6    1
    86     5     2    1
    87     1     2    1
    88    26    25    1
    89     6     7    1
    90     2     3    1
    91    37    39   ar
    92    37    38   ar
    93    39    41   ar
    94     4     3    2
    95     7     8    1
    96     8     9    2
    97     9    11    1
    98     9    10    1
    99    38    40   ar
   100    41    42   ar
   101    40    42   ar
   102    42    43    1
   103    16    17    1
   104    16    13    1
   105    17    18    1
   106    12    13    1
   107    15    14    2
   108    18    19    2
   109    18    20   am
   110    13    14    1
   111    14    21   am
   112    21    22    1
   113    22    23    1
   114    24    23    2
