@<TRIPOS>MOLECULE
tmp/5k3jA00.pdb
 189 182 0 0 0
SMALL
GASTEIGER

@<TRIPOS>ATOM
      1  N         -8.7190  -10.9290    8.6380 N.3   111  LEU111     -0.1245
      2  CA        -9.4780  -10.5930    7.4400 C.3   111  LEU111      0.1561
      3  C         -8.9780  -11.3750    6.2300 C.2   111  LEU111      0.2260
      4  O         -9.6610  -11.4670    5.2080 O.2   111  LEU111     -0.2867
      5  CB        -9.4050   -9.0900    7.1680 C.3   111  LEU111      0.0270
      6  CG       -10.3750   -8.1910    7.9440 C.3   111  LEU111      0.0019
      7  CD1      -11.8060   -8.6100    7.6840 C.3   111  LEU111      0.0001
      8  CD2      -10.0860   -8.1890    9.4380 C.3   111  LEU111      0.0001
      9  N        -12.4370  -12.4680    4.7830 N.3   115  LEU115     -0.1245
     10  CA       -12.9590  -11.9030    3.5390 C.3   115  LEU115      0.1561
     11  C        -12.0400  -12.0770    2.3360 C.2   115  LEU115      0.2260
     12  O        -12.5170  -12.2860    1.2220 O.2   115  LEU115     -0.2867
     13  CB       -13.2650  -10.4190    3.7320 C.3   115  LEU115      0.0270
     14  CG       -14.5400  -10.1270    4.5250 C.3   115  LEU115      0.0019
     15  CD1      -14.4520   -8.7760    5.2040 C.3   115  LEU115      0.0001
     16  CD2      -15.7620  -10.1990    3.6170 C.3   115  LEU115      0.0001
     17  N         -9.3630   -7.2750    2.7440 N.3   145  TYR145     -0.1241
     18  CA       -10.5020   -6.7220    2.0140 C.3   145  TYR145      0.1605
     19  C        -10.4730   -5.1900    2.0980 C.2   145  TYR145      0.2264
     20  O        -10.9260   -4.6100    3.0830 O.2   145  TYR145     -0.2867
     21  CB       -11.8020   -7.2910    2.5970 C.3   145  TYR145      0.0534
     22  CG       -13.0860   -6.9800    1.8510 C.ar  145  TYR145     -0.0201
     23  CD1      -13.5180   -7.7840    0.7990 C.ar  145  TYR145     -0.0009
     24  CD2      -13.8900   -5.9090    2.2250 C.ar  145  TYR145     -0.0009
     25  CE1      -14.6990   -7.5130    0.1290 C.ar  145  TYR145      0.0417
     26  CE2      -15.0710   -5.6340    1.5530 C.ar  145  TYR145      0.0417
     27  CZ       -15.4680   -6.4390    0.5120 C.ar  145  TYR145      0.1957
     28  OH       -16.6430   -6.1580   -0.1450 O.3   145  TYR145     -0.2866
     29  N        -11.9150   -2.0550    1.0690 N.3   147  GLN147     -0.1231
     30  CA       -13.0920   -1.4400    0.4640 C.3   147  GLN147      0.1698
     31  C        -13.3400   -0.0300    0.9910 C.2   147  GLN147      0.2592
     32  O        -13.2980    0.9440    0.2320 O.2   147  GLN147     -0.2718
     33  CB       -14.3240   -2.3130    0.7120 C.3   147  GLN147      0.0381
     34  CG       -15.6040   -1.8150    0.0620 C.3   147  GLN147      0.0905
     35  CD       -16.7310   -2.8260    0.1530 C.2   147  GLN147      0.2608
     36  OE1      -16.8400   -3.7250   -0.6800 O.2   147  GLN147     -0.2717
     37  NE2      -17.5740   -2.6840    1.1650 N.am  147  GLN147     -0.0878
     38  N        -13.6080    0.0680    2.2910 N.am  148  THR148     -0.1953
     39  CA       -13.9350    1.3400    2.9240 C.3   148  THR148      0.1897
     40  C        -12.8400    2.3780    2.7310 C.2   148  THR148      0.2313
     41  O        -11.6540    2.0840    2.8840 O.2   148  THR148     -0.2863
     42  CB       -14.1930    1.1570    4.4360 C.3   148  THR148      0.1794
     43  OG1      -15.2500    0.2090    4.6270 O.3   148  THR148     -0.2208
     44  CG2      -14.5820    2.4830    5.0980 C.3   148  THR148      0.0378
     45  N        -15.7820    7.2040    2.6440 N.3   152  HIS152     -0.1226
     46  CA       -16.8830    6.3510    2.1880 C.3   152  HIS152      0.1752
     47  C        -16.8090    4.9320    2.7380 C.2   152  HIS152      0.2597
     48  O        -15.8170    4.2310    2.5370 O.2   152  HIS152     -0.2718
     49  CB       -16.9270    6.3030    0.6550 C.3   152  HIS152      0.0759
     50  CG       -17.3970    7.5760    0.0240 C.ar  152  HIS152      0.0818
     51  ND1      -16.5290    8.5270   -0.4670 N.ar  152  HIS152     -0.2268
     52  CD2      -18.6430    8.0560   -0.1920 C.ar  152  HIS152      0.1154
     53  CE1      -17.2210    9.5360   -0.9640 C.ar  152  HIS152      0.1986
     54  NE2      -18.5070    9.2750   -0.8090 N.ar  152  HIS152     -0.2212
     55  N        -17.8730    4.5130    3.4180 N.am  153  GLY153     -0.1942
     56  CA       -17.9730    3.1550    3.9160 C.3   153  GLY153      0.2014
     57  C        -19.3210    2.5400    3.5860 C.2   153  GLY153      0.2639
     58  O        -19.3870    1.4480    3.0210 O.2   153  GLY153     -0.2714
     59  N        -20.3950    3.2470    3.9310 N.am  154  SER154     -0.1949
     60  CA       -21.7540    2.7650    3.6910 C.3   154  SER154      0.1924
     61  C        -22.1310    2.8340    2.2110 C.2   154  SER154      0.2314
     62  O        -22.6540    1.8720    1.6490 O.2   154  SER154     -0.2863
     63  CB       -22.7620    3.5670    4.5250 C.3   154  SER154      0.2116
     64  OG       -22.4960    3.4610    5.9170 O.3   154  SER154     -0.2180
     65  N         -9.5770    1.5280    7.1720 N.3   185  TRP185     -0.1228
     66  CA       -10.1570    0.4850    8.0420 C.3   185  TRP185      0.1722
     67  C         -9.9580   -0.9950    7.6630 C.2   185  TRP185      0.2437
     68  O        -10.2370   -1.8560    8.4960 O.2   185  TRP185     -0.2733
     69  CB       -11.6570    0.6980    8.2460 C.3   185  TRP185      0.0563
     70  CG       -11.9400    1.7200    9.2650 C.ar  185  TRP185      0.0003
     71  CD1      -12.3860    2.9980    9.0560 C.ar  185  TRP185      0.0946
     72  CD2      -11.7610    1.5780   10.6710 C.ar  185  TRP185      0.0152
     73  NE1      -12.5110    3.6530   10.2530 N.ar  185  TRP185     -0.2442
     74  CE2      -12.1310    2.8050   11.2620 C.ar  185  TRP185      0.0810
     75  CE3      -11.3280    0.5330   11.4950 C.ar  185  TRP185      0.0012
     76  CZ2      -12.0750    3.0120   12.6380 C.ar  185  TRP185      0.0191
     77  CZ3      -11.2800    0.7430   12.8570 C.ar  185  TRP185      0.0001
     78  CH2      -11.6500    1.9710   13.4150 C.ar  185  TRP185      0.0015
     79  N         -9.5020   -1.3140    6.4370 N.am  186  PRO186     -0.2718
     80  CA        -9.2060   -2.7360    6.2150 C.3   186  PRO186      0.1535
     81  C         -8.2270   -3.3410    7.2170 C.2   186  PRO186      0.2599
     82  O         -7.1490   -2.7940    7.4380 O.2   186  PRO186     -0.2715
     83  CB        -8.6020   -2.7360    4.8180 C.3   186  PRO186      0.0310
     84  CG        -9.3030   -1.6420    4.1480 C.3   186  PRO186      0.0237
     85  CD        -9.5700   -0.5890    5.1570 C.3   186  PRO186      0.0939
     86  N         -8.6200   -4.4530    7.8300 N.am  187  GLY187     -0.1955
     87  CA        -7.7350   -5.1690    8.7290 C.3   187  GLY187      0.1869
     88  C         -6.5210   -5.6650    7.9690 C.2   187  GLY187      0.2309
     89  O         -6.6380   -6.0660    6.8100 O.2   187  GLY187     -0.2863
     90  N         -7.5990    1.9500   18.6520 N.3   238  LYS238     -0.1245
     91  CA        -9.0340    1.8250   18.4370 C.3   238  LYS238      0.1561
     92  C         -9.7580    1.5200   19.7440 C.2   238  LYS238      0.2260
     93  O         -9.1170    1.2420   20.7600 O.2   238  LYS238     -0.2867
     94  CB        -9.3180    0.7320   17.4040 C.3   238  LYS238      0.0271
     95  CG        -8.7720    1.0400   16.0110 C.3   238  LYS238      0.0035
     96  CD        -8.4270   -0.2240   15.2310 C.3   238  LYS238      0.0206
     97  CE        -7.3630   -1.0350   15.9500 C.3   238  LYS238      0.1093
     98  NZ        -6.6490   -1.9710   15.0430 N.3   238  LYS238     -0.1314
     99  N         -9.8790   -4.2720   19.4460 N.3   241  PHE241     -0.1241
    100  CA        -9.3220   -4.9790   18.2980 C.3   241  PHE241      0.1605
    101  C         -7.9190   -4.4580   17.9910 C.2   241  PHE241      0.2264
    102  O         -7.5120   -4.3960   16.8320 O.2   241  PHE241     -0.2867
    103  CB       -10.2420   -4.8290   17.0790 C.3   241  PHE241      0.0534
    104  CG       -10.0980   -5.9250   16.0600 C.ar  241  PHE241     -0.0203
    105  CD1      -10.2440   -7.2500   16.4290 C.ar  241  PHE241     -0.0042
    106  CD2       -9.8540   -5.6300   14.7280 C.ar  241  PHE241     -0.0042
    107  CE1      -10.1200   -8.2630   15.5020 C.ar  241  PHE241     -0.0003
    108  CE2       -9.7350   -6.6400   13.7910 C.ar  241  PHE241     -0.0003
    109  CZ        -9.8690   -7.9590   14.1780 C.ar  241  PHE241     -0.0000
    110  N         -5.3340   -2.2320   11.5710 N.3   246  ASN246     -0.1240
    111  CA        -6.2300   -1.7300   10.5470 C.3   246  ASN246      0.1653
    112  C         -5.5670   -0.5300    9.8890 C.2   246  ASN246      0.2266
    113  O         -5.1410    0.4010   10.5700 O.2   246  ASN246     -0.2867
    114  CB        -7.5880   -1.3830   11.1510 C.3   246  ASN246      0.1155
    115  CG        -8.2360   -2.5740   11.8260 C.2   246  ASN246      0.2627
    116  OD1       -7.8800   -2.9360   12.9460 O.2   246  ASN246     -0.2716
    117  ND2       -9.1900   -3.1930   11.1440 N.am  246  ASN246     -0.0877
    118  N        -14.8260   -5.6820   21.4440 N.3   422  ILE422     -0.1245
    119  CA       -14.6550   -6.4540   20.2170 C.3   422  ILE422      0.1561
    120  C        -15.9670   -6.6130   19.4400 C.2   422  ILE422      0.2260
    121  O        -16.0690   -6.1990   18.2820 O.2   422  ILE422     -0.2867
    122  CB       -14.0710   -7.8540   20.5190 C.3   422  ILE422      0.0252
    123  CG1      -12.5880   -7.7510   20.8780 C.3   422  ILE422      0.0019
    124  CG2      -14.2510   -8.7800   19.3340 C.3   422  ILE422      0.0019
    125  CD1      -11.7370   -7.1560   19.7760 C.3   422  ILE422      0.0001
    126  N        -18.2920   -3.7150   17.7650 N.3   425  GLY425     -0.1225
    127  CA       -17.8880   -3.2730   16.4430 C.3   425  GLY425      0.1811
    128  C        -18.8060   -3.8390   15.3760 C.2   425  GLY425      0.2280
    129  O        -18.9480   -3.2720   14.2920 O.2   425  GLY425     -0.2866
    130  N        -21.1840   -1.8400   13.5240 N.3   428  THR428     -0.1203
    131  CA       -20.6360   -0.8680   12.5880 C.3   428  THR428      0.1994
    132  C        -20.0620   -1.5430   11.3460 C.2   428  THR428      0.2618
    133  O        -20.4880   -1.2490   10.2300 O.2   428  THR428     -0.2717
    134  CB       -19.5420   -0.0070   13.2480 C.3   428  THR428      0.1784
    135  OG1      -20.1240    0.8100   14.2730 O.3   428  THR428     -0.2211
    136  CG2      -18.8740    0.8840   12.2110 C.3   428  THR428      0.0376
    137  N        -19.1010   -2.4470   11.5320 N.am  429  TYR429     -0.1961
    138  CA       -18.5040   -3.1350   10.3900 C.3   429  TYR429      0.1771
    139  C        -19.5540   -4.0160    9.7280 C.2   429  TYR429      0.2619
    140  O        -20.5980   -4.2850   10.3210 O.2   429  TYR429     -0.2715
    141  CB       -17.2640   -3.9580   10.8000 C.3   429  TYR429      0.0574
    142  CG       -17.4940   -5.1290   11.7500 C.ar  429  TYR429     -0.0198
    143  CD1      -18.3180   -6.1980   11.4030 C.ar  429  TYR429     -0.0009
    144  CD2      -16.8370   -5.1890   12.9710 C.ar  429  TYR429     -0.0009
    145  CE1      -18.5120   -7.2660   12.2590 C.ar  429  TYR429      0.0417
    146  CE2      -17.0250   -6.2560   13.8360 C.ar  429  TYR429      0.0417
    147  CZ       -17.8610   -7.2930   13.4740 C.ar  429  TYR429      0.1957
    148  OH       -18.0510   -8.3570   14.3290 O.3   429  TYR429     -0.2866
    149  N        -19.2620   -4.4710    8.5130 N.am  430  ALA430     -0.1963
    150  CA       -20.1850   -5.2970    7.7370 C.3   430  ALA430      0.1728
    151  C        -21.5540   -4.6300    7.6000 C.2   430  ALA430      0.2617
    152  O        -22.5830   -5.3020    7.5300 O.2   430  ALA430     -0.2715
    153  CB       -20.3250   -6.6800    8.3670 C.3   430  ALA430      0.0334
    154  N        -21.5520   -3.3010    7.5500 N.am  431  GLY431     -0.1940
    155  CA       -22.7690   -2.5290    7.3780 C.3   431  GLY431      0.2014
    156  C        -23.1970   -1.8030    8.6390 C.2   431  GLY431      0.2638
    157  O        -23.4580   -2.4310    9.6630 O.2   431  GLY431     -0.2714
    158  N        -23.2620   -0.4770    8.5660 N.am  432  GLU432     -0.1977
    159  CA       -23.7710    0.3310    9.6710 C.3   432  GLU432      0.1602
    160  C        -25.1970   -0.1130   10.0100 C.2   432  GLU432      0.2287
    161  O        -26.0340   -0.2470    9.1170 O.2   432  GLU432     -0.2864
    162  CB       -23.7280    1.8220    9.3090 C.3   432  GLU432      0.0415
    163  CG       -23.5600    2.7660   10.4940 C.3   432  GLU432      0.1163
    164  CD       -24.7520    2.7560   11.4330 C.2   432  GLU432      0.3649
    165  OE1      -25.8870    2.9610   10.9520 O.co2 432  GLU432     -0.2457
    166  OE2      -24.5550    2.5330   12.6480 O.co2 432  GLU432     -0.2457
    167  N        -28.0220    1.0570   11.3670 N.3   434  MET434     -0.1230
    168  CA       -29.1710    1.8200   10.8810 C.3   434  MET434      0.1702
    169  C        -29.3770    1.6280    9.3830 C.2   434  MET434      0.2592
    170  O        -30.5050    1.4430    8.9240 O.2   434  MET434     -0.2718
    171  CB       -29.0110    3.3110   11.1890 C.3   434  MET434      0.0401
    172  CG       -29.2110    3.6910   12.6450 C.3   434  MET434      0.0596
    173  SD       -30.7460    3.0540   13.3470 S.3   434  MET434     -0.1393
    174  CE       -30.1130    1.7570   14.4070 C.3   434  MET434      0.0692
    175  N        -28.2810    1.6800    8.6310 N.am  435  VAL435     -0.1980
    176  CA       -28.3110    1.5020    7.1820 C.3   435  VAL435      0.1595
    177  C        -28.7760    0.0980    6.8020 C.2   435  VAL435      0.2287
    178  O        -29.5070   -0.0820    5.8260 O.2   435  VAL435     -0.2864
    179  CB       -26.9210    1.7680    6.5610 C.3   435  VAL435      0.0276
    180  CG1      -26.9240    1.4570    5.0730 C.3   435  VAL435      0.0022
    181  CG2      -26.4990    3.2080    6.8080 C.3   435  VAL435      0.0022
    182  N        -32.3960   -0.4210    7.4520 N.3   438  LEU438     -0.1245
    183  CA       -33.1060    0.2630    6.3800 C.3   438  LEU438      0.1561
    184  C        -33.0890   -0.5430    5.0890 C.2   438  LEU438      0.2260
    185  O        -33.9700   -0.3930    4.2460 O.2   438  LEU438     -0.2867
    186  CB       -32.5010    1.6480    6.1410 C.3   438  LEU438      0.0270
    187  CG       -32.9620    2.7150    7.1340 C.3   438  LEU438      0.0019
    188  CD1      -32.1830    4.0090    6.9510 C.3   438  LEU438      0.0001
    189  CD2      -34.4560    2.9500    6.9680 C.3   438  LEU438      0.0001
@<TRIPOS>BOND
     1    53    54   ar
     2    53    51   ar
     3    54    52   ar
     4    36    35    2
     5    51    50   ar
     6    52    50   ar
     7    28    27    1
     8    50    49    1
     9    34    35    1
    10    34    33    1
    11    25    27   ar
    12    25    23   ar
    13    35    37   am
    14    32    31    2
    15    30    33    1
    16    30    31    1
    17    30    29    1
    18    27    26   ar
    19    49    46    1
    20    23    22   ar
    21    31    38   am
    22    12    11    2
    23    26    24   ar
    24    62    61    2
    25    22    24   ar
    26    22    21    1
    27    18    19    1
    28    18    21    1
    29    18    17    1
    30    19    20    2
    31    46    45    1
    32    46    47    1
    33    61    60    1
    34    38    39    1
    35    11    10    1
    36    48    47    2
    37    40    41    2
    38    40    39    1
    39    47    55   am
    40    39    42    1
    41    58    57    2
    42    55    56    1
    43    10    13    1
    44    10     9    1
    45    57    56    1
    46    57    59   am
    47    16    14    1
    48    60    59    1
    49    60    63    1
    50    13    14    1
    51    84    83    1
    52    84    85    1
    53   185   184    2
    54    42    43    1
    55    42    44    1
    56    14    15    1
    57    63    64    1
    58    83    80    1
    59   180   179    1
    60   184   183    1
    61    85    79    1
    62     4     3    2
    63   178   177    2
    64   186   183    1
    65   186   187    1
    66    80    79    1
    67    80    81    1
    68     3     2    1
    69   183   182    1
    70    79    67   am
    71   179   181    1
    72   179   176    1
    73   177   176    1
    74    89    88    2
    75   188   187    1
    76   189   187    1
    77     5     2    1
    78     5     6    1
    79    65    66    1
    80   176   175    1
    81    81    82    2
    82    81    86   am
    83   155   154    1
    84   155   156    1
    85     2     1    1
    86   152   151    2
    87   154   151   am
    88   151   150    1
    89    67    66    1
    90    67    68    2
    91     7     6    1
    92   150   153    1
    93   150   149    1
    94    86    87    1
    95     6     8    1
    96    88    87    1
    97    66    69    1
    98    69    70    1
    99   149   139   am
   100   158   156   am
   101   158   159    1
   102   175   169   am
   103   156   157    2
   104   170   169    2
   105    71    70   ar
   106    71    73   ar
   107   161   160    2
   108    70    72   ar
   109   162   159    1
   110   162   163    1
   111   169   168    1
   112   159   160    1
   113   139   140    2
   114   139   138    1
   115   112   111    1
   116   112   113    2
   117   133   132    2
   118    73    74   ar
   119   138   141    1
   120   138   137    1
   121   163   164    1
   122   111   114    1
   123   111   110    1
   124    72    74   ar
   125    72    75   ar
   126   141   142    1
   127   168   171    1
   128   168   167    1
   129   165   164   ar
   130   117   115   am
   131   114   115    1
   132   171   172    1
   133    74    76   ar
   134   132   137   am
   135   132   131    1
   136   143   142   ar
   137   143   145   ar
   138   164   166   ar
   139    75    77   ar
   140   142   144   ar
   141   115   116    2
   142   136   134    1
   143   145   147   ar
   144   131   134    1
   145   131   130    1
   146    76    78   ar
   147   172   173    1
   148    77    78   ar
   149   144   146   ar
   150   134   135    1
   151   173   174    1
   152   147   146   ar
   153   147   148    1
   154   108   109   ar
   155   108   106   ar
   156   109   107   ar
   157   129   128    2
   158   106   104   ar
   159    98    97    1
   160    96    97    1
   161    96    95    1
   162   128   127    1
   163   107   105   ar
   164    95    94    1
   165   104   105   ar
   166   104   103    1
   167   127   126    1
   168   102   101    2
   169   103   100    1
   170    94    91    1
   171   101   100    1
   172   121   120    2
   173   100    99    1
   174    91    90    1
   175    91    92    1
   176   124   122    1
   177   120   119    1
   178    92    93    2
   179   125   123    1
   180   119   122    1
   181   119   118    1
   182   122   123    1
