@<TRIPOS>MOLECULE
tmp/5k3jA01.pdb
 136 127 0 0 0
SMALL
GASTEIGER

@<TRIPOS>ATOM
      1  N        -27.8600   -6.5860   12.5410 N.3   388  SER388     -0.1202
      2  CA       -28.0880   -5.3380   13.2570 C.3   388  SER388      0.2020
      3  C        -28.7210   -5.5780   14.6260 C.2   388  SER388      0.2618
      4  O        -28.1930   -5.1360   15.6460 O.2   388  SER388     -0.2717
      5  CB       -28.9670   -4.4020   12.4290 C.3   388  SER388      0.2103
      6  OG       -28.2930   -3.9970   11.2520 O.3   388  SER388     -0.2182
      7  N        -29.8500   -6.2810   14.6400 N.am  389  VAL389     -0.1979
      8  CA       -30.5600   -6.5730   15.8840 C.3   389  VAL389      0.1595
      9  C        -29.7070   -7.4200   16.8230 C.2   389  VAL389      0.2287
     10  O        -29.6270   -7.1420   18.0220 O.2   389  VAL389     -0.2864
     11  CB       -31.8950   -7.2960   15.6170 C.3   389  VAL389      0.0276
     12  CG1      -32.4680   -7.8700   16.9070 C.3   389  VAL389      0.0022
     13  CG2      -32.8890   -6.3460   14.9720 C.3   389  VAL389      0.0022
     14  N        -26.6910   -5.4920   18.2590 N.3   392  HIS392     -0.1241
     15  CA       -27.1990   -4.4700   19.1660 C.3   392  HIS392      0.1621
     16  C        -27.6280   -5.0760   20.4960 C.2   392  HIS392      0.2264
     17  O        -27.2590   -4.5810   21.5600 O.2   392  HIS392     -0.2867
     18  CB       -28.3680   -3.7260   18.5200 C.3   392  HIS392      0.0745
     19  CG       -29.0890   -2.8000   19.4500 C.ar  392  HIS392      0.0817
     20  ND1      -28.5100   -1.6660   19.9720 N.ar  392  HIS392     -0.2268
     21  CD2      -30.3490   -2.8430   19.9470 C.ar  392  HIS392      0.1154
     22  CE1      -29.3790   -1.0480   20.7520 C.ar  392  HIS392      0.1986
     23  NE2      -30.5020   -1.7420   20.7550 N.ar  392  HIS392     -0.2212
     24  N        -21.8080   -3.7130   15.2980 N.3   427  CYS427     -0.1235
     25  CA       -22.8540   -2.7380   15.0480 C.3   427  CYS427      0.1677
     26  C        -22.4230   -1.7230   13.9930 C.2   427  CYS427      0.2270
     27  O        -23.2000   -0.8450   13.6140 O.2   427  CYS427     -0.2867
     28  CB       -23.2220   -2.0130   16.3410 C.3   427  CYS427      0.0956
     29  SG       -24.0610   -3.0290   17.5780 S.3   427  CYS427     -0.0801
     30  N        -23.2620   -0.4770    8.5660 N.3   432  GLU432     -0.1231
     31  CA       -23.7710    0.3310    9.6710 C.3   432  GLU432      0.1699
     32  C        -25.1970   -0.1130   10.0100 C.2   432  GLU432      0.2592
     33  O        -26.0340   -0.2470    9.1170 O.2   432  GLU432     -0.2718
     34  CB       -23.7280    1.8220    9.3090 C.3   432  GLU432      0.0402
     35  CG       -23.5600    2.7660   10.4940 C.3   432  GLU432      0.1161
     36  CD       -24.7520    2.7560   11.4330 C.2   432  GLU432      0.3649
     37  OE1      -25.8870    2.9610   10.9520 O.co2 432  GLU432     -0.2457
     38  OE2      -24.5550    2.5330   12.6480 O.co2 432  GLU432     -0.2457
     39  N        -25.4590   -0.3380   11.2970 N.am  433  ASN433     -0.1960
     40  CA       -26.7050   -0.9550   11.7630 C.3   433  ASN433      0.1819
     41  C        -27.9830   -0.2700   11.2840 C.2   433  ASN433      0.2621
     42  O        -28.9220   -0.9410   10.8530 O.2   433  ASN433     -0.2715
     43  CB       -26.7140   -1.0280   13.2950 C.3   433  ASN433      0.1195
     44  CG       -26.1800   -2.3490   13.8160 C.2   433  ASN433      0.2630
     45  OD1      -26.4390   -2.7230   14.9590 O.2   433  ASN433     -0.2716
     46  ND2      -25.4250   -3.0600   12.9830 N.am  433  ASN433     -0.0877
     47  N        -28.0220    1.0570   11.3670 N.am  434  MET434     -0.1977
     48  CA       -29.1710    1.8200   10.8810 C.3   434  MET434      0.1605
     49  C        -29.3770    1.6280    9.3830 C.2   434  MET434      0.2287
     50  O        -30.5050    1.4430    8.9240 O.2   434  MET434     -0.2864
     51  CB       -29.0110    3.3110   11.1890 C.3   434  MET434      0.0413
     52  CG       -29.2110    3.6910   12.6450 C.3   434  MET434      0.0598
     53  SD       -30.7460    3.0540   13.3470 S.3   434  MET434     -0.1393
     54  CE       -30.1130    1.7570   14.4070 C.3   434  MET434      0.0692
     55  N        -30.6250   -1.9610    8.7620 N.3   437  LEU437     -0.1245
     56  CA       -32.0230   -2.0820    9.1630 C.3   437  LEU437      0.1561
     57  C        -32.9130   -1.4630    8.0940 C.2   437  LEU437      0.2260
     58  O        -34.0310   -1.9190    7.8570 O.2   437  LEU437     -0.2867
     59  CB       -32.2680   -1.4090   10.5160 C.3   437  LEU437      0.0270
     60  CG       -31.9290   -2.1890   11.7890 C.3   437  LEU437      0.0019
     61  CD1      -32.1480   -1.3250   13.0190 C.3   437  LEU437      0.0001
     62  CD2      -32.7690   -3.4510   11.8690 C.3   437  LEU437      0.0001
     63  N        -37.5550    5.9880   10.5060 N.3   519  VAL519     -0.1245
     64  CA       -37.5630    5.4030   11.8450 C.3   519  VAL519      0.1561
     65  C        -38.6080    4.2950   11.9660 C.2   519  VAL519      0.2260
     66  O        -38.3200    3.2260   12.5040 O.2   519  VAL519     -0.2867
     67  CB       -37.8210    6.4620   12.9310 C.3   519  VAL519      0.0252
     68  CG1      -37.8270    5.8130   14.3070 C.3   519  VAL519      0.0019
     69  CG2      -36.7590    7.5430   12.8730 C.3   519  VAL519      0.0019
     70  N        -37.4640    1.1390   10.3610 N.3   522  THR522     -0.1203
     71  CA       -36.4860    0.3820   11.1330 C.3   522  THR522      0.1994
     72  C        -37.1580   -0.3540   12.2860 C.2   522  THR522      0.2617
     73  O        -36.6790   -1.3970   12.7270 O.2   522  THR522     -0.2717
     74  CB       -35.3700    1.2780   11.7000 C.3   522  THR522      0.1784
     75  OG1      -35.9480    2.3050   12.5150 O.3   522  THR522     -0.2211
     76  CG2      -34.5680    1.9150   10.5770 C.3   522  THR522      0.0376
     77  N        -38.2630    0.1960   12.7790 N.am  523  ARG523     -0.1979
     78  CA       -39.0470   -0.4870   13.7980 C.3   523  ARG523      0.1597
     79  C        -39.6390   -1.7490   13.1930 C.2   523  ARG523      0.2287
     80  O        -39.7340   -2.7870   13.8490 O.2   523  ARG523     -0.2864
     81  CB       -40.1570    0.4130   14.3400 C.3   523  ARG523      0.0334
     82  CG       -39.6710    1.7380   14.8980 C.3   523  ARG523      0.0492
     83  CD       -40.8380    2.5860   15.3760 C.3   523  ARG523      0.2205
     84  NE       -40.4240    3.9290   15.7750 N.pl3 523  ARG523     -0.0865
     85  CZ       -39.9170    4.2340   16.9650 C.cat 523  ARG523      0.5346
     86  NH1      -39.7500    3.2900   17.8820 N.pl3 523  ARG523      0.1354
     87  NH2      -39.5710    5.4850   17.2380 N.pl3 523  ARG523      0.1354
     88  N        -36.7070   -4.4800   12.7510 N.3   526  ARG526     -0.1245
     89  CA       -36.4120   -5.1030   14.0410 C.3   526  ARG526      0.1563
     90  C        -37.4560   -6.1430   14.4400 C.2   526  ARG526      0.2260
     91  O        -37.1110   -7.2440   14.8680 O.2   526  ARG526     -0.2867
     92  CB       -36.3000   -4.0380   15.1380 C.3   526  ARG526      0.0307
     93  CG       -34.9250   -3.4030   15.2510 C.3   526  ARG526      0.0489
     94  CD       -34.8160   -2.4990   16.4740 C.3   526  ARG526      0.2205
     95  NE       -35.0490   -1.0940   16.1490 N.pl3 526  ARG526     -0.0865
     96  CZ       -36.2180   -0.4780   16.2810 C.cat 526  ARG526      0.5346
     97  NH1      -37.2710   -1.1430   16.7340 N.pl3 526  ARG526      0.1354
     98  NH2      -36.3350    0.8040   15.9620 N.pl3 526  ARG526      0.1354
     99  N        -36.7860  -10.3130   14.8190 N.3   530  ARG530     -0.1245
    100  CA       -36.9830  -10.8680   16.1450 C.3   530  ARG530      0.1563
    101  C        -37.9430  -12.0390   16.0470 C.2   530  ARG530      0.2260
    102  O        -37.8130  -13.0270   16.7680 O.2   530  ARG530     -0.2867
    103  CB       -37.5060   -9.8130   17.1180 C.3   530  ARG530      0.0307
    104  CG       -36.4550   -8.8030   17.5500 C.3   530  ARG530      0.0489
    105  CD       -36.4260   -8.6520   19.0580 C.3   530  ARG530      0.2205
    106  NE       -36.7160   -7.2850   19.4720 N.pl3 530  ARG530     -0.0865
    107  CZ       -36.7790   -6.8920   20.7390 C.cat 530  ARG530      0.5346
    108  NH1      -36.5710   -7.7650   21.7160 N.pl3 530  ARG530      0.1354
    109  NH2      -37.0500   -5.6270   21.0340 N.pl3 530  ARG530      0.1354
    110  N        -40.6900   -6.7970   26.0780 N.3   567  ASP567     -0.1225
    111  CA       -39.8110   -5.7350   25.6050 C.3   567  ASP567      0.1805
    112  C        -40.4500   -4.9820   24.4410 C.2   567  ASP567      0.2597
    113  O        -40.0720   -3.8510   24.1400 O.2   567  ASP567     -0.2718
    114  CB       -38.4550   -6.3110   25.1850 C.3   567  ASP567      0.1424
    115  CG       -37.4220   -5.2340   24.9110 C.2   567  ASP567      0.3668
    116  OD1      -37.3240   -4.2880   25.7210 O.co2 567  ASP567     -0.2456
    117  OD2      -36.7130   -5.3320   23.8860 O.co2 567  ASP567     -0.2456
    118  N        -41.4230   -5.6190   23.7950 N.am  568  VAL568     -0.1980
    119  CA       -42.0970   -5.0420   22.6370 C.3   568  VAL568      0.1595
    120  C        -43.6040   -4.9330   22.8540 C.2   568  VAL568      0.2287
    121  O        -44.3730   -4.8850   21.8920 O.2   568  VAL568     -0.2864
    122  CB       -41.8430   -5.8770   21.3650 C.3   568  VAL568      0.0276
    123  CG1      -40.3600   -5.9020   21.0330 C.3   568  VAL568      0.0022
    124  CG2      -42.3800   -7.2910   21.5410 C.3   568  VAL568      0.0022
    125  N        -46.1070   -2.6840   20.9880 N.3   571  TYR571     -0.1241
    126  CA       -46.6090   -3.1720   19.7100 C.3   571  TYR571      0.1605
    127  C        -47.6090   -4.3100   19.9050 C.2   571  TYR571      0.2264
    128  O        -48.5070   -4.5060   19.0870 O.2   571  TYR571     -0.2867
    129  CB       -45.4540   -3.6420   18.8230 C.3   571  TYR571      0.0534
    130  CG       -44.4710   -2.5530   18.4660 C.ar  571  TYR571     -0.0201
    131  CD1      -44.8860   -1.4150   17.7890 C.ar  571  TYR571     -0.0009
    132  CD2      -43.1240   -2.6690   18.7890 C.ar  571  TYR571     -0.0009
    133  CE1      -43.9940   -0.4170   17.4550 C.ar  571  TYR571      0.0417
    134  CE2      -42.2230   -1.6750   18.4560 C.ar  571  TYR571      0.0417
    135  CZ       -42.6640   -0.5520   17.7900 C.ar  571  TYR571      0.1957
    136  OH       -41.7700    0.4390   17.4590 O.3   571  TYR571     -0.2866
@<TRIPOS>BOND
     1    58    57    2
     2    57    56    1
     3    30    31    1
     4    55    56    1
     5    50    49    2
     6    33    32    2
     7    56    59    1
     8    34    31    1
     9    34    35    1
    10    49    48    1
    11    31    32    1
    12    32    39   am
    13    70    71    1
    14    35    36    1
    15    63    64    1
    16    59    60    1
    17    76    74    1
    18    42    41    2
    19    48    51    1
    20    48    47    1
    21    37    36   ar
    22    71    74    1
    23    71    72    1
    24    51    52    1
    25     6     5    1
    26    41    47   am
    27    41    40    1
    28    39    40    1
    29    36    38   ar
    30    74    75    1
    31    40    43    1
    32    60    62    1
    33    60    61    1
    34    64    65    1
    35    64    67    1
    36    65    66    2
    37    72    73    2
    38    72    77   am
    39     5     2    1
    40     1     2    1
    41    52    53    1
    42    88    89    1
    43    77    78    1
    44    69    67    1
    45    67    68    1
    46    46    44   am
    47    79    78    1
    48    79    80    2
    49     2     3    1
    50    43    44    1
    51    53    54    1
    52    27    26    2
    53    78    81    1
    54    44    45    2
    55    26    25    1
    56    89    90    1
    57    89    92    1
    58    81    82    1
    59    90    91    2
    60     3     7   am
    61     3     4    2
    62     7     8    1
    63    99   100    1
    64    82    83    1
    65    13    11    1
    66    25    24    1
    67    25    28    1
    68    92    93    1
    69    93    94    1
    70    83    84    1
    71    11     8    1
    72    11    12    1
    73    84    85    2
    74     8     9    1
    75    98    96    1
    76   101   100    1
    77   101   102    2
    78   100   103    1
    79    95    96    2
    80    95    94    1
    81    96    97    1
    82    28    29    1
    83     9    10    2
    84    85    87    1
    85    85    86    1
    86   103   104    1
    87   133   131   ar
    88   133   135   ar
    89   136   135    1
    90   104   105    1
    91   131   130   ar
    92   135   134   ar
    93    14    15    1
    94   134   132   ar
    95   130   132   ar
    96   130   129    1
    97    18    15    1
    98    18    19    1
    99   129   126    1
   100   105   106    1
   101   128   127    2
   102    15    16    1
   103    19    21   ar
   104    19    20   ar
   105   106   107    2
   106   126   127    1
   107   126   125    1
   108    21    23   ar
   109    20    22   ar
   110    16    17    2
   111   107   109    1
   112   107   108    1
   113    22    23   ar
   114   123   122    1
   115   122   124    1
   116   122   119    1
   117   121   120    2
   118   119   120    1
   119   119   118    1
   120   118   112   am
   121   117   115   ar
   122   113   112    2
   123   112   111    1
   124   115   114    1
   125   115   116   ar
   126   114   111    1
   127   111   110    1
