@<TRIPOS>MOLECULE
tmp/5k3mA00.pdb
 212 204 0 0 0
SMALL
GASTEIGER

@<TRIPOS>ATOM
      1  N        -25.5540   19.3550    7.1280 N.3    21  CYS21      -0.1221
      2  CA       -24.3400   19.4960    7.9280 C.3    21  CYS21       0.1808
      3  C        -23.0930   19.2260    7.0900 C.2    21  CYS21       0.2601
      4  O        -22.0030   19.0110    7.6310 O.2    21  CYS21      -0.2717
      5  CB       -24.3750   18.5460    9.1240 C.3    21  CYS21       0.0970
      6  SG       -24.1950   16.8110    8.6720 S.3    21  CYS21      -0.0800
      7  N        -23.2720   19.2280    5.7710 N.am   22  GLN22      -0.1965
      8  CA       -22.1970   19.0010    4.8080 C.3    22  GLN22       0.1733
      9  C        -21.4010   17.7220    5.0590 C.2    22  GLN22       0.2616
     10  O        -21.4670   16.7850    4.2620 O.2    22  GLN22      -0.2715
     11  CB       -21.2660   20.2120    4.7180 C.3    22  GLN22       0.0408
     12  CG       -20.3830   20.1820    3.4900 C.3    22  GLN22       0.0908
     13  CD       -19.9400   21.5600    3.0670 C.2    22  GLN22       0.2608
     14  OE1      -20.4920   22.5700    3.5140 O.2    22  GLN22      -0.2717
     15  NE2      -18.9370   21.6140    2.1980 N.am   22  GLN22      -0.0878
     16  N        -20.6520   17.6810    6.1570 N.am   23  LEU23      -0.1977
     17  CA       -19.8470   16.5020    6.4570 C.3    23  LEU23       0.1596
     18  C        -20.2040   15.8360    7.7810 C.2    23  LEU23       0.2287
     19  O        -20.6800   16.4910    8.7110 O.2    23  LEU23      -0.2864
     20  CB       -18.3560   16.8380    6.4190 C.3    23  LEU23       0.0297
     21  CG       -17.7120   16.7730    5.0330 C.3    23  LEU23       0.0022
     22  CD1      -17.5990   18.1560    4.4100 C.3    23  LEU23       0.0001
     23  CD2      -16.3530   16.0900    5.1060 C.3    23  LEU23       0.0001
     24  N        -15.5200   13.3530   10.8890 N.3    28  LEU28      -0.1245
     25  CA       -14.6320   14.5050   11.0030 C.3    28  LEU28       0.1561
     26  C        -13.5240   14.3360   12.0420 C.2    28  LEU28       0.2260
     27  O        -12.3460   14.2430   11.6930 O.2    28  LEU28      -0.2867
     28  CB       -15.4410   15.7660   11.2990 C.3    28  LEU28       0.0270
     29  CG       -15.9260   16.5260   10.0670 C.3    28  LEU28       0.0019
     30  CD1      -17.0240   17.5050   10.4430 C.3    28  LEU28       0.0001
     31  CD2      -14.7550   17.2540    9.4300 C.3    28  LEU28       0.0001
     32  N         -9.9420   27.4490   -3.2570 N.3    56  CYS56      -0.1235
     33  CA       -10.7520   27.8300   -2.1070 C.3    56  CYS56       0.1677
     34  C        -12.1960   27.9820   -2.5370 C.2    56  CYS56       0.2270
     35  O        -13.1050   27.4470   -1.9050 O.2    56  CYS56      -0.2867
     36  CB       -10.2640   29.1550   -1.5190 C.3    56  CYS56       0.0956
     37  SG        -8.5480   29.1530   -0.9620 S.3    56  CYS56      -0.0801
     38  N        -14.2310   24.5230   -2.7490 N.3    59  HIS59      -0.1226
     39  CA       -14.6910   24.0940   -1.4340 C.3    59  HIS59       0.1752
     40  C        -15.6930   25.1020   -0.8980 C.2    59  HIS59       0.2595
     41  O        -16.6750   24.7350   -0.2540 O.2    59  HIS59      -0.2718
     42  CB       -13.5210   23.9690   -0.4570 C.3    59  HIS59       0.0759
     43  CG       -12.4660   23.0020   -0.8920 C.ar   59  HIS59       0.0818
     44  ND1      -11.4760   23.3340   -1.7920 N.ar   59  HIS59      -0.2268
     45  CD2      -12.2410   21.7120   -0.5470 C.ar   59  HIS59       0.1154
     46  CE1      -10.6870   22.2910   -1.9830 C.ar   59  HIS59       0.1986
     47  NE2      -11.1320   21.2930   -1.2370 N.ar   59  HIS59      -0.2212
     48  N        -15.4390   26.3760   -1.1800 N.am   60  LEU60      -0.1980
     49  CA       -16.3310   27.4400   -0.7500 C.3    60  LEU60       0.1596
     50  C        -17.7070   27.2660   -1.3680 C.2    60  LEU60       0.2287
     51  O        -18.6410   26.8520   -0.6850 O.2    60  LEU60      -0.2864
     52  CB       -15.7600   28.8100   -1.1120 C.3    60  LEU60       0.0297
     53  CG       -16.4630   29.9880   -0.4460 C.3    60  LEU60       0.0022
     54  CD1      -16.4100   29.8190    1.0570 C.3    60  LEU60       0.0001
     55  CD2      -15.8170   31.2970   -0.8590 C.3    60  LEU60       0.0001
     56  N        -19.6770   24.2690   -0.5960 N.3    63  ALA63      -0.1245
     57  CA       -20.1830   24.3090    0.7700 C.3    63  ALA63       0.1562
     58  C        -21.4330   25.1750    0.8590 C.2    63  ALA63       0.2260
     59  O        -22.3730   24.8520    1.5830 O.2    63  ALA63      -0.2867
     60  CB       -19.1180   24.8260    1.7210 C.3    63  ALA63       0.0290
     61  N        -21.2080   29.8490    5.9800 N.3    97  VAL97      -0.1231
     62  CA       -20.1630   28.9240    5.5580 C.3    97  VAL97       0.1692
     63  C        -18.9780   28.9870    6.5130 C.2    97  VAL97       0.2591
     64  O        -18.4490   27.9600    6.9440 O.2    97  VAL97      -0.2718
     65  CB       -19.6860   29.2570    4.1470 C.3    97  VAL97       0.0266
     66  CG1      -18.7610   28.1730    3.6300 C.3    97  VAL97       0.0020
     67  CG2      -20.8830   29.4140    3.2350 C.3    97  VAL97       0.0020
     68  N        -18.5920   30.2110    6.8530 N.am   98  LEU98      -0.1980
     69  CA       -17.4710   30.4640    7.7410 C.3    98  LEU98       0.1596
     70  C        -17.7560   29.9050    9.1300 C.2    98  LEU98       0.2287
     71  O        -16.8610   29.4050    9.8090 O.2    98  LEU98      -0.2864
     72  CB       -17.2210   31.9700    7.8280 C.3    98  LEU98       0.0297
     73  CG       -17.0260   32.6940    6.4940 C.3    98  LEU98       0.0022
     74  CD1      -16.9350   34.1990    6.7020 C.3    98  LEU98       0.0001
     75  CD2      -15.7770   32.1870    5.7980 C.3    98  LEU98       0.0001
     76  N        -19.5350   27.2930    9.8710 N.3   100  ARG100     -0.1231
     77  CA       -19.4250   25.8430    9.8340 C.3   100  ARG100      0.1694
     78  C        -17.9710   25.3920    9.8340 C.2   100  ARG100      0.2591
     79  O        -17.6620   24.2520   10.1690 O.2   100  ARG100     -0.2718
     80  CB       -20.1710   25.3050    8.6110 C.3   100  ARG100      0.0321
     81  CG       -21.6550   25.6660    8.6040 C.3   100  ARG100      0.0489
     82  CD       -22.2950   25.4650    7.2370 C.3   100  ARG100      0.2205
     83  NE       -23.7550   25.3990    7.3160 N.pl3 100  ARG100     -0.0865
     84  CZ       -24.4750   24.3020    7.0910 C.cat 100  ARG100      0.5346
     85  NH1      -23.8770   23.1660    6.7560 N.pl3 100  ARG100      0.1354
     86  NH2      -25.7960   24.3430    7.1930 N.pl3 100  ARG100      0.1354
     87  N        -17.0850   26.3080    9.4680 N.am  101  MET101     -0.1979
     88  CA       -15.6580   26.0270    9.4080 C.3   101  MET101      0.1605
     89  C        -15.0960   25.6290   10.7760 C.2   101  MET101      0.2287
     90  O        -14.1410   24.8560   10.8610 O.2   101  MET101     -0.2864
     91  CB       -14.9250   27.2460    8.8470 C.3   101  MET101      0.0413
     92  CG       -13.4220   27.1670    8.8770 C.3   101  MET101      0.0598
     93  SD       -12.7010   28.6980    8.2570 S.3   101  MET101     -0.1393
     94  CE       -10.9530   28.3200    8.3970 C.3   101  MET101      0.0692
     95  N        -16.1670   23.6030   12.8570 N.3   103  ARG103     -0.1231
     96  CA       -16.2360   22.1560   13.0120 C.3   103  ARG103      0.1694
     97  C        -14.9580   21.5210   12.4940 C.2   103  ARG103      0.2591
     98  O        -14.4510   20.5550   13.0630 O.2   103  ARG103     -0.2718
     99  CB       -17.4360   21.5990   12.2510 C.3   103  ARG103      0.0321
    100  CG       -18.7670   22.1750   12.6960 C.3   103  ARG103      0.0489
    101  CD       -19.7880   22.0880   11.5730 C.3   103  ARG103      0.2205
    102  NE       -20.8920   21.1680   11.8470 N.pl3 103  ARG103     -0.0865
    103  CZ       -20.9770   19.9310   11.3680 C.cat 103  ARG103      0.5346
    104  NH1      -20.0180   19.4510   10.5910 N.pl3 103  ARG103      0.1354
    105  NH2      -22.0260   19.1750   11.6680 N.pl3 103  ARG103      0.1354
    106  N        -14.4330   22.0810   11.4130 N.am  104  ALA104     -0.1980
    107  CA       -13.1870   21.5970   10.8470 C.3   104  ALA104      0.1597
    108  C        -11.9930   22.2490   11.5360 C.2   104  ALA104      0.2287
    109  O        -10.8900   22.2380   11.0000 O.2   104  ALA104     -0.2864
    110  CB       -13.1460   21.8530    9.3490 C.3   104  ALA104      0.0319
    111  N         -6.8880   23.4780   10.3730 N.3   112  VAL112     -0.1231
    112  CA        -8.2270   23.3090    9.8150 C.3   112  VAL112      0.1692
    113  C         -8.2090   22.1780    8.7860 C.2   112  VAL112      0.2592
    114  O         -7.2000   21.9690    8.1140 O.2   112  VAL112     -0.2718
    115  CB        -8.7430   24.6180    9.1620 C.3   112  VAL112      0.0266
    116  CG1       -7.8470   25.0330    8.0000 C.3   112  VAL112      0.0020
    117  CG2      -10.1910   24.4700    8.7010 C.3   112  VAL112      0.0020
    118  N         -9.3070   21.4330    8.6790 N.am  113  PHE113     -0.1962
    119  CA        -9.4060   20.4040    7.6530 C.3   113  PHE113      0.1771
    120  C         -9.3680   21.0620    6.2770 C.2   113  PHE113      0.2620
    121  O         -9.8490   22.1820    6.1110 O.2   113  PHE113     -0.2715
    122  CB       -10.6940   19.5950    7.8110 C.3   113  PHE113      0.0574
    123  CG       -10.9940   18.7040    6.6400 C.ar  113  PHE113     -0.0200
    124  CD1      -10.4290   17.4440    6.5460 C.ar  113  PHE113     -0.0042
    125  CD2      -11.8450   19.1260    5.6290 C.ar  113  PHE113     -0.0042
    126  CE1      -10.7080   16.6250    5.4660 C.ar  113  PHE113     -0.0003
    127  CE2      -12.1220   18.3140    4.5460 C.ar  113  PHE113     -0.0003
    128  CZ       -11.5530   17.0620    4.4660 C.ar  113  PHE113     -0.0000
    129  N         -8.7830   20.3680    5.3030 N.am  114  PHE114     -0.1960
    130  CA        -8.7340   20.8470    3.9260 C.3   114  PHE114      0.1771
    131  C         -8.2690   19.7590    2.9790 C.2   114  PHE114      0.2619
    132  O         -7.1570   19.2460    3.1250 O.2   114  PHE114     -0.2715
    133  CB        -7.7820   22.0370    3.7870 C.3   114  PHE114      0.0574
    134  CG        -7.5490   22.4560    2.3600 C.ar  114  PHE114     -0.0200
    135  CD1       -8.4420   23.2970    1.7220 C.ar  114  PHE114     -0.0042
    136  CD2       -6.4470   21.9970    1.6510 C.ar  114  PHE114     -0.0042
    137  CE1       -8.2400   23.6800    0.4060 C.ar  114  PHE114     -0.0003
    138  CE2       -6.2460   22.3730    0.3370 C.ar  114  PHE114     -0.0003
    139  CZ        -7.1390   23.2170   -0.2860 C.ar  114  PHE114     -0.0000
    140  N         -9.1050   19.4410    1.9950 N.am  115  GLU115     -0.1977
    141  CA        -8.7340   18.5060    0.9410 C.3   115  GLU115      0.1602
    142  C         -8.2080   17.2140    1.5550 C.2   115  GLU115      0.2287
    143  O         -7.0640   16.8200    1.3250 O.2   115  GLU115     -0.2864
    144  CB        -7.6820   19.1320    0.0140 C.3   115  GLU115      0.0415
    145  CG        -7.3840   18.3430   -1.2570 C.3   115  GLU115      0.1163
    146  CD        -8.5940   18.1930   -2.1590 C.2   115  GLU115      0.3649
    147  OE1       -9.4640   19.0880   -2.1400 O.co2 115  GLU115     -0.2457
    148  OE2       -8.6730   17.1810   -2.8900 O.co2 115  GLU115     -0.2457
    149  N         -1.8790   28.5990    3.5310 N.3   124  PHE124     -0.1241
    150  CA        -2.3530   29.6790    2.6840 C.3   124  PHE124      0.1605
    151  C         -1.3460   30.8150    2.6760 C.2   124  PHE124      0.2264
    152  O         -1.7020   31.9830    2.5400 O.2   124  PHE124     -0.2867
    153  CB        -3.7260   30.1460    3.1550 C.3   124  PHE124      0.0534
    154  CG        -4.6740   29.0150    3.4360 C.ar  124  PHE124     -0.0203
    155  CD1       -4.7360   28.4430    4.6970 C.ar  124  PHE124     -0.0042
    156  CD2       -5.4860   28.5040    2.4340 C.ar  124  PHE124     -0.0042
    157  CE1       -5.5950   27.3920    4.9570 C.ar  124  PHE124     -0.0003
    158  CE2       -6.3490   27.4510    2.6880 C.ar  124  PHE124     -0.0003
    159  CZ        -6.4010   26.8950    3.9520 C.ar  124  PHE124     -0.0000
    160  N         -1.5170   33.2200   -0.3320 N.3   127  LEU127     -0.1245
    161  CA        -2.6560   34.1050   -0.5780 C.3   127  LEU127      0.1561
    162  C         -2.3270   35.5980   -0.4480 C.2   127  LEU127      0.2260
    163  O         -3.0940   36.4470   -0.9100 O.2   127  LEU127     -0.2867
    164  CB        -3.8530   33.7240    0.2950 C.3   127  LEU127      0.0270
    165  CG        -4.4170   32.3390   -0.0250 C.3   127  LEU127      0.0019
    166  CD1       -5.6980   32.0790    0.7520 C.3   127  LEU127      0.0001
    167  CD2       -4.6550   32.1850   -1.5230 C.3   127  LEU127      0.0001
    168  N         -5.5350   38.3240    6.9450 N.3   132  LEU132     -0.1231
    169  CA        -6.9000   37.8910    6.6640 C.3   132  LEU132      0.1693
    170  C         -7.1340   36.4670    7.1560 C.2   132  LEU132      0.2591
    171  O         -7.9610   36.2370    8.0400 O.2   132  LEU132     -0.2718
    172  CB        -7.1980   37.9980    5.1630 C.3   132  LEU132      0.0284
    173  CG        -8.5090   37.3900    4.6480 C.3   132  LEU132      0.0019
    174  CD1       -9.7220   38.0650    5.2750 C.3   132  LEU132      0.0001
    175  CD2       -8.5810   37.4660    3.1250 C.3   132  LEU132      0.0001
    176  N         -6.3890   35.5260    6.5820 N.am  133  ILE133     -0.1980
    177  CA        -6.4700   34.1130    6.9380 C.3   133  ILE133      0.1595
    178  C         -6.4310   33.8910    8.4470 C.2   133  ILE133      0.2287
    179  O         -7.2290   33.1290    8.9960 O.2   133  ILE133     -0.2864
    180  CB        -5.3030   33.3400    6.3070 C.3   133  ILE133      0.0276
    181  CG1       -5.1560   33.7290    4.8340 C.3   133  ILE133      0.0022
    182  CG2       -5.5050   31.8440    6.4660 C.3   133  ILE133      0.0022
    183  CD1       -3.7580   33.5590    4.3030 C.3   133  ILE133      0.0001
    184  N         -9.5140   34.7210   10.5030 N.3   136  ILE136     -0.1231
    185  CA       -10.4960   33.6570   10.3500 C.3   136  ILE136      0.1692
    186  C        -10.1990   32.5290   11.3280 C.2   136  ILE136      0.2592
    187  O        -11.1030   31.9960   11.9750 O.2   136  ILE136     -0.2718
    188  CB       -10.4770   33.1020    8.9210 C.3   136  ILE136      0.0266
    189  CG1      -10.7530   34.2260    7.9260 C.3   136  ILE136      0.0019
    190  CG2      -11.4990   31.9970    8.7600 C.3   136  ILE136      0.0020
    191  CD1      -10.2130   33.9480    6.5590 C.3   136  ILE136      0.0001
    192  N         -8.9250   32.1680   11.4260 N.am  137  PHE137     -0.1976
    193  CA        -8.4910   31.1580   12.3780 C.3   137  PHE137      0.1639
    194  C         -8.8100   31.6120   13.7970 C.2   137  PHE137      0.2290
    195  O         -9.3010   30.8280   14.6110 O.2   137  PHE137     -0.2864
    196  CB        -6.9900   30.9060   12.2370 C.3   137  PHE137      0.0560
    197  CG        -6.6330   29.8610   11.2110 C.ar  137  PHE137     -0.0200
    198  CD1       -6.7360   30.1230    9.8510 C.ar  137  PHE137     -0.0042
    199  CD2       -6.1660   28.6190   11.6150 C.ar  137  PHE137     -0.0042
    200  CE1       -6.3930   29.1560    8.9140 C.ar  137  PHE137     -0.0003
    201  CE2       -5.8200   27.6500   10.6840 C.ar  137  PHE137     -0.0003
    202  CZ        -5.9350   27.9190    9.3330 C.ar  137  PHE137     -0.0000
    203  N        -13.7930   39.8260    3.4290 N.3   215  HIS215     -0.1241
    204  CA       -13.2630   38.5700    2.9180 C.3   215  HIS215      0.1621
    205  C        -13.5370   38.4110    1.4240 C.2   215  HIS215      0.2264
    206  O        -12.6200   38.1500    0.6450 O.2   215  HIS215     -0.2867
    207  CB       -13.8640   37.3970    3.6900 C.3   215  HIS215      0.0745
    208  CG       -13.0810   36.1330    3.5880 C.ar  215  HIS215      0.0817
    209  ND1      -12.6520   35.6120    2.3820 N.ar  215  HIS215     -0.2268
    210  CD2      -12.6660   35.2650    4.5370 C.ar  215  HIS215      0.1154
    211  CE1      -12.0020   34.4900    2.5990 C.ar  215  HIS215      0.1986
    212  NE2      -11.9930   34.2500    3.8990 N.ar  215  HIS215     -0.2212
@<TRIPOS>BOND
     1    32    33    1
     2   148   146   ar
     3    38    39    1
     4    34    33    1
     5    34    35    2
     6   146   147   ar
     7   146   145    1
     8    33    36    1
     9    46    44   ar
    10    46    47   ar
    11    44    43   ar
    12   167   165    1
    13    36    37    1
    14    39    40    1
    15    39    42    1
    16    50    49    1
    17    50    51    2
    18   145   144    1
    19    47    45   ar
    20    48    40   am
    21    48    49    1
    22    52    49    1
    23    52    53    1
    24   163   162    2
    25    40    41    2
    26    43    45   ar
    27    43    42    1
    28    55    53    1
    29    56    57    1
    30   161   162    1
    31   161   160    1
    32   161   164    1
    33    53    54    1
    34   139   138   ar
    35   139   137   ar
    36   165   164    1
    37   165   166    1
    38   144   141    1
    39   138   136   ar
    40   137   135   ar
    41   206   205    2
    42    57    58    1
    43    57    60    1
    44    58    59    2
    45   141   142    1
    46   141   140    1
    47   143   142    2
    48   205   204    1
    49   136   134   ar
    50   135   134   ar
    51   140   131   am
    52    15    13   am
    53   134   133    1
    54   209   211   ar
    55   209   208   ar
    56   156   158   ar
    57   156   154   ar
    58   152   151    2
    59   211   212   ar
    60   151   150    1
    61   150   153    1
    62   150   149    1
    63   158   159   ar
    64   204   203    1
    65   204   207    1
    66   131   132    2
    67   131   130    1
    68    13    12    1
    69    13    14    2
    70   175   173    1
    71   153   154    1
    72    67    65    1
    73   154   155   ar
    74    12    11    1
    75   208   207    1
    76   208   210   ar
    77    66    65    1
    78   133   130    1
    79   212   210   ar
    80   130   129    1
    81   159   157   ar
    82    65    62    1
    83    10     9    2
    84   183   181    1
    85    22    21    1
    86   128   127   ar
    87   128   126   ar
    88   127   125   ar
    89   173   172    1
    90   173   174    1
    91   155   157   ar
    92    11     8    1
    93     8     9    1
    94     8     7    1
    95   181   180    1
    96    21    23    1
    97    21    20    1
    98     9    16   am
    99   172   169    1
   100   129   120   am
   101   126   124   ar
   102    62    61    1
   103    62    63    1
   104   125   123   ar
   105     7     3   am
   106    75    73    1
   107   121   120    2
   108    16    17    1
   109   120   119    1
   110   180   182    1
   111   180   177    1
   112    20    17    1
   113    17    18    1
   114    73    74    1
   115    73    72    1
   116    63    68   am
   117    63    64    2
   118   124   123   ar
   119   191   189    1
   120   176   177    1
   121   176   170   am
   122   123   122    1
   123   169   168    1
   124   169   170    1
   125    85    84    1
   126    68    69    1
   127   177   178    1
   128     3     4    2
   129     3     2    1
   130    84    86    1
   131    84    83    2
   132     1     2    1
   133   170   171    2
   134    82    83    1
   135    82    81    1
   136   119   122    1
   137   119   118    1
   138    69    72    1
   139    69    70    1
   140    18    19    2
   141   189   188    1
   142     2     5    1
   143   116   115    1
   144   114   113    2
   145    93    94    1
   146    93    92    1
   147   178   179    2
   148    81    80    1
   149    80    77    1
   150     6     5    1
   151   118   113   am
   152   117   115    1
   153   190   188    1
   154   113   112    1
   155    91    92    1
   156    91    88    1
   157   200   202   ar
   158   200   198   ar
   159   188   185    1
   160    70    71    2
   161   115   112    1
   162   202   201   ar
   163   110   107    1
   164    88    87    1
   165    88    89    1
   166    31    29    1
   167    87    78   am
   168   112   111    1
   169    78    77    1
   170    78    79    2
   171    77    76    1
   172   198   197   ar
   173    29    30    1
   174    29    28    1
   175   185   184    1
   176   185   186    1
   177   104   103    1
   178   201   199   ar
   179    89    90    2
   180   107   106    1
   181   107   108    1
   182    24    25    1
   183   109   108    2
   184    25    28    1
   185    25    26    1
   186   197   199   ar
   187   197   196    1
   188   186   192   am
   189   186   187    2
   190   103   105    1
   191   103   102    2
   192   106    97   am
   193   192   193    1
   194   101   102    1
   195   101   100    1
   196    27    26    2
   197   196   193    1
   198    99   100    1
   199    99    96    1
   200   193   194    1
   201    97    96    1
   202    97    98    2
   203    95    96    1
   204   194   195    2
