@<TRIPOS>MOLECULE
tmp/5k3nB00.pdb
 226 218 0 0 0
SMALL
GASTEIGER

@<TRIPOS>ATOM
      1  N         26.9200  -10.6440   19.9120 N.3    22  GLN22      -0.1231
      2  CA        26.3020   -9.7170   20.8590 C.3    22  GLN22       0.1698
      3  C         24.9290   -9.2240   20.3970 C.2    22  GLN22       0.2592
      4  O         23.9090   -9.5470   21.0060 O.2    22  GLN22      -0.2718
      5  CB        27.2390   -8.5390   21.1600 C.3    22  GLN22       0.0381
      6  CG        26.6900   -7.5380   22.1650 C.3    22  GLN22       0.0905
      7  CD        27.7030   -6.4790   22.5590 C.2    22  GLN22       0.2608
      8  OE1       28.8870   -6.5870   22.2410 O.2    22  GLN22      -0.2717
      9  NE2       27.2400   -5.4490   23.2580 N.am   22  GLN22      -0.0878
     10  N         24.9090   -8.4540   19.3150 N.am   23  LEU23      -0.1980
     11  CA        23.6750   -7.8530   18.8180 C.3    23  LEU23       0.1596
     12  C         23.0490   -8.6380   17.6580 C.2    23  LEU23       0.2287
     13  O         23.7340   -9.3760   16.9470 O.2    23  LEU23      -0.2864
     14  CB        23.9370   -6.4090   18.3850 C.3    23  LEU23       0.0297
     15  CG        24.5220   -5.4680   19.4370 C.3    23  LEU23       0.0022
     16  CD1       25.6990   -4.6960   18.8650 C.3    23  LEU23       0.0001
     17  CD2       23.4530   -4.5140   19.9370 C.3    23  LEU23       0.0001
     18  N         29.3180    9.6780   30.2010 N.3    53  TRP53      -0.1241
     19  CA        30.5570    8.9100   30.1980 C.3    53  TRP53       0.1605
     20  C         30.3760    7.6220   30.9660 C.2    53  TRP53       0.2264
     21  O         30.9510    6.5890   30.6300 O.2    53  TRP53      -0.2867
     22  CB        31.6840    9.7050   30.8360 C.3    53  TRP53       0.0550
     23  CG        32.2660   10.7070   29.9300 C.ar   53  TRP53       0.0003
     24  CD1       32.1400   12.0580   30.0170 C.ar   53  TRP53       0.0946
     25  CD2       33.0670   10.4500   28.7740 C.ar   53  TRP53       0.0152
     26  NE1       32.8180   12.6630   28.9900 N.ar   53  TRP53      -0.2442
     27  CE2       33.3970   11.6960   28.2110 C.ar   53  TRP53       0.0810
     28  CE3       33.5380    9.2870   28.1600 C.ar   53  TRP53       0.0012
     29  CZ2       34.1800   11.8140   27.0650 C.ar   53  TRP53       0.0191
     30  CZ3       34.3170    9.4050   27.0240 C.ar   53  TRP53       0.0001
     31  CH2       34.6290   10.6590   26.4870 C.ar   53  TRP53       0.0015
     32  N         28.0120    5.2040   28.9320 N.3    56  CYS56      -0.1235
     33  CA        28.7960    4.6750   27.8330 C.3    56  CYS56       0.1677
     34  C         29.7220    3.5850   28.3290 C.2    56  CYS56       0.2270
     35  O         29.6570    2.4540   27.8580 O.2    56  CYS56      -0.2867
     36  CB        29.6030    5.7920   27.1760 C.3    56  CYS56       0.0956
     37  SG        28.5870    7.0290   26.3470 S.3    56  CYS56      -0.0801
     38  N         27.9930   -0.0030   28.8430 N.3    59  HIS59      -0.1226
     39  CA        27.8000   -0.8180   27.6490 C.3    59  HIS59       0.1752
     40  C         29.1490   -1.1270   27.0550 C.2    59  HIS59       0.2595
     41  O         29.3910   -2.2350   26.5760 O.2    59  HIS59      -0.2718
     42  CB        27.0050   -0.0610   26.5920 C.3    59  HIS59       0.0759
     43  CG        25.7090    0.4920   27.0840 C.ar   59  HIS59       0.0818
     44  ND1       25.5870    1.7730   27.5770 N.ar   59  HIS59      -0.2268
     45  CD2       24.4770   -0.0600   27.1510 C.ar   59  HIS59       0.1154
     46  CE1       24.3310    1.9850   27.9300 C.ar   59  HIS59       0.1986
     47  NE2       23.6370    0.8900   27.6810 N.ar   59  HIS59      -0.2212
     48  N         30.0070   -0.1110   27.0830 N.am   60  LEU60      -0.1980
     49  CA        31.3590   -0.1950   26.5650 C.3    60  LEU60       0.1596
     50  C         32.0470   -1.3880   27.1750 C.2    60  LEU60       0.2287
     51  O         32.2290   -2.4080   26.5200 O.2    60  LEU60      -0.2864
     52  CB        32.1500    1.0600   26.9180 C.3    60  LEU60       0.0297
     53  CG        33.3770    1.3240   26.0650 C.3    60  LEU60       0.0022
     54  CD1       32.9440    1.4340   24.6140 C.3    60  LEU60       0.0001
     55  CD2       34.0830    2.5870   26.5420 C.3    60  LEU60       0.0001
     56  N         31.0750   -3.5520   28.9980 N.3    62  GLU62      -0.1231
     57  CA        30.2680   -4.7520   28.8580 C.3    62  GLU62       0.1699
     58  C         30.5630   -5.4720   27.5490 C.2    62  GLU62       0.2592
     59  O         30.8480   -6.6660   27.5390 O.2    62  GLU62      -0.2718
     60  CB        28.7900   -4.3990   28.9100 C.3    62  GLU62       0.0402
     61  CG        27.8880   -5.5480   28.5560 C.3    62  GLU62       0.1161
     62  CD        26.4680   -5.1000   28.3360 C.2    62  GLU62       0.3649
     63  OE1       26.2350   -3.8750   28.3070 O.co2  62  GLU62      -0.2457
     64  OE2       25.5880   -5.9720   28.1940 O.co2  62  GLU62      -0.2457
     65  N         30.4890   -4.7330   26.4470 N.am   63  ALA63      -0.1980
     66  CA        30.6100   -5.3110   25.1130 C.3    63  ALA63       0.1597
     67  C         31.9880   -5.9100   24.8500 C.2    63  ALA63       0.2287
     68  O         32.1240   -6.8730   24.0960 O.2    63  ALA63      -0.2864
     69  CB        30.2740   -4.2680   24.0580 C.3    63  ALA63       0.0319
     70  N         39.2380   -2.4460   22.1160 N.3    94  MET94      -0.1245
     71  CA        38.3210   -1.3480   21.8510 C.3    94  MET94       0.1570
     72  C         38.0600   -1.1790   20.3810 C.2    94  MET94       0.2261
     73  O         36.9930   -0.7340   19.9620 O.2    94  MET94      -0.2867
     74  CB        38.9360   -0.0560   22.3810 C.3    94  MET94       0.0387
     75  CG        38.9660    0.0370   23.8980 C.3    94  MET94       0.0595
     76  SD        37.3410    0.3780   24.5530 S.3    94  MET94      -0.1393
     77  CE        36.8970    1.7810   23.6050 C.3    94  MET94       0.0692
     78  N         35.4010   -3.2960   19.0890 N.3    97  VAL97      -0.1231
     79  CA        34.1270   -2.7370   19.5020 C.3    97  VAL97       0.1692
     80  C         33.6910   -1.6450   18.5350 C.2    97  VAL97       0.2591
     81  O         32.5460   -1.6220   18.0880 O.2    97  VAL97      -0.2718
     82  CB        34.2160   -2.1490   20.9170 C.3    97  VAL97       0.0266
     83  CG1       32.8360   -1.7190   21.3930 C.3    97  VAL97       0.0020
     84  CG2       34.8260   -3.1600   21.8600 C.3    97  VAL97       0.0020
     85  N         34.6150   -0.7450   18.2160 N.am   98  LEU98      -0.1980
     86  CA        34.3410    0.3420   17.2890 C.3    98  LEU98       0.1596
     87  C         33.9370   -0.2200   15.9410 C.2    98  LEU98       0.2287
     88  O         33.1050    0.3460   15.2300 O.2    98  LEU98      -0.2864
     89  CB        35.5790    1.2210   17.1270 C.3    98  LEU98       0.0297
     90  CG        35.4370    2.3780   16.1410 C.3    98  LEU98       0.0022
     91  CD1       34.1220    3.1060   16.3590 C.3    98  LEU98       0.0001
     92  CD2       36.5910    3.3380   16.3050 C.3    98  LEU98       0.0001
     93  N         30.3400   -1.4700   15.6210 N.3   101  MET101     -0.1245
     94  CA        29.4010   -0.3590   15.5960 C.3   101  MET101      0.1570
     95  C         28.9430    0.0990   14.2210 C.2   101  MET101      0.2261
     96  O         27.9870    0.8650   14.1120 O.2   101  MET101     -0.2867
     97  CB        29.9780    0.8230   16.3720 C.3   101  MET101      0.0387
     98  CG        30.2390    0.5100   17.8500 C.3   101  MET101      0.0595
     99  SD        28.8730   -0.2510   18.7330 S.3   101  MET101     -0.1393
    100  CE        27.5530    0.8180   18.2710 C.3   101  MET101      0.0692
    101  N         25.5310    1.5390   12.6940 N.3   105  TYR105     -0.1241
    102  CA        25.5500    2.8160   12.0050 C.3   105  TYR105      0.1605
    103  C         24.4720    2.8620   10.9540 C.2   105  TYR105      0.2264
    104  O         24.1110    1.8510   10.3550 O.2   105  TYR105     -0.2867
    105  CB        26.9020    3.0850   11.3570 C.3   105  TYR105      0.0534
    106  CG        27.0920    4.5280   10.9380 C.ar  105  TYR105     -0.0201
    107  CD1       27.2940    5.5220   11.8850 C.ar  105  TYR105     -0.0009
    108  CD2       27.0760    4.8960    9.6000 C.ar  105  TYR105     -0.0009
    109  CE1       27.4760    6.8390   11.5150 C.ar  105  TYR105      0.0417
    110  CE2       27.2570    6.2140    9.2210 C.ar  105  TYR105      0.0417
    111  CZ        27.4560    7.1830   10.1840 C.ar  105  TYR105      0.1957
    112  OH        27.6380    8.4970    9.8220 O.3   105  TYR105     -0.2866
    113  N         23.3440    6.3570   15.1230 N.3   112  VAL112     -0.1231
    114  CA        23.9180    5.1730   15.7420 C.3   112  VAL112      0.1692
    115  C         22.9720    4.6390   16.8040 C.2   112  VAL112      0.2592
    116  O         22.0980    5.3520   17.2940 O.2   112  VAL112     -0.2718
    117  CB        25.2790    5.4810   16.3820 C.3   112  VAL112      0.0266
    118  CG1       25.0820    6.1030   17.7450 C.3   112  VAL112      0.0020
    119  CG2       26.1200    4.2190   16.4860 C.3   112  VAL112      0.0020
    120  N         23.1590    3.3740   17.1570 N.am  113  PHE113     -0.1962
    121  CA        22.2770    2.6950   18.0910 C.3   113  PHE113      0.1771
    122  C         22.7120    2.8890   19.5320 C.2   113  PHE113      0.2620
    123  O         23.6860    2.2880   19.9850 O.2   113  PHE113     -0.2715
    124  CB        22.2430    1.2110   17.7750 C.3   113  PHE113      0.0574
    125  CG        21.2140    0.4650   18.5450 C.ar  113  PHE113     -0.0200
    126  CD1       19.8780    0.7660   18.3860 C.ar  113  PHE113     -0.0042
    127  CD2       21.5760   -0.5360   19.4250 C.ar  113  PHE113     -0.0042
    128  CE1       18.9160    0.0860   19.0860 C.ar  113  PHE113     -0.0003
    129  CE2       20.6180   -1.2260   20.1350 C.ar  113  PHE113     -0.0003
    130  CZ        19.2840   -0.9150   19.9640 C.ar  113  PHE113     -0.0000
    131  N         21.9760    3.7190   20.2590 N.am  114  PHE114     -0.1960
    132  CA        22.3160    3.9900   21.6450 C.3   114  PHE114      0.1771
    133  C         21.1420    3.7150   22.5610 C.2   114  PHE114      0.2619
    134  O         20.1430    4.4330   22.5280 O.2   114  PHE114     -0.2715
    135  CB        22.7710    5.4350   21.8130 C.3   114  PHE114      0.0574
    136  CG        23.5680    5.6700   23.0590 C.ar  114  PHE114     -0.0200
    137  CD1       24.9300    5.4270   23.0750 C.ar  114  PHE114     -0.0042
    138  CD2       22.9580    6.1200   24.2160 C.ar  114  PHE114     -0.0042
    139  CE1       25.6720    5.6360   24.2210 C.ar  114  PHE114     -0.0003
    140  CE2       23.6930    6.3320   25.3680 C.ar  114  PHE114     -0.0003
    141  CZ        25.0520    6.0890   25.3700 C.ar  114  PHE114     -0.0000
    142  N         21.2780    2.6760   23.3770 N.am  115  GLU115     -0.1977
    143  CA        20.2750    2.3420   24.3750 C.3   115  GLU115      0.1602
    144  C         18.9010    2.1600   23.7560 C.2   115  GLU115      0.2287
    145  O         17.9730    2.9120   24.0500 O.2   115  GLU115     -0.2864
    146  CB        20.2190    3.4210   25.4530 C.3   115  GLU115      0.0415
    147  CG        21.5070    3.5800   26.2270 C.3   115  GLU115      0.1163
    148  CD        21.3970    4.6310   27.3070 C.2   115  GLU115      0.3649
    149  OE1       20.3960    5.3740   27.3040 O.co2 115  GLU115     -0.2457
    150  OE2       22.3050    4.7100   28.1610 O.co2 115  GLU115     -0.2457
    151  N         25.3250   13.4340   21.9620 N.3   124  PHE124     -0.1241
    152  CA        26.4640   13.3930   22.8710 C.3   124  PHE124      0.1605
    153  C         27.0930   14.7720   22.9790 C.2   124  PHE124      0.2264
    154  O         28.3140   14.9110   23.0160 O.2   124  PHE124     -0.2867
    155  CB        27.5010   12.3990   22.3530 C.3   124  PHE124      0.0534
    156  CG        26.9450   11.0290   22.0930 C.ar  124  PHE124     -0.0203
    157  CD1       26.4460   10.6930   20.8450 C.ar  124  PHE124     -0.0042
    158  CD2       26.9040   10.0810   23.1030 C.ar  124  PHE124     -0.0042
    159  CE1       25.9260    9.4310   20.6090 C.ar  124  PHE124     -0.0003
    160  CE2       26.3850    8.8190   22.8710 C.ar  124  PHE124     -0.0003
    161  CZ        25.8970    8.4950   21.6230 C.ar  124  PHE124     -0.0000
    162  N         29.5670   15.8810   25.9920 N.3   127  LEU127     -0.1245
    163  CA        30.8640   15.2180   26.1360 C.3   127  LEU127      0.1561
    164  C         32.0700   16.0760   25.7430 C.2   127  LEU127      0.2260
    165  O         33.2090   15.7180   26.0340 O.2   127  LEU127     -0.2867
    166  CB        30.8780   13.8870   25.3870 C.3   127  LEU127      0.0270
    167  CG        29.8020   12.8970   25.8380 C.3   127  LEU127      0.0019
    168  CD1       30.0050   11.5460   25.1790 C.3   127  LEU127      0.0001
    169  CD2       29.8010   12.7620   27.3480 C.3   127  LEU127      0.0001
    170  N         33.9050   16.9470   23.1170 N.3   129  CYS129     -0.1235
    171  CA        34.9430   16.7030   22.1250 C.3   129  CYS129      0.1677
    172  C         34.3050   16.2930   20.8060 C.2   129  CYS129      0.2270
    173  O         34.3520   15.1290   20.4130 O.2   129  CYS129     -0.2867
    174  CB        35.9400   15.6540   22.6070 C.3   129  CYS129      0.0956
    175  SG        35.1940   14.2580   23.4690 S.3   129  CYS129     -0.0801
    176  N         36.3180   14.3540   18.1880 N.3   132  LEU132     -0.1231
    177  CA        36.4110   12.9140   18.3840 C.3   132  LEU132      0.1693
    178  C         35.1040   12.2020   18.0520 C.2   132  LEU132      0.2591
    179  O         35.1100   11.0990   17.5090 O.2   132  LEU132     -0.2718
    180  CB        36.8210   12.6100   19.8250 C.3   132  LEU132      0.0284
    181  CG        36.9720   11.1420   20.2210 C.3   132  LEU132      0.0019
    182  CD1       37.9610   10.4450   19.3060 C.3   132  LEU132      0.0001
    183  CD2       37.4160   11.0350   21.6690 C.3   132  LEU132      0.0001
    184  N         33.9850   12.8360   18.3840 N.am  133  ILE133     -0.1980
    185  CA        32.6720   12.2520   18.1360 C.3   133  ILE133      0.1595
    186  C         32.4110   12.1090   16.6440 C.2   133  ILE133      0.2287
    187  O         32.0510   11.0360   16.1590 O.2   133  ILE133     -0.2864
    188  CB        31.5520   13.1200   18.7360 C.3   133  ILE133      0.0276
    189  CG1       31.7360   13.2660   20.2450 C.3   133  ILE133      0.0022
    190  CG2       30.1890   12.5240   18.4230 C.3   133  ILE133      0.0022
    191  CD1       30.6720   14.1100   20.8970 C.3   133  ILE133      0.0001
    192  N         34.4710    9.6470   14.5180 N.3   136  ILE136     -0.1231
    193  CA        34.0130    8.2740   14.6550 C.3   136  ILE136      0.1692
    194  C         32.8320    8.0220   13.7270 C.2   136  ILE136      0.2592
    195  O         32.7480    6.9870   13.0660 O.2   136  ILE136     -0.2718
    196  CB        33.6120    7.9720   16.1050 C.3   136  ILE136      0.0266
    197  CG1       34.8610    7.9000   16.9830 C.3   136  ILE136      0.0019
    198  CG2       32.8320    6.6760   16.1900 C.3   136  ILE136      0.0020
    199  CD1       34.5950    7.4600   18.3930 C.3   136  ILE136      0.0001
    200  N         31.9240    8.9870   13.6740 N.am  137  PHE137     -0.1976
    201  CA        30.7830    8.9060   12.7770 C.3   137  PHE137      0.1639
    202  C         31.2260    8.8500   11.3200 C.2   137  PHE137      0.2290
    203  O         30.6150    8.1700   10.4960 O.2   137  PHE137     -0.2864
    204  CB        29.8450   10.0900   12.9940 C.3   137  PHE137      0.0560
    205  CG        28.7330    9.8010   13.9510 C.ar  137  PHE137     -0.0200
    206  CD1       28.8730    8.8090   14.8990 C.ar  137  PHE137     -0.0042
    207  CD2       27.5380   10.4950   13.8840 C.ar  137  PHE137     -0.0042
    208  CE1       27.8530    8.5230   15.7760 C.ar  137  PHE137     -0.0003
    209  CE2       26.5090   10.2100   14.7570 C.ar  137  PHE137     -0.0003
    210  CZ        26.6680    9.2250   15.7080 C.ar  137  PHE137     -0.0000
    211  N         32.4930    5.2290   10.7150 N.3   140  SER140     -0.1217
    212  CA        31.4740    4.2170   10.4860 C.3   140  SER140      0.1889
    213  C         30.7520    4.4790    9.1720 C.2   140  SER140      0.2288
    214  O         30.0880    3.5990    8.6250 O.2   140  SER140     -0.2866
    215  CB        30.4930    4.1640   11.6550 C.3   140  SER140      0.2089
    216  OG        31.1740    3.8410   12.8530 O.3   140  SER140     -0.2183
    217  N         39.8170    8.0290   22.5270 N.3   215  HIS215     -0.1241
    218  CA        38.5400    7.6740   23.1370 C.3   215  HIS215      0.1621
    219  C         38.7460    7.3420   24.6040 C.2   215  HIS215      0.2264
    220  O         38.0320    7.8390   25.4760 O.2   215  HIS215     -0.2867
    221  CB        37.9430    6.4640   22.4160 C.3   215  HIS215      0.0745
    222  CG        36.6380    5.9910   22.9830 C.ar  215  HIS215      0.0817
    223  ND1       36.5260    5.4040   24.2240 N.ar  215  HIS215     -0.2268
    224  CD2       35.3890    5.9880   22.4550 C.ar  215  HIS215      0.1154
    225  CE1       35.2650    5.0770   24.4460 C.ar  215  HIS215      0.1986
    226  NE2       34.5570    5.4170   23.3840 N.ar  215  HIS215     -0.2212
@<TRIPOS>BOND
     1   214   213    2
     2   213   212    1
     3   110   108   ar
     4   110   111   ar
     5   108   106   ar
     6   112   111    1
     7   111   109   ar
     8   104   103    2
     9   212   211    1
    10   212   215    1
    11   203   202    2
    12   106   105    1
    13   106   107   ar
    14   103   102    1
    15   202   201    1
    16   105   102    1
    17   109   107   ar
    18   215   216    1
    19   102   101    1
    20   201   204    1
    21   201   200    1
    22   204   205    1
    23   195   194    2
    24   200   194   am
    25   194   193    1
    26   207   205   ar
    27   207   209   ar
    28   205   206   ar
    29    96    95    2
    30    95    94    1
    31   192   193    1
    32   193   196    1
    33   209   210   ar
    34   206   208   ar
    35   113   114    1
    36    88    87    2
    37    94    93    1
    38    94    97    1
    39   210   208   ar
    40   114   117    1
    41   114   115    1
    42    87    86    1
    43   196   198    1
    44   196   197    1
    45    90    92    1
    46    90    91    1
    47    90    89    1
    48   187   186    2
    49    97    98    1
    50   117   119    1
    51   117   118    1
    52   186   185    1
    53   115   120   am
    54   115   116    2
    55    13    12    2
    56   197   199    1
    57    89    86    1
    58   120   121    1
    59    86    85    1
    60   179   178    2
    61    12    11    1
    62   124   121    1
    63   124   125    1
    64    98    99    1
    65   178   184   am
    66   178   177    1
    67    81    80    2
    68   121   122    1
    69   185   184    1
    70   185   188    1
    71   176   177    1
    72    85    80   am
    73   100    99    1
    74   177   180    1
    75    14    11    1
    76    14    15    1
    77   126   125   ar
    78   126   128   ar
    79   190   188    1
    80    80    79    1
    81   125   127   ar
    82   188   189    1
    83    11    10    1
    84    16    15    1
    85   128   130   ar
    86    78    79    1
    87   182   181    1
    88    10     3   am
    89   127   129   ar
    90    15    17    1
    91    79    82    1
    92   122   123    2
    93   122   131   am
    94   180   181    1
    95     1     2    1
    96    73    72    2
    97   130   129   ar
    98   181   183    1
    99   189   191    1
   100   131   132    1
   101    72    71    1
   102     3     2    1
   103     3     4    2
   104   173   172    2
   105   159   157   ar
   106   159   161   ar
   107   172   171    1
   108   157   156   ar
   109     2     5    1
   110    82    83    1
   111    82    84    1
   112     5     6    1
   113   161   160   ar
   114   132   135    1
   115   132   133    1
   116   135   136    1
   117    71    70    1
   118    71    74    1
   119   151   152    1
   120   156   155    1
   121   156   158   ar
   122   171   174    1
   123   171   170    1
   124     6     7    1
   125     8     7    2
   126   155   152    1
   127    74    75    1
   128   221   222    1
   129   221   218    1
   130   224   222   ar
   131   224   226   ar
   132   217   218    1
   133   134   133    2
   134     7     9   am
   135   133   142   am
   136   174   175    1
   137   152   153    1
   138   160   158   ar
   139   153   154    2
   140   222   223   ar
   141   136   137   ar
   142   136   138   ar
   143   137   139   ar
   144   218   219    1
   145   142   143    1
   146   226   225   ar
   147    77    76    1
   148   144   145    2
   149   144   143    1
   150    75    76    1
   151    69    66    1
   152    68    67    2
   153   138   140   ar
   154   139   141   ar
   155   223   225   ar
   156   143   146    1
   157   219   220    2
   158    54    53    1
   159    67    66    1
   160    66    65    1
   161   168   167    1
   162   140   141   ar
   163   166   167    1
   164   166   163    1
   165   146   147    1
   166   164   165    2
   167   164   163    1
   168   167   169    1
   169   162   163    1
   170    53    55    1
   171    53    52    1
   172   147   148    1
   173    37    36    1
   174    65    58   am
   175    31    30   ar
   176    31    29   ar
   177    51    50    2
   178    49    52    1
   179    49    48    1
   180    49    50    1
   181    41    40    2
   182    42    43    1
   183    42    39    1
   184    30    28   ar
   185    40    48   am
   186    40    39    1
   187    29    27   ar
   188    43    45   ar
   189    43    44   ar
   190    45    47   ar
   191    36    33    1
   192   149   148   ar
   193   148   150   ar
   194    59    58    2
   195    58    57    1
   196    44    46   ar
   197    39    38    1
   198    47    46   ar
   199    33    34    1
   200    33    32    1
   201    35    34    2
   202    28    25   ar
   203    64    62   ar
   204    27    25   ar
   205    27    26   ar
   206    63    62   ar
   207    62    61    1
   208    61    60    1
   209    25    23   ar
   210    57    60    1
   211    57    56    1
   212    26    24   ar
   213    23    24   ar
   214    23    22    1
   215    19    18    1
   216    19    22    1
   217    19    20    1
   218    21    20    2
