@<TRIPOS>MOLECULE
tmp/5k3sA01.pdb
 84 81 0 0 0
SMALL
GASTEIGER

@<TRIPOS>ATOM
      1  N        100.9190  -21.7730  -26.0670 N.3   265  MET265     -0.1230
      2  CA       102.1250  -22.3620  -25.4920 C.3   265  MET265      0.1702
      3  C        102.2450  -23.8390  -25.8470 C.2   265  MET265      0.2592
      4  O        103.3000  -24.2970  -26.2840 O.2   265  MET265     -0.2718
      5  CB       102.1350  -22.1840  -23.9710 C.3   265  MET265      0.0401
      6  CG       103.2940  -22.8750  -23.2690 C.3   265  MET265      0.0596
      7  SD       103.3980  -22.4790  -21.5110 S.3   265  MET265     -0.1393
      8  CE       103.7900  -20.7330  -21.5770 C.3   265  MET265      0.0692
      9  N        101.1570  -24.5770  -25.6630 N.am  266  HIS266     -0.1976
     10  CA       101.1270  -25.9890  -26.0210 C.3   266  HIS266      0.1656
     11  C        100.1790  -26.2310  -27.1900 C.2   266  HIS266      0.2291
     12  O         99.6020  -27.3110  -27.3210 O.2   266  HIS266     -0.2864
     13  CB       100.7200  -26.8410  -24.8180 C.3   266  HIS266      0.0771
     14  CG       101.7210  -26.8290  -23.7050 C.ar  266  HIS266      0.0820
     15  ND1      102.9760  -27.3840  -23.8270 N.ar  266  HIS266     -0.2267
     16  CD2      101.6500  -26.3300  -22.4470 C.ar  266  HIS266      0.1154
     17  CE1      103.6370  -27.2260  -22.6920 C.ar  266  HIS266      0.1986
     18  NE2      102.8550  -26.5910  -21.8410 N.ar  266  HIS266     -0.2212
     19  N         98.7780  -14.1470  -22.3810 N.3   290  ASP290     -0.1225
     20  CA       100.2100  -14.3590  -22.5650 C.3   290  ASP290      0.1805
     21  C        100.5090  -15.8190  -22.8960 C.2   290  ASP290      0.2597
     22  O        101.5010  -16.1270  -23.5570 O.2   290  ASP290     -0.2718
     23  CB       100.9710  -13.9350  -21.3040 C.3   290  ASP290      0.1424
     24  CG       102.3980  -13.5080  -21.5920 C.2   290  ASP290      0.3668
     25  OD1      102.9810  -13.9850  -22.5870 O.co2 290  ASP290     -0.2456
     26  OD2      102.9390  -12.6920  -20.8170 O.co2 290  ASP290     -0.2456
     27  N         99.6390  -16.7120  -22.4360 N.am  291  ARG291     -0.1979
     28  CA        99.8020  -18.1440  -22.6690 C.3   291  ARG291      0.1597
     29  C         99.6190  -18.4570  -24.1500 C.2   291  ARG291      0.2287
     30  O        100.1550  -19.4390  -24.6620 O.2   291  ARG291     -0.2864
     31  CB        98.8060  -18.9560  -21.8360 C.3   291  ARG291      0.0334
     32  CG        98.9730  -18.8350  -20.3290 C.3   291  ARG291      0.0492
     33  CD       100.3540  -19.2680  -19.8660 C.3   291  ARG291      0.2205
     34  NE       101.2610  -18.1340  -19.7200 N.pl3 291  ARG291     -0.0865
     35  CZ       102.4200  -18.1850  -19.0720 C.cat 291  ARG291      0.5346
     36  NH1      103.1830  -17.1030  -18.9890 N.pl3 291  ARG291      0.1354
     37  NH2      102.8160  -19.3160  -18.5050 N.pl3 291  ARG291      0.1354
     38  N         96.4410  -30.8630  -20.7660 N.3   404  MET404     -0.1245
     39  CA        96.8690  -30.4840  -22.1070 C.3   404  MET404      0.1570
     40  C         96.5800  -31.5870  -23.1170 C.2   404  MET404      0.2261
     41  O         96.0950  -31.3230  -24.2170 O.2   404  MET404     -0.2867
     42  CB        98.3600  -30.1440  -22.1140 C.3   404  MET404      0.0387
     43  CG        98.7490  -28.9940  -21.1950 C.3   404  MET404      0.0595
     44  SD        98.0910  -27.3960  -21.7160 S.3   404  MET404     -0.1393
     45  CE        96.5930  -27.2760  -20.7360 C.3   404  MET404      0.0692
     46  N        103.2680  -31.5600  -14.7260 N.3   484  MET484     -0.1230
     47  CA       103.5280  -30.2610  -15.3370 C.3   484  MET484      0.1702
     48  C        104.7460  -29.5810  -14.7190 C.2   484  MET484      0.2592
     49  O        105.6130  -29.0750  -15.4330 O.2   484  MET484     -0.2718
     50  CB       102.3020  -29.3560  -15.2090 C.3   484  MET484      0.0401
     51  CG       102.3870  -28.0510  -15.9960 C.3   484  MET484      0.0596
     52  SD       102.1400  -28.2550  -17.7730 S.3   484  MET484     -0.1393
     53  CE       103.8240  -28.4480  -18.3550 C.3   484  MET484      0.0692
     54  N        104.8060  -29.5740  -13.3910 N.am  485  VAL485     -0.1980
     55  CA       105.9420  -29.0030  -12.6770 C.3   485  VAL485      0.1595
     56  C        107.1860  -29.8490  -12.9200 C.2   485  VAL485      0.2287
     57  O        108.2920  -29.3270  -13.0700 O.2   485  VAL485     -0.2864
     58  CB       105.6670  -28.9010  -11.1640 C.3   485  VAL485      0.0276
     59  CG1      106.8550  -28.2790  -10.4430 C.3   485  VAL485      0.0022
     60  CG2      104.4060  -28.0900  -10.9130 C.3   485  VAL485      0.0022
     61  N        108.8790  -29.0050  -16.2960 N.3   488  TRP488     -0.1241
     62  CA       109.7010  -27.8030  -16.2210 C.3   488  TRP488      0.1605
     63  C        111.0080  -28.0730  -15.4820 C.2   488  TRP488      0.2264
     64  O        112.0390  -27.4750  -15.7900 O.2   488  TRP488     -0.2867
     65  CB       108.9310  -26.6710  -15.5390 C.3   488  TRP488      0.0550
     66  CG       107.9230  -26.0110  -16.4280 C.ar  488  TRP488      0.0003
     67  CD1      106.9470  -26.6240  -17.1590 C.ar  488  TRP488      0.0946
     68  CD2      107.7820  -24.6060  -16.6680 C.ar  488  TRP488      0.0152
     69  NE1      106.2130  -25.6880  -17.8460 N.ar  488  TRP488     -0.2442
     70  CE2      106.7050  -24.4410  -17.5620 C.ar  488  TRP488      0.0810
     71  CE3      108.4640  -23.4710  -16.2180 C.ar  488  TRP488      0.0012
     72  CZ2      106.2940  -23.1890  -18.0120 C.ar  488  TRP488      0.0191
     73  CZ3      108.0540  -22.2290  -16.6660 C.ar  488  TRP488      0.0001
     74  CH2      106.9790  -22.0980  -17.5540 C.ar  488  TRP488      0.0015
     75  N        107.6970  -19.4240  -21.9820 N.3   567  SER567     -0.1202
     76  CA       107.0290  -18.1930  -21.5740 C.3   567  SER567      0.2020
     77  C        107.7180  -16.9580  -22.1460 C.2   567  SER567      0.2619
     78  O        108.9360  -16.8110  -22.0450 O.2   567  SER567     -0.2717
     79  CB       106.9690  -18.1000  -20.0490 C.3   567  SER567      0.2103
     80  OG       108.2650  -18.1740  -19.4800 O.3   567  SER567     -0.2182
     81  N        106.9270  -16.0770  -22.7500 N.am  568  GLY568     -0.1956
     82  CA       107.4480  -14.8630  -23.3510 C.3   568  GLY568      0.1869
     83  C        108.2300  -15.1350  -24.6210 C.2   568  GLY568      0.2309
     84  O        108.9660  -14.2750  -25.1040 O.2   568  GLY568     -0.2863
@<TRIPOS>BOND
     1    12    11    2
     2    11    10    1
     3     4     3    2
     4     1     2    1
     5    10     9    1
     6    10    13    1
     7     3     9   am
     8     3     2    1
     9     2     5    1
    10    84    83    2
    11    13    14    1
    12    30    29    2
    13    83    82    1
    14    41    40    2
    15    29    28    1
    16     5     6    1
    17    15    14   ar
    18    15    17   ar
    19    14    16   ar
    20    22    21    2
    21    82    81    1
    22     6     7    1
    23    40    39    1
    24    21    20    1
    25    21    27   am
    26    81    77   am
    27    17    18   ar
    28    28    27    1
    29    28    31    1
    30    25    24   ar
    31    20    19    1
    32    20    23    1
    33    16    18   ar
    34    77    78    2
    35    77    76    1
    36    42    39    1
    37    42    43    1
    38    39    38    1
    39    75    76    1
    40    31    32    1
    41    44    43    1
    42    44    45    1
    43    24    23    1
    44    24    26   ar
    45     8     7    1
    46    76    79    1
    47    32    33    1
    48    79    80    1
    49    33    34    1
    50    34    35    2
    51    35    36    1
    52    35    37    1
    53    53    52    1
    54    72    70   ar
    55    72    74   ar
    56    69    70   ar
    57    69    67   ar
    58    52    51    1
    59    70    68   ar
    60    74    73   ar
    61    67    66   ar
    62    68    66   ar
    63    68    71   ar
    64    73    71   ar
    65    66    65    1
    66    61    62    1
    67    62    65    1
    68    62    63    1
    69    51    50    1
    70    64    63    2
    71    49    48    2
    72    47    50    1
    73    47    46    1
    74    47    48    1
    75    48    54   am
    76    54    55    1
    77    57    56    2
    78    56    55    1
    79    55    58    1
    80    58    60    1
    81    58    59    1
