@<TRIPOS>MOLECULE
tmp/5k3wA00.pdb
 154 147 0 0 0
SMALL
GASTEIGER

@<TRIPOS>ATOM
      1  N         -9.4340   60.5510    4.6540 N.3    46  PHE46      -0.1241
      2  CA       -10.3540   61.5190    5.2290 C.3    46  PHE46       0.1605
      3  C        -11.6690   61.4990    4.4710 C.2    46  PHE46       0.2264
      4  O        -11.7490   61.0040    3.3470 O.2    46  PHE46      -0.2867
      5  CB        -9.7720   62.9400    5.2170 C.3    46  PHE46       0.0534
      6  CG        -9.8700   63.6180    3.8840 C.ar   46  PHE46      -0.0203
      7  CD1       -8.9250   63.3560    2.8900 C.ar   46  PHE46      -0.0042
      8  CD2      -10.9180   64.5080    3.6150 C.ar   46  PHE46      -0.0042
      9  CE1       -9.0100   63.9660    1.6510 C.ar   46  PHE46      -0.0003
     10  CE2      -11.0110   65.1390    2.3790 C.ar   46  PHE46      -0.0003
     11  CZ       -10.0500   64.8740    1.3890 C.ar   46  PHE46      -0.0000
     12  N        -15.1280   64.4030    3.9680 N.3    48  THR48      -0.1218
     13  CA       -15.7670   65.6790    4.2620 C.3    48  THR48       0.1862
     14  C        -17.2540   65.5480    3.9680 C.2    48  THR48       0.2287
     15  O        -17.6280   65.1170    2.8730 O.2    48  THR48      -0.2866
     16  CB       -15.1600   66.8150    3.4410 C.3    48  THR48       0.1770
     17  OG1      -13.7460   66.8470    3.6640 O.3    48  THR48      -0.2211
     18  CG2      -15.7370   68.1270    3.8930 C.3    48  THR48       0.0375
     19  N        -20.6200   58.0980    2.9340 N.3    62  HIS62      -0.1241
     20  CA       -19.3240   58.6370    3.3330 C.3    62  HIS62       0.1621
     21  C        -18.5670   57.6410    4.2090 C.2    62  HIS62       0.2264
     22  O        -17.3670   57.4120    4.0100 O.2    62  HIS62      -0.2867
     23  CB       -19.4870   59.9770    4.0650 C.3    62  HIS62       0.0745
     24  CG       -19.7280   61.1540    3.1610 C.ar   62  HIS62       0.0817
     25  ND1      -18.7340   61.7290    2.3940 N.ar   62  HIS62      -0.2268
     26  CD2      -20.8470   61.8780    2.9200 C.ar   62  HIS62       0.1154
     27  CE1      -19.2320   62.7420    1.7060 C.ar   62  HIS62       0.1986
     28  NE2      -20.5110   62.8580    2.0130 N.ar   62  HIS62      -0.2212
     29  N        -17.1810   54.8470    2.1970 N.3    65  ARG65      -0.1245
     30  CA       -16.0320   55.2420    1.3970 C.3    65  ARG65       0.1563
     31  C        -14.8140   55.5050    2.2660 C.2    65  ARG65       0.2260
     32  O        -13.6860   55.2570    1.8310 O.2    65  ARG65      -0.2867
     33  CB       -16.3650   56.4680    0.5410 C.3    65  ARG65       0.0307
     34  CG       -15.3080   56.7750   -0.5100 C.3    65  ARG65       0.0489
     35  CD       -15.6920   57.9600   -1.3900 C.3    65  ARG65       0.2205
     36  NE       -15.7740   59.2130   -0.6460 N.pl3  65  ARG65      -0.0865
     37  CZ       -16.2810   60.3470   -1.1300 C.cat  65  ARG65       0.5346
     38  NH1      -16.7600   60.3980   -2.3670 N.pl3  65  ARG65       0.1354
     39  NH2      -16.3050   61.4380   -0.3760 N.pl3  65  ARG65       0.1354
     40  N         -9.2820   58.5230   -1.0170 N.3   164  LYS164     -0.1245
     41  CA        -9.4190   59.8810   -0.4820 C.3   164  LYS164      0.1561
     42  C         -8.4010   60.0360    0.6400 C.2   164  LYS164      0.2260
     43  O         -8.7010   59.8690    1.8280 O.2   164  LYS164     -0.2867
     44  CB       -10.8370   60.1110    0.0050 C.3   164  LYS164      0.0271
     45  CG       -11.3370   61.5250   -0.0980 C.3   164  LYS164      0.0035
     46  CD       -12.8040   61.5580    0.3130 C.3   164  LYS164      0.0206
     47  CE       -13.2940   62.9750    0.4750 C.3   164  LYS164      0.1093
     48  NZ       -12.8950   63.7320   -0.7000 N.3   164  LYS164     -0.1314
     49  N         -2.5880   65.2140   -0.4570 N.3   168  TYR168     -0.1241
     50  CA        -3.2810   66.0390   -1.4400 C.3   168  TYR168      0.1605
     51  C         -2.4580   67.2410   -1.8920 C.2   168  TYR168      0.2264
     52  O         -3.0060   68.1750   -2.4870 O.2   168  TYR168     -0.2867
     53  CB        -4.6270   66.5040   -0.8860 C.3   168  TYR168      0.0534
     54  CG        -5.8130   65.6980   -1.3720 C.ar  168  TYR168     -0.0201
     55  CD1       -5.7720   64.3060   -1.4090 C.ar  168  TYR168     -0.0009
     56  CD2       -6.9890   66.3300   -1.7730 C.ar  168  TYR168     -0.0009
     57  CE1       -6.8670   63.5660   -1.8520 C.ar  168  TYR168      0.0417
     58  CE2       -8.0820   65.6040   -2.2200 C.ar  168  TYR168      0.0417
     59  CZ        -8.0190   64.2200   -2.2530 C.ar  168  TYR168      0.1957
     60  OH        -9.1140   63.4860   -2.6880 O.3   168  TYR168     -0.2866
     61  N         -3.2120   67.9260   -5.4170 N.3   171  ASN171     -0.1240
     62  CA        -4.5460   68.4540   -5.7160 C.3   171  ASN171      0.1653
     63  C         -4.5820   69.9550   -5.4800 C.2   171  ASN171      0.2266
     64  O         -5.1590   70.7030   -6.2780 O.2   171  ASN171     -0.2867
     65  CB        -5.6430   67.7490   -4.8960 C.3   171  ASN171      0.1155
     66  CG        -5.4770   66.2290   -4.8700 C.2   171  ASN171      0.2627
     67  OD1       -4.3940   65.7210   -4.5640 O.2   171  ASN171     -0.2716
     68  ND2       -6.5400   65.5050   -5.1710 N.am  171  ASN171     -0.0877
     69  N        -11.5400   63.4900  -13.0470 N.3   197  GLU197     -0.1231
     70  CA       -12.2430   64.1130  -11.9290 C.3   197  GLU197      0.1699
     71  C        -11.5450   65.4360  -11.6340 C.2   197  GLU197      0.2593
     72  O        -10.5370   65.7840  -12.2580 O.2   197  GLU197     -0.2718
     73  CB       -12.2570   63.2070  -10.6910 C.3   197  GLU197      0.0402
     74  CG       -10.9650   63.2200   -9.8420 C.3   197  GLU197      0.1161
     75  CD       -10.9160   62.0770   -8.8070 C.2   197  GLU197      0.3649
     76  OE1      -11.9870   61.7320   -8.2520 O.co2 197  GLU197     -0.2457
     77  OE2       -9.8150   61.5100   -8.5590 O.co2 197  GLU197     -0.2457
     78  N        -12.0960   66.1760  -10.6860 N.am  198  GLY198     -0.1943
     79  CA       -11.4350   67.3400  -10.1570 C.3   198  GLY198      0.1998
     80  C        -10.6000   66.9610   -8.9540 C.2   198  GLY198      0.2481
     81  O        -10.7480   65.8790   -8.3830 O.2   198  GLY198     -0.2729
     82  N         -9.6850   67.8370   -8.5530 N.am  199  PRO199     -0.2715
     83  CA        -8.8820   67.5390   -7.3630 C.3   199  PRO199      0.1536
     84  C         -9.7230   67.3910   -6.1130 C.2   199  PRO199      0.2599
     85  O         -9.2520   66.8020   -5.1310 O.2   199  PRO199     -0.2715
     86  CB        -7.9320   68.7410   -7.2680 C.3   199  PRO199      0.0310
     87  CG        -8.6180   69.8150   -8.0130 C.3   199  PRO199      0.0237
     88  CD        -9.3610   69.1460   -9.1300 C.3   199  PRO199      0.0939
     89  N        -10.9580   67.9070   -6.1110 N.am  200  THR200     -0.1937
     90  CA       -11.8200   67.7420   -4.9450 C.3   200  THR200      0.2028
     91  C        -13.2600   67.4130   -5.3080 C.2   200  THR200      0.2643
     92  O        -14.1390   67.5610   -4.4550 O.2   200  THR200     -0.2714
     93  CB       -11.8430   69.0100   -4.0860 C.3   200  THR200      0.1808
     94  OG1      -12.2330   70.1250   -4.9040 O.3   200  THR200     -0.2208
     95  CG2      -10.4770   69.2690   -3.4730 C.3   200  THR200      0.0379
     96  N        -13.5310   66.9830   -6.5390 N.am  201  SER201     -0.1935
     97  CA       -14.8990   66.9290   -7.0340 C.3   201  SER201      0.2055
     98  C        -14.9870   65.9170   -8.1620 C.2   201  SER201      0.2643
     99  O        -13.9770   65.4490   -8.6850 O.2   201  SER201     -0.2714
    100  CB       -15.3490   68.2950   -7.5430 C.3   201  SER201      0.2130
    101  OG       -14.5540   68.6340   -8.6650 O.3   201  SER201     -0.2179
    102  N        -16.2140   65.6030   -8.5450 N.am  202  ASN202     -0.1971
    103  CA       -16.4760   64.7930   -9.7190 C.3   202  ASN202      0.1688
    104  C        -17.1300   65.6380  -10.8000 C.2   202  ASN202      0.2292
    105  O        -17.7110   66.6910  -10.5290 O.2   202  ASN202     -0.2864
    106  CB       -17.3570   63.5930   -9.3780 C.3   202  ASN202      0.1181
    107  CG       -16.6600   62.6280   -8.4570 C.2   202  ASN202      0.2629
    108  OD1      -16.8580   62.6590   -7.2470 O.2   202  ASN202     -0.2716
    109  ND2      -15.8110   61.7750   -9.0260 N.am  202  ASN202     -0.0877
    110  N        -12.5290   58.9300   -7.2800 N.3   221  LEU221     -0.1245
    111  CA       -13.5020   58.6910   -6.2250 C.3   221  LEU221      0.1561
    112  C        -14.8900   58.4790   -6.8120 C.2   221  LEU221      0.2260
    113  O        -15.2580   59.0980   -7.8110 O.2   221  LEU221     -0.2867
    114  CB       -13.5410   59.8650   -5.2450 C.3   221  LEU221      0.0270
    115  CG       -12.5740   59.8610   -4.0610 C.3   221  LEU221      0.0019
    116  CD1      -11.1370   59.7940   -4.4950 C.3   221  LEU221      0.0001
    117  CD2      -12.7920   61.1160   -3.2720 C.3   221  LEU221      0.0001
    118  N        -18.1880   59.6660   -6.1250 N.3   223  GLY223     -0.1210
    119  CA       -18.6350   60.7980   -5.3350 C.3   223  GLY223      0.1956
    120  C        -20.0070   60.5540   -4.7270 C.2   223  GLY223      0.2613
    121  O        -20.9330   60.0790   -5.3850 O.2   223  GLY223     -0.2717
    122  N        -20.1340   60.8840   -3.4460 N.am  224  THR224     -0.1938
    123  CA       -21.4670   60.8520   -2.8650 C.3   224  THR224      0.2028
    124  C        -22.3690   61.8960   -3.5200 C.2   224  THR224      0.2642
    125  O        -23.5560   61.6320   -3.7340 O.2   224  THR224     -0.2714
    126  CB       -21.4040   61.0260   -1.3420 C.3   224  THR224      0.1808
    127  OG1      -20.9470   62.3380   -0.9940 O.3   224  THR224     -0.2208
    128  CG2      -20.4760   59.9970   -0.7270 C.3   224  THR224      0.0379
    129  N        -21.8230   63.0540   -3.9100 N.am  225  THR225     -0.1950
    130  CA       -22.6600   64.0770   -4.5410 C.3   225  THR225      0.1897
    131  C        -23.0840   63.6660   -5.9470 C.2   225  THR225      0.2313
    132  O        -24.2490   63.8400   -6.3260 O.2   225  THR225     -0.2863
    133  CB       -21.9220   65.4170   -4.5760 C.3   225  THR225      0.1794
    134  OG1      -21.3950   65.6970   -3.2780 O.3   225  THR225     -0.2208
    135  CG2      -22.8660   66.5490   -4.9780 C.3   225  THR225      0.0378
    136  N        -19.1060   68.5740   -8.9960 N.3   259  VAL259     -0.1231
    137  CA       -19.9480   68.3300   -7.8250 C.3   259  VAL259      0.1692
    138  C        -19.1050   67.7400   -6.6980 C.2   259  VAL259      0.2593
    139  O        -18.1760   66.9620   -6.9380 O.2   259  VAL259     -0.2718
    140  CB       -21.1400   67.4080   -8.1720 C.3   259  VAL259      0.0266
    141  CG1      -21.9520   68.0080   -9.3040 C.3   259  VAL259      0.0020
    142  CG2      -20.6550   65.9910   -8.5330 C.3   259  VAL259      0.0020
    143  N        -19.4260   68.1230   -5.4690 N.am  260  SER260     -0.1938
    144  CA       -18.7260   67.6490   -4.2800 C.3   260  SER260      0.2055
    145  C        -19.5860   68.0080   -3.0740 C.2   260  SER260      0.2643
    146  O        -20.5350   68.7910   -3.1840 O.2   260  SER260     -0.2714
    147  CB       -17.3190   68.2520   -4.1730 C.3   260  SER260      0.2130
    148  OG       -17.3650   69.6520   -3.9950 O.3   260  SER260     -0.2179
    149  N        -19.2350   67.4370   -1.9130 N.am  261  SER261     -0.1949
    150  CA       -20.1700   67.4090   -0.7860 C.3   261  SER261      0.1924
    151  C        -20.5160   68.8020   -0.2760 C.2   261  SER261      0.2314
    152  O        -21.6900   69.0940   -0.0230 O.2   261  SER261     -0.2863
    153  CB       -19.6170   66.5710    0.3620 C.3   261  SER261      0.2116
    154  OG       -19.7000   65.1970    0.0650 O.3   261  SER261     -0.2180
@<TRIPOS>BOND
     1    69    70    1
     2    72    71    2
     3    70    71    1
     4    70    73    1
     5    71    78   am
     6   104   105    2
     7   104   103    1
     8    73    74    1
     9    78    79    1
    10    79    80    1
    11    74    75    1
    12   103   106    1
    13   103   102    1
    14   106   107    1
    15   141   140    1
    16    88    82    1
    17    88    87    1
    18   109   107   am
    19   136   137    1
    20    80    82   am
    21    80    81    2
    22    75    77   ar
    23    75    76   ar
    24    99    98    2
    25   101   100    1
    26    82    83    1
    27   102    98   am
    28   142   140    1
    29   107   108    2
    30   140   137    1
    31    98    97    1
    32    87    86    1
    33   137   138    1
    34   113   112    2
    35   100    97    1
    36    83    86    1
    37    83    84    1
    38   110   111    1
    39    97    96    1
    40   139   138    2
    41   112   111    1
    42   138   143   am
    43    96    91   am
    44   132   131    2
    45    64    63    2
    46   111   114    1
    47   118   119    1
    48    84    89   am
    49    84    85    2
    50    89    90    1
    51   131   130    1
    52    62    63    1
    53    62    61    1
    54    62    65    1
    55   143   144    1
    56   121   120    2
    57   119   120    1
    58    91    90    1
    59    91    92    2
    60   114   115    1
    61    68    66   am
    62   135   133    1
    63    90    93    1
    64    94    93    1
    65    65    66    1
    66    66    67    2
    67   120   122   am
    68   133   130    1
    69   133   134    1
    70   130   129    1
    71   116   115    1
    72   144   147    1
    73   144   145    1
    74   147   148    1
    75    93    95    1
    76   115   117    1
    77   129   124   am
    78   125   124    2
    79   124   123    1
    80   122   123    1
    81   146   145    2
    82   145   149   am
    83   123   126    1
    84    60    59    1
    85    52    51    2
    86    38    37    1
    87    59    58   ar
    88    59    57   ar
    89    58    56   ar
    90   149   150    1
    91    51    50    1
    92    57    55   ar
    93    56    54   ar
    94    50    53    1
    95    50    49    1
    96    55    54   ar
    97    35    36    1
    98    35    34    1
    99    54    53    1
   100   126   127    1
   101   126   128    1
   102    37    36    2
   103    37    39    1
   104    40    41    1
   105   150   151    1
   106   150   153    1
   107    48    47    1
   108    34    33    1
   109    41    44    1
   110    41    42    1
   111   151   152    2
   112    45    44    1
   113    45    46    1
   114   154   153    1
   115    46    47    1
   116    33    30    1
   117    42    43    2
   118    11     9   ar
   119    11    10   ar
   120    30    29    1
   121    30    31    1
   122     9     7   ar
   123    27    28   ar
   124    27    25   ar
   125    32    31    2
   126    28    26   ar
   127    10     8   ar
   128    25    24   ar
   129    15    14    2
   130     7     6   ar
   131    26    24   ar
   132    19    20    1
   133    24    23    1
   134    20    23    1
   135    20    21    1
   136     4     3    2
   137    16    17    1
   138    16    18    1
   139    16    13    1
   140     8     6   ar
   141     6     5    1
   142    12    13    1
   143    14    13    1
   144    22    21    2
   145     3     2    1
   146     1     2    1
   147     5     2    1
