@<TRIPOS>MOLECULE
tmp/5k3yA01.pdb
 185 176 0 0 0
SMALL
GASTEIGER

@<TRIPOS>ATOM
      1  N         16.7310    5.0790   -4.7120 N.3    10  ARG10      -0.1245
      2  CA        15.9150    3.9790   -5.2380 C.3    10  ARG10       0.1563
      3  C         14.5380    3.9120   -4.5610 C.2    10  ARG10       0.2260
      4  O         14.4060    4.4180   -3.4440 O.2    10  ARG10      -0.2867
      5  CB        16.6520    2.6180   -5.0680 C.3    10  ARG10       0.0307
      6  CG        16.9970    2.2270   -3.6260 C.3    10  ARG10       0.0489
      7  CD        17.6490    0.8580   -3.5630 C.3    10  ARG10       0.2205
      8  NE        18.3520    0.6440   -2.2960 N.pl3  10  ARG10      -0.0865
      9  CZ        17.8430    0.0030   -1.2480 C.cat  10  ARG10       0.5346
     10  NH1       18.5580   -0.1410   -0.1400 N.pl3  10  ARG10       0.1354
     11  NH2       16.6170   -0.5050   -1.3010 N.pl3  10  ARG10       0.1354
     12  N         11.6110    2.1940   -2.2600 N.3    12  LEU12      -0.1231
     13  CA        11.6120    1.2330   -1.1520 C.3    12  LEU12       0.1693
     14  C         10.3380    0.3840   -1.1470 C.2    12  LEU12       0.2593
     15  O         10.2950   -0.6700   -0.5080 O.2    12  LEU12      -0.2718
     16  CB        11.8270    1.9300    0.2080 C.3    12  LEU12       0.0284
     17  CG        13.2130    2.5490    0.4480 C.3    12  LEU12       0.0019
     18  CD1       13.2240    3.3790    1.7120 C.3    12  LEU12       0.0001
     19  CD2       14.3300    1.4790    0.4890 C.3    12  LEU12       0.0001
     20  N          9.3280    0.8400   -1.8780 N.am   13  GLY13      -0.1942
     21  CA         8.0580    0.1430   -2.0000 C.3    13  GLY13       0.2014
     22  C          6.8600    1.0610   -1.9630 C.2    13  GLY13       0.2639
     23  O          7.0070    2.2840   -1.8690 O.2    13  GLY13      -0.2714
     24  N          5.6660    0.4640   -2.0280 N.am   14  LYS14      -0.1963
     25  CA         4.3970    1.1830   -2.0140 C.3    14  LYS14       0.1728
     26  C          3.7740    1.1440   -0.6170 C.2    14  LYS14       0.2617
     27  O          3.5470    0.0650   -0.0700 O.2    14  LYS14      -0.2715
     28  CB         3.4370    0.5940   -3.0630 C.3    14  LYS14       0.0311
     29  CG         2.1970    1.4520   -3.3370 C.3    14  LYS14       0.0038
     30  CD         1.1940    0.7520   -4.2590 C.3    14  LYS14       0.0206
     31  CE         1.4840    0.9590   -5.7300 C.3    14  LYS14       0.1093
     32  NZ         0.5130    0.2340   -6.5920 N.3    14  LYS14      -0.1314
     33  N          3.5220    2.3260   -0.0630 N.am   15  GLY15      -0.1940
     34  CA         2.8680    2.4970    1.2290 C.3    15  GLY15       0.2014
     35  C          1.3660    2.6100    1.0510 C.2    15  GLY15       0.2638
     36  O          0.8690    2.5140   -0.0770 O.2    15  GLY15      -0.2714
     37  N          0.6310    2.8320    2.1590 N.am   16  LYS16      -0.1977
     38  CA        -0.8340    2.9310    2.1790 C.3    16  LYS16       0.1596
     39  C         -1.4040    3.9760    1.2190 C.2    16  LYS16       0.2287
     40  O         -2.3350    3.6590    0.4710 O.2    16  LYS16      -0.2864
     41  CB        -1.3570    3.1560    3.6040 C.3    16  LYS16       0.0298
     42  CG        -1.4660    1.8680    4.4080 C.3    16  LYS16       0.0038
     43  CD        -1.8880    2.1300    5.8470 C.3    16  LYS16       0.0206
     44  CE        -1.6890    0.9270    6.7390 C.3    16  LYS16       0.1093
     45  NZ        -0.2510    0.6810    7.0380 N.3    16  LYS16      -0.1314
     46  N          7.3250    5.1510   -1.3670 N.3    20  VAL20      -0.1245
     47  CA         8.4140    5.5360   -0.4810 C.3    20  VAL20       0.1561
     48  C          9.7250    5.3680   -1.2280 C.2    20  VAL20       0.2260
     49  O          9.9140    4.3690   -1.9210 O.2    20  VAL20      -0.2867
     50  CB         8.3900    4.7220    0.8410 C.3    20  VAL20       0.0252
     51  CG1        9.5550    5.1080    1.7550 C.3    20  VAL20       0.0019
     52  CG2        7.0560    4.8960    1.5750 C.3    20  VAL20       0.0019
     53  N         14.1160    8.3880    4.3430 N.3    33  ALA33      -0.1245
     54  CA        13.0620    7.8630    3.4880 C.3    33  ALA33       0.1562
     55  C         12.1360    9.0200    3.1430 C.2    33  ALA33       0.2260
     56  O         11.8650    9.8830    3.9850 O.2    33  ALA33      -0.2867
     57  CB        12.2870    6.7670    4.2080 C.3    33  ALA33       0.0290
     58  N          8.3630    9.7570    1.7030 N.3    35  LYS35      -0.1245
     59  CA         7.0470    9.2420    1.3390 C.3    35  LYS35       0.1561
     60  C          6.3720   10.3180    0.4830 C.2    35  LYS35       0.2260
     61  O          6.2540   11.4620    0.9210 O.2    35  LYS35      -0.2867
     62  CB         6.2080    8.8850    2.5740 C.3    35  LYS35       0.0271
     63  CG         4.9190    8.1440    2.2250 C.3    35  LYS35       0.0035
     64  CD         4.3040    7.4650    3.4470 C.3    35  LYS35       0.0206
     65  CE         3.0560    6.6930    3.0860 C.3    35  LYS35       0.1093
     66  NZ         2.4480    6.0390    4.2750 N.3    35  LYS35      -0.1314
     67  N          9.4380    5.3790   14.6320 N.3    67  LEU67      -0.1245
     68  CA        10.0240    5.9450   13.4210 C.3    67  LEU67       0.1561
     69  C          9.8490    7.4780   13.4100 C.2    67  LEU67       0.2260
     70  O          8.7340    7.9760   13.5590 O.2    67  LEU67      -0.2867
     71  CB         9.4130    5.2960   12.1690 C.3    67  LEU67       0.0270
     72  CG        10.2320    5.4820   10.8950 C.3    67  LEU67       0.0019
     73  CD1       11.4300    4.5190   10.8610 C.3    67  LEU67       0.0001
     74  CD2        9.3740    5.3060    9.6840 C.3    67  LEU67       0.0001
     75  N         11.1100   11.0380    6.4510 N.3    83  LEU83      -0.1231
     76  CA        11.0680   10.0270    7.4940 C.3    83  LEU83       0.1693
     77  C         12.3750    9.3500    7.7450 C.2    83  LEU83       0.2592
     78  O         13.2240    9.2640    6.8630 O.2    83  LEU83      -0.2718
     79  CB        10.0160    8.9680    7.1290 C.3    83  LEU83       0.0284
     80  CG         8.5510    9.4220    7.1160 C.3    83  LEU83       0.0019
     81  CD1        7.7500    8.6170    6.1220 C.3    83  LEU83       0.0001
     82  CD2        7.9400    9.3300    8.4960 C.3    83  LEU83       0.0001
     83  N         12.5210    8.8100    8.9530 N.am   84  GLU84      -0.1966
     84  CA        13.7060    8.0540    9.3060 C.3    84  GLU84       0.1733
     85  C         13.7990    6.8050    8.4150 C.2    84  GLU84       0.2616
     86  O         12.7900    6.1310    8.1950 O.2    84  GLU84      -0.2715
     87  CB        13.5890    7.6570   10.7840 C.3    84  GLU84       0.0429
     88  CG        14.6670    6.7140   11.2880 C.3    84  GLU84       0.1163
     89  CD        14.5080    6.2960   12.7370 C.2    84  GLU84       0.3649
     90  OE1       15.3730    5.5290   13.2160 O.co2  84  GLU84      -0.2457
     91  OE2       13.5400    6.7380   13.3980 O.co2  84  GLU84      -0.2457
     92  N         14.9990    6.5180    7.8790 N.am   85  PHE85      -0.1960
     93  CA        15.1950    5.3070    7.0930 C.3    85  PHE85       0.1771
     94  C         15.5000    4.1530    8.0650 C.2    85  PHE85       0.2619
     95  O         16.4220    4.2740    8.8800 O.2    85  PHE85      -0.2715
     96  CB        16.3530    5.4790    6.0790 C.3    85  PHE85       0.0574
     97  CG        16.7390    4.2240    5.3250 C.ar   85  PHE85      -0.0200
     98  CD1       15.7900    3.4990    4.6090 C.ar   85  PHE85      -0.0042
     99  CD2       18.0590    3.7860    5.3000 C.ar   85  PHE85      -0.0042
    100  CE1       16.1450    2.3350    3.9220 C.ar   85  PHE85      -0.0003
    101  CE2       18.4160    2.6330    4.5930 C.ar   85  PHE85      -0.0003
    102  CZ        17.4590    1.9210    3.9030 C.ar   85  PHE85      -0.0000
    103  N         14.7000    3.0640    8.0090 N.am   86  ALA86      -0.1964
    104  CA        14.9160    1.8600    8.8250 C.3    86  ALA86       0.1713
    105  C         15.6680    0.8640    7.9140 C.2    86  ALA86       0.2458
    106  O         15.0480    0.2770    7.0230 O.2    86  ALA86      -0.2730
    107  CB        13.5830    1.2860    9.2790 C.3    86  ALA86       0.0333
    108  N         17.0120    0.7230    8.0620 N.am   87  PRO87      -0.2716
    109  CA        17.7860   -0.0840    7.0950 C.3    87  PRO87       0.1536
    110  C         17.4400   -1.5610    6.9760 C.2    87  PRO87       0.2598
    111  O         17.6850   -2.1350    5.9060 O.2    87  PRO87      -0.2715
    112  CB        19.2370    0.1050    7.5460 C.3    87  PRO87       0.0310
    113  CG        19.2330    1.3860    8.3150 C.3    87  PRO87       0.0237
    114  CD        17.9070    1.3930    9.0240 C.3    87  PRO87       0.0939
    115  N         16.8930   -2.1820    8.0380 N.am   88  ARG88      -0.1964
    116  CA        16.5730   -3.6030    7.9660 C.3    88  ARG88       0.1729
    117  C         15.1320   -3.8840    7.5060 C.2    88  ARG88       0.2617
    118  O         14.7220   -5.0410    7.4410 O.2    88  ARG88      -0.2715
    119  CB        16.9240   -4.3200    9.2730 C.3    88  ARG88       0.0348
    120  CG        18.4300   -4.4690    9.4400 C.3    88  ARG88       0.0492
    121  CD        18.7590   -5.3830   10.5950 C.3    88  ARG88       0.2205
    122  NE        20.1710   -5.3080   10.9670 N.pl3  88  ARG88      -0.0865
    123  CZ        20.7140   -5.9830   11.9760 C.cat  88  ARG88       0.5346
    124  NH1       19.9700   -6.7980   12.7160 N.pl3  88  ARG88       0.1354
    125  NH2       22.0040   -5.8520   12.2510 N.pl3  88  ARG88       0.1354
    126  N         14.4080   -2.8320    7.1300 N.am   89  GLY89      -0.1940
    127  CA        13.0780   -2.9270    6.5470 C.3    89  GLY89       0.2014
    128  C         11.9440   -3.4480    7.3910 C.2    89  GLY89       0.2638
    129  O         11.8750   -3.1840    8.5890 O.2    89  GLY89      -0.2714
    130  N         11.0260   -4.1670    6.7300 N.am   90  GLU90      -0.1977
    131  CA         9.7760   -4.6750    7.2840 C.3    90  GLU90       0.1602
    132  C          9.9380   -5.8530    8.2350 C.2    90  GLU90       0.2287
    133  O         10.4560   -6.9080    7.8530 O.2    90  GLU90      -0.2864
    134  CB         8.7930   -5.0190    6.1560 C.3    90  GLU90       0.0415
    135  CG         8.3890   -3.8170    5.3110 C.3    90  GLU90       0.1163
    136  CD         6.9550   -3.3360    5.4430 C.2    90  GLU90       0.3649
    137  OE1        6.3900   -3.3980    6.5590 O.co2  90  GLU90      -0.2457
    138  OE2        6.4070   -2.8530    4.4270 O.co2  90  GLU90      -0.2457
    139  N          8.1270   -9.2550    7.1420 N.3    93  LYS93      -0.1245
    140  CA         8.8640  -10.0610    6.1590 C.3    93  LYS93       0.1561
    141  C          9.8500  -10.9920    6.8570 C.2    93  LYS93       0.2260
    142  O         10.0060  -12.1390    6.4410 O.2    93  LYS93      -0.2867
    143  CB         9.5960   -9.1730    5.1400 C.3    93  LYS93       0.0271
    144  CG         8.6760   -8.5500    4.1050 C.3    93  LYS93       0.0035
    145  CD         9.4700   -7.8770    2.9960 C.3    93  LYS93       0.0206
    146  CE         8.5800   -7.3920    1.8790 C.3    93  LYS93       0.1093
    147  NZ         9.3710   -6.9060    0.7200 N.3    93  LYS93      -0.1314
    148  N          3.0780   -6.0220   10.7490 N.3   133  GLU133     -0.1231
    149  CA         3.0090   -5.2350    9.5160 C.3   133  GLU133      0.1699
    150  C          3.1990   -3.7280    9.7150 C.2   133  GLU133      0.2592
    151  O          3.4670   -3.0230    8.7410 O.2   133  GLU133     -0.2718
    152  CB         1.6880   -5.5090    8.7680 C.3   133  GLU133      0.0402
    153  CG         1.5990   -6.9060    8.1710 C.3   133  GLU133      0.1161
    154  CD         1.2030   -8.0510    9.0880 C.2   133  GLU133      0.3649
    155  OE1        0.9860   -7.8280   10.3030 O.co2 133  GLU133     -0.2457
    156  OE2        1.1210   -9.1910    8.5780 O.co2 133  GLU133     -0.2457
    157  N          3.0740   -3.2340   10.9580 N.am  134  ASN134     -0.1974
    158  CA         3.2270   -1.8120   11.2460 C.3   134  ASN134      0.1688
    159  C          4.5750   -1.4850   11.8590 C.2   134  ASN134      0.2292
    160  O          4.7850   -0.3580   12.3050 O.2   134  ASN134     -0.2864
    161  CB         2.0750   -1.3100   12.1240 C.3   134  ASN134      0.1181
    162  CG         0.7900   -1.1390   11.3380 C.2   134  ASN134      0.2629
    163  OD1        0.7880   -1.0340   10.1030 O.2   134  ASN134     -0.2716
    164  ND2       -0.3280   -1.0820   12.0400 N.am  134  ASN134     -0.0877
    165  N          8.9420   -1.5730   11.6140 N.3   136  LEU136     -0.1245
    166  CA        10.1630   -1.5950   10.8150 C.3   136  LEU136      0.1561
    167  C         11.3430   -1.9150   11.7270 C.2   136  LEU136      0.2260
    168  O         11.1850   -1.9460   12.9550 O.2   136  LEU136     -0.2867
    169  CB        10.3920   -0.2630   10.0860 C.3   136  LEU136      0.0270
    170  CG         9.3680    0.1420    9.0310 C.3   136  LEU136      0.0019
    171  CD1        9.7160    1.4980    8.4530 C.3   136  LEU136      0.0001
    172  CD2        9.2520   -0.8930    7.9070 C.3   136  LEU136      0.0001
    173  N          6.0170    2.2810   12.9920 N.3   146  ALA146     -0.1231
    174  CA         6.0650    3.1280   11.8080 C.3   146  ALA146      0.1694
    175  C          4.7400    3.4070   11.0840 C.2   146  ALA146      0.2592
    176  O          4.7600    3.9050    9.9520 O.2   146  ALA146     -0.2718
    177  CB         7.0700    2.5490   10.8360 C.3   146  ALA146      0.0304
    178  N          3.6030    3.1410   11.7260 N.am  147  ASP147     -0.1974
    179  CA         2.2980    3.4840   11.1570 C.3   147  ASP147      0.1709
    180  C          1.4650    3.9790   12.3160 C.2   147  ASP147      0.2293
    181  O          1.5350    3.3960   13.3940 O.2   147  ASP147     -0.2864
    182  CB         1.6140    2.2900   10.4700 C.3   147  ASP147      0.1436
    183  CG         0.3480    2.6870    9.7290 C.2   147  ASP147      0.3671
    184  OD1       -0.7250    2.7390   10.3680 O.co2 147  ASP147     -0.2456
    185  OD2        0.4370    2.9830    8.5190 O.co2 147  ASP147     -0.2456
@<TRIPOS>BOND
     1    32    31    1
     2    31    30    1
     3     2     5    1
     4     2     1    1
     5     2     3    1
     6     5     6    1
     7     3     4    2
     8    30    29    1
     9     6     7    1
    10     7     8    1
    11    29    28    1
    12    28    25    1
    13     8     9    2
    14    12    13    1
    15    24    25    1
    16    24    22   am
    17    25    26    1
    18    21    22    1
    19    21    20    1
    20    22    23    2
    21    49    48    2
    22    20    14   am
    23    46    47    1
    24    11     9    1
    25     9    10    1
    26    48    47    1
    27    13    14    1
    28    13    16    1
    29    14    15    2
    30    26    27    2
    31    26    33   am
    32    47    50    1
    33    36    35    2
    34    33    34    1
    35    16    17    1
    36    17    19    1
    37    17    18    1
    38    40    39    2
    39    60    61    2
    40    60    59    1
    41   147   146    1
    42    50    52    1
    43    50    51    1
    44    35    34    1
    45    35    37   am
    46    39    38    1
    47    59    58    1
    48    59    62    1
    49   146   145    1
    50    37    38    1
    51    38    41    1
    52    63    62    1
    53    63    64    1
    54   145   144    1
    55    65    64    1
    56    65    66    1
    57    55    54    1
    58    55    56    2
    59    54    57    1
    60    54    53    1
    61    41    42    1
    62   102   100   ar
    63   102   101   ar
    64   100    98   ar
    65   144   143    1
    66    42    43    1
    67   138   136   ar
    68   101    99   ar
    69    98    97   ar
    70   143   140    1
    71    99    97   ar
    72   135   136    1
    73   135   134    1
    74    97    96    1
    75   136   137   ar
    76    43    44    1
    77   111   110    2
    78    96    93    1
    79    81    80    1
    80   134   131    1
    81   140   141    1
    82   140   139    1
    83   142   141    2
    84    75    76    1
    85   127   126    1
    86   127   128    1
    87   130   131    1
    88   130   128   am
    89    44    45    1
    90    78    77    2
    91   110   109    1
    92   110   115   am
    93   106   105    2
    94    93    92    1
    95    93    94    1
    96   109   112    1
    97   109   108    1
    98    80    79    1
    99    80    82    1
   100    79    76    1
   101   126   117   am
   102   131   132    1
   103   128   129    2
   104   118   117    2
   105    76    77    1
   106   117   116    1
   107   112   113    1
   108    77    83   am
   109   133   132    2
   110    92    85   am
   111   172   170    1
   112   105   108   am
   113   105   104    1
   114   116   115    1
   115   116   119    1
   116   103    94   am
   117   103   104    1
   118   108   114    1
   119    94    95    2
   120   153   152    1
   121   153   154    1
   122    86    85    2
   123   113   114    1
   124    85    84    1
   125   171   170    1
   126   185   183   ar
   127   156   154   ar
   128   151   150    2
   129   152   149    1
   130   104   107    1
   131    83    84    1
   132   170   169    1
   133   154   155   ar
   134   119   120    1
   135    84    87    1
   136   120   121    1
   137   149   150    1
   138   149   148    1
   139    74    72    1
   140   150   157   am
   141   183   184   ar
   142   183   182    1
   143   176   175    2
   144   169   166    1
   145   163   162    2
   146   182   179    1
   147   121   122    1
   148    87    88    1
   149   166   165    1
   150   166   167    1
   151   177   174    1
   152    73    72    1
   153    72    71    1
   154   157   158    1
   155   122   123    2
   156   175   178   am
   157   175   174    1
   158   179   178    1
   159   179   180    1
   160   158   159    1
   161   158   161    1
   162    88    89    1
   163   162   164   am
   164   162   161    1
   165   167   168    2
   166   174   173    1
   167   159   160    2
   168   123   125    1
   169   123   124    1
   170    71    68    1
   171   180   181    2
   172    89    90   ar
   173    89    91   ar
   174    69    68    1
   175    69    70    2
   176    68    67    1
