@<TRIPOS>MOLECULE
tmp/5k41A00.pdb
 214 205 0 0 0
SMALL
GASTEIGER

@<TRIPOS>ATOM
      1  N         40.5490  121.0450  252.8670 N.3    85  TRP85      -0.1241
      2  CA        41.2440  120.5430  251.6930 C.3    85  TRP85       0.1605
      3  C         42.4690  119.6800  252.0650 C.2    85  TRP85       0.2264
      4  O         42.5800  118.5460  251.5940 O.2    85  TRP85      -0.2867
      5  CB        41.6550  121.7010  250.7700 C.3    85  TRP85       0.0550
      6  CG        42.3400  121.2480  249.5220 C.ar   85  TRP85       0.0003
      7  CD1       43.6760  121.0130  249.3580 C.ar   85  TRP85       0.0946
      8  CD2       41.7240  120.9660  248.2520 C.ar   85  TRP85       0.0152
      9  NE1       43.9270  120.6050  248.0640 N.ar   85  TRP85      -0.2442
     10  CE2       42.7470  120.5680  247.3700 C.ar   85  TRP85       0.0810
     11  CE3       40.4080  121.0130  247.7800 C.ar   85  TRP85       0.0012
     12  CZ2       42.4940  120.2140  246.0300 C.ar   85  TRP85       0.0191
     13  CZ3       40.1600  120.6710  246.4480 C.ar   85  TRP85       0.0001
     14  CH2       41.1970  120.2740  245.5980 C.ar   85  TRP85       0.0015
     15  N         42.6110  115.4260  251.7860 N.3    89  HIS89      -0.1241
     16  CA        43.6560  114.8530  250.9350 C.3    89  HIS89       0.1621
     17  C         44.8170  114.2890  251.7560 C.2    89  HIS89       0.2264
     18  O         45.9790  114.5900  251.4910 O.2    89  HIS89      -0.2867
     19  CB        44.1950  115.8830  249.9290 C.3    89  HIS89       0.0745
     20  CG        43.1790  116.3330  248.9250 C.ar   89  HIS89       0.0817
     21  ND1       42.2720  117.3400  249.1860 N.ar   89  HIS89      -0.2268
     22  CD2       42.9160  115.9040  247.6660 C.ar   89  HIS89       0.1154
     23  CE1       41.5050  117.5200  248.1240 C.ar   89  HIS89       0.1986
     24  NE2       41.8730  116.6590  247.1890 N.ar   89  HIS89      -0.2212
     25  N         29.8850  119.8460  246.6920 N.3   130  ASP130     -0.1239
     26  CA        31.2840  119.8850  247.1280 C.3   130  ASP130      0.1674
     27  C         31.5780  120.3640  248.5460 C.2   130  ASP130      0.2266
     28  O         30.6900  120.7600  249.3090 O.2   130  ASP130     -0.2867
     29  CB        32.1050  120.7360  246.1550 C.3   130  ASP130      0.1410
     30  CG        33.4610  120.1230  245.8560 C.2   130  ASP130      0.3668
     31  OD1       33.8000  119.0880  246.4730 O.co2 130  ASP130     -0.2456
     32  OD2       34.1840  120.6680  245.0040 O.co2 130  ASP130     -0.2456
     33  N         33.3290  116.3080  245.5680 N.3   154  HIS154     -0.1226
     34  CA        34.2140  116.1840  244.4090 C.3   154  HIS154      0.1752
     35  C         35.6420  115.8340  244.7910 C.2   154  HIS154      0.2595
     36  O         36.4530  115.5440  243.9160 O.2   154  HIS154     -0.2718
     37  CB        34.2260  117.4800  243.5940 C.3   154  HIS154      0.0759
     38  CG        32.9370  117.7620  242.8850 C.ar  154  HIS154      0.0818
     39  ND1       32.7660  117.5410  241.5330 N.ar  154  HIS154     -0.2268
     40  CD2       31.7570  118.2450  243.3400 C.ar  154  HIS154      0.1154
     41  CE1       31.5370  117.8780  241.1860 C.ar  154  HIS154      0.1986
     42  NE2       30.9050  118.3140  242.2620 N.ar  154  HIS154     -0.2212
     43  N         35.9450  115.8760  246.0890 N.am  155  ILE155     -0.1980
     44  CA        37.2760  115.5390  246.5880 C.3   155  ILE155      0.1595
     45  C         37.1910  114.2460  247.4110 C.2   155  ILE155      0.2287
     46  O         36.0920  113.7920  247.7180 O.2   155  ILE155     -0.2864
     47  CB        37.8800  116.7150  247.4240 C.3   155  ILE155      0.0276
     48  CG1       37.1390  116.9210  248.7540 C.3   155  ILE155      0.0022
     49  CG2       37.9090  117.9900  246.5990 C.3   155  ILE155      0.0022
     50  CD1       37.8060  117.9680  249.6560 C.3   155  ILE155      0.0001
     51  N         32.9630  110.0670  244.5250 N.3   185  HIS185     -0.1241
     52  CA        33.4230  109.4990  243.2980 C.3   185  HIS185      0.1621
     53  C         33.6320  108.0250  243.4130 C.2   185  HIS185      0.2264
     54  O         33.3900  107.3330  242.4880 O.2   185  HIS185     -0.2867
     55  CB        34.7770  110.0610  242.9060 C.3   185  HIS185      0.0745
     56  CG        34.7300  111.4390  242.3820 C.ar  185  HIS185      0.0817
     57  ND1       35.3090  112.4900  243.0310 N.ar  185  HIS185     -0.2268
     58  CD2       34.2000  111.9380  241.2590 C.ar  185  HIS185      0.1154
     59  CE1       35.1230  113.5850  242.3390 C.ar  185  HIS185      0.1986
     60  NE2       34.4490  113.2740  241.2590 N.ar  185  HIS185     -0.2212
     61  N         32.8750  110.9230  238.5700 N.3   233  ILE233     -0.1245
     62  CA        32.6460  111.9900  237.6000 C.3   233  ILE233      0.1561
     63  C         33.4390  111.7470  236.3120 C.2   233  ILE233      0.2260
     64  O         34.4050  110.9910  236.2900 O.2   233  ILE233     -0.2867
     65  CB        32.9980  113.3710  238.1800 C.3   233  ILE233      0.0252
     66  CG1       32.1690  114.4690  237.5040 C.3   233  ILE233      0.0019
     67  CG2       34.4930  113.6630  238.0680 C.3   233  ILE233      0.0019
     68  CD1       32.1050  115.7730  238.3310 C.3   233  ILE233      0.0001
     69  N         49.5960  118.7590  232.9630 N.3   270  VAL270     -0.1231
     70  CA        48.5800  119.8030  232.9440 C.3   270  VAL270      0.1692
     71  C         47.8610  119.7270  234.2850 C.2   270  VAL270      0.2592
     72  O         47.2640  118.6970  234.6090 O.2   270  VAL270     -0.2718
     73  CB        47.5690  119.6230  231.7850 C.3   270  VAL270      0.0266
     74  CG1       46.3870  120.5740  231.9550 C.3   270  VAL270      0.0020
     75  CG2       48.2560  119.8150  230.3990 C.3   270  VAL270      0.0020
     76  N         47.9480  120.7850  235.0830 N.am  271  ASP271     -0.1960
     77  CA        47.3960  120.7420  236.4360 C.3   271  ASP271      0.1840
     78  C         47.0070  122.1120  236.9370 C.2   271  ASP271      0.2621
     79  O         47.7070  123.0840  236.6930 O.2   271  ASP271     -0.2715
     80  CB        48.3980  120.1560  237.4500 C.3   271  ASP271      0.1450
     81  CG        49.0500  118.8680  236.9860 C.2   271  ASP271      0.3671
     82  OD1       48.5700  117.7750  237.3600 O.co2 271  ASP271     -0.2456
     83  OD2       50.0640  118.9510  236.2630 O.co2 271  ASP271     -0.2456
     84  N         45.8950  122.1850  237.6550 N.am  272  ARG272     -0.1977
     85  CA        45.7070  123.2980  238.5600 C.3   272  ARG272      0.1597
     86  C         46.8010  123.1330  239.6180 C.2   272  ARG272      0.2287
     87  O         46.9920  122.0460  240.1550 O.2   272  ARG272     -0.2864
     88  CB        44.3080  123.3080  239.1780 C.3   272  ARG272      0.0334
     89  CG        44.0390  124.5090  240.0710 C.3   272  ARG272      0.0492
     90  CD        42.6580  124.4330  240.6950 C.3   272  ARG272      0.2205
     91  NE        42.4710  123.1140  241.2820 N.pl3 272  ARG272     -0.0865
     92  CZ        42.9900  122.7370  242.4440 C.cat 272  ARG272      0.5346
     93  NH1       43.7170  123.5930  243.1600 N.pl3 272  ARG272      0.1354
     94  NH2       42.7870  121.5020  242.8820 N.pl3 272  ARG272      0.1354
     95  N         48.7390  117.3930  243.4550 N.3   277  LYS277     -0.1245
     96  CA        48.8400  116.9610  242.0490 C.3   277  LYS277      0.1561
     97  C         50.1390  116.2490  241.6960 C.2   277  LYS277      0.2260
     98  O         50.2670  115.7090  240.5940 O.2   277  LYS277     -0.2867
     99  CB        48.6590  118.1540  241.1030 C.3   277  LYS277      0.0271
    100  CG        47.3290  118.8720  241.2350 C.3   277  LYS277      0.0035
    101  CD        46.1570  117.9860  240.8550 C.3   277  LYS277      0.0206
    102  CE        44.8520  118.7580  240.9930 C.3   277  LYS277      0.1093
    103  NZ        43.6550  117.9450  240.6200 N.3   277  LYS277     -0.1314
    104  N         52.2740  122.5640  232.3170 N.3   305  LEU305     -0.1245
    105  CA        51.3710  123.7010  232.2770 C.3   305  LEU305      0.1561
    106  C         50.5970  123.7660  233.5770 C.2   305  LEU305      0.2260
    107  O         49.6580  122.9960  233.7870 O.2   305  LEU305     -0.2867
    108  CB        50.4120  123.5960  231.0830 C.3   305  LEU305      0.0270
    109  CG        51.0910  123.3300  229.7400 C.3   305  LEU305      0.0019
    110  CD1       50.0680  123.2120  228.6200 C.3   305  LEU305      0.0001
    111  CD2       52.0790  124.4560  229.4610 C.3   305  LEU305      0.0001
    112  N         48.1750  125.8850  236.0150 N.3   307  THR307     -0.1218
    113  CA        47.3300  127.0660  236.0470 C.3   307  THR307      0.1862
    114  C         47.2670  127.5070  237.5130 C.2   307  THR307      0.2287
    115  O         47.2250  126.6620  238.4130 O.2   307  THR307     -0.2866
    116  CB        45.9280  126.8030  235.3980 C.3   307  THR307      0.1770
    117  OG1       45.2060  128.0330  235.2740 O.3   307  THR307     -0.2211
    118  CG2       45.1020  125.8060  236.1880 C.3   307  THR307      0.0375
    119  N         50.1920  129.7200  234.2290 N.3   347  ARG347     -0.1231
    120  CA        49.1430  130.5700  233.6670 C.3   347  ARG347      0.1679
    121  C         48.0100  129.7290  233.0670 C.2   347  ARG347      0.2434
    122  O         48.2260  128.5760  232.6940 O.2   347  ARG347     -0.2733
    123  CB        49.7220  131.4970  232.5940 C.3   347  ARG347      0.0321
    124  CG        50.0510  130.7860  231.3010 C.3   347  ARG347      0.0489
    125  CD        50.6840  131.7470  230.3010 C.3   347  ARG347      0.2205
    126  NE        51.9560  132.2490  230.8080 N.pl3 347  ARG347     -0.0865
    127  CZ        52.9700  132.6380  230.0450 C.cat 347  ARG347      0.5346
    128  NH1       54.0900  133.0740  230.6140 N.pl3 347  ARG347      0.1354
    129  NH2       52.8710  132.5790  228.7190 N.pl3 347  ARG347      0.1354
    130  N         46.8000  130.3040  232.9830 N.am  348  PRO348     -0.2718
    131  CA        45.6850  129.6130  232.3390 C.3   348  PRO348      0.1535
    132  C         45.9350  129.5230  230.8400 C.2   348  PRO348      0.2598
    133  O         46.2400  130.5300  230.2160 O.2   348  PRO348     -0.2715
    134  CB        44.4820  130.5100  232.6390 C.3   348  PRO348      0.0310
    135  CG        44.9410  131.4580  233.6950 C.3   348  PRO348      0.0237
    136  CD        46.3990  131.6310  233.4710 C.3   348  PRO348      0.0939
    137  N         45.8290  128.3240  230.2880 N.am  349  VAL349     -0.1978
    138  CA        45.9940  128.0990  228.8600 C.3   349  VAL349      0.1596
    139  C         44.6200  128.0760  228.1860 C.2   349  VAL349      0.2287
    140  O         43.7180  127.3960  228.6750 O.2   349  VAL349     -0.2864
    141  CB        46.7430  126.7680  228.6280 C.3   349  VAL349      0.0276
    142  CG1       46.9370  126.4910  227.1730 C.3   349  VAL349      0.0022
    143  CG2       48.0820  126.7860  229.3660 C.3   349  VAL349      0.0022
    144  N         41.5590  126.9880  225.9860 N.3   351  ARG351     -0.1245
    145  CA        41.1200  125.6050  225.8290 C.3   351  ARG351      0.1563
    146  C         41.6010  124.9700  224.5070 C.2   351  ARG351      0.2260
    147  O         42.0250  123.8110  224.4870 O.2   351  ARG351     -0.2867
    148  CB        39.5940  125.5370  225.9310 C.3   351  ARG351      0.0307
    149  CG        39.0350  124.1380  226.0880 C.3   351  ARG351      0.0489
    150  CD        39.4490  123.5070  227.4160 C.3   351  ARG351      0.2205
    151  NE        38.8190  122.2020  227.5770 N.pl3 351  ARG351     -0.0865
    152  CZ        39.0910  121.3430  228.5530 C.cat 351  ARG351      0.5346
    153  NH1       39.9870  121.6430  229.4920 N.pl3 351  ARG351      0.1354
    154  NH2       38.4530  120.1820  228.5940 N.pl3 351  ARG351      0.1354
    155  N         45.2530  124.2140  224.9110 N.3   354  LEU354     -0.1245
    156  CA        45.4530  123.0790  225.8030 C.3   354  LEU354      0.1561
    157  C         45.2010  121.7640  225.0680 C.2   354  LEU354      0.2260
    158  O         45.9550  120.8020  225.2060 O.2   354  LEU354     -0.2867
    159  CB        44.5370  123.1840  227.0270 C.3   354  LEU354      0.0270
    160  CG        44.8540  122.1860  228.1280 C.3   354  LEU354      0.0019
    161  CD1       46.2190  122.5060  228.7230 C.3   354  LEU354      0.0001
    162  CD2       43.7650  122.2030  229.1870 C.3   354  LEU354      0.0001
    163  N         43.8910  112.5090  244.6590 N.3   371  ASP371     -0.1225
    164  CA        42.9740  113.3210  243.8510 C.3   371  ASP371      0.1805
    165  C         41.6180  112.6300  243.7770 C.2   371  ASP371      0.2598
    166  O         41.5560  111.4220  243.5810 O.2   371  ASP371     -0.2718
    167  CB        43.5340  113.5360  242.4310 C.3   371  ASP371      0.1424
    168  CG        43.2370  114.9310  241.8680 C.2   371  ASP371      0.3668
    169  OD1       42.4080  115.6700  242.4480 O.co2 371  ASP371     -0.2456
    170  OD2       43.8390  115.2970  240.8240 O.co2 371  ASP371     -0.2456
    171  N         40.5390  113.3890  243.9340 N.am  372  GLY372     -0.1942
    172  CA        39.1980  112.8210  243.9080 C.3   372  GLY372      0.2014
    173  C         38.9180  112.0210  242.6360 C.2   372  GLY372      0.2639
    174  O         38.5080  110.8590  242.6860 O.2   372  GLY372     -0.2714
    175  N         39.1440  112.6480  241.4900 N.am  373  MET373     -0.1963
    176  CA        39.0160  111.9550  240.2070 C.3   373  MET373      0.1736
    177  C         40.2230  112.2600  239.3370 C.2   373  MET373      0.2616
    178  O         41.0170  111.3650  239.0250 O.2   373  MET373     -0.2715
    179  CB        37.7260  112.3610  239.4920 C.3   373  MET373      0.0427
    180  CG        37.5550  111.7370  238.0840 C.3   373  MET373      0.0599
    181  SD        37.5670  109.9340  238.1480 S.3   373  MET373     -0.1393
    182  CE        36.2390  109.6330  239.3070 C.3   373  MET373      0.0692
    183  N         40.3530  113.5470  239.0140 N.am  374  ASN374     -0.1958
    184  CA        41.2880  114.1220  238.0330 C.3   374  ASN374      0.1819
    185  C         40.7600  114.0060  236.6040 C.2   374  ASN374      0.2621
    186  O         40.8580  112.9540  235.9650 O.2   374  ASN374     -0.2715
    187  CB        42.6830  113.5090  238.1020 C.3   374  ASN374      0.1195
    188  CG        43.7000  114.3200  237.3100 C.2   374  ASN374      0.2630
    189  OD1       43.6610  114.3450  236.0720 O.2   374  ASN374     -0.2716
    190  ND2       44.5910  115.0170  238.0170 N.am  374  ASN374     -0.0877
    191  N         40.2180  115.1110  236.1050 N.am  375  LEU375     -0.1963
    192  CA        39.6230  115.1490  234.7610 C.3   375  LEU375      0.1728
    193  C         40.6560  115.1590  233.6280 C.2   375  LEU375      0.2616
    194  O         40.3640  114.7350  232.5100 O.2   375  LEU375     -0.2715
    195  CB        38.7210  116.3760  234.6350 C.3   375  LEU375      0.0311
    196  CG        37.5510  116.4340  235.6170 C.3   375  LEU375      0.0022
    197  CD1       36.7830  117.7310  235.4660 C.3   375  LEU375      0.0001
    198  CD2       36.6420  115.2370  235.4150 C.3   375  LEU375      0.0001
    199  N         41.8560  115.6440  233.9170 N.am  376  VAL376     -0.1977
    200  CA        42.9010  115.7480  232.9060 C.3   376  VAL376      0.1596
    201  C         43.2530  114.3870  232.3250 C.2   376  VAL376      0.2287
    202  O         43.4850  114.2680  231.1240 O.2   376  VAL376     -0.2864
    203  CB        44.1800  116.4090  233.4780 C.3   376  VAL376      0.0276
    204  CG1       45.2900  116.4070  232.4280 C.3   376  VAL376      0.0022
    205  CG2       43.8750  117.8300  233.8930 C.3   376  VAL376      0.0022
    206  N         40.5330  113.7550  229.8860 N.3   379  GLU379     -0.1245
    207  CA        40.5900  114.6960  228.7590 C.3   379  GLU379      0.1567
    208  C         41.6500  114.2710  227.7490 C.2   379  GLU379      0.2260
    209  O         41.4270  114.3350  226.5360 O.2   379  GLU379     -0.2867
    210  CB        40.8770  116.1200  229.2390 C.3   379  GLU379      0.0388
    211  CG        39.7540  116.7350  230.0750 C.3   379  GLU379      0.1160
    212  CD        40.1690  118.0390  230.7360 C.2   379  GLU379      0.3649
    213  OE1       39.2960  118.9040  230.9690 O.co2 379  GLU379     -0.2457
    214  OE2       41.3720  118.2000  231.0200 O.co2 379  GLU379     -0.2457
@<TRIPOS>BOND
     1   147   146    2
     2   146   145    1
     3   155   156    1
     4   157   158    2
     5   157   156    1
     6   156   159    1
     7   145   148    1
     8   145   144    1
     9   148   149    1
    10   149   150    1
    11   209   208    2
    12   159   160    1
    13   142   141    1
    14   150   151    1
    15   151   152    2
    16   208   207    1
    17   160   161    1
    18   160   162    1
    19   139   140    2
    20   139   138    1
    21   152   154    1
    22   152   153    1
    23   110   109    1
    24   141   138    1
    25   141   143    1
    26   129   127    1
    27   207   210    1
    28   207   206    1
    29   138   137    1
    30   210   211    1
    31   111   109    1
    32   109   108    1
    33   127   128    1
    34   127   126    2
    35   211   212    1
    36   133   132    2
    37   137   132   am
    38   125   126    1
    39   125   124    1
    40    75    73    1
    41   212   213   ar
    42   212   214   ar
    43   132   131    1
    44   108   105    1
    45   202   201    2
    46   124   123    1
    47    73    74    1
    48    73    70    1
    49   105   104    1
    50   105   106    1
    51   201   200    1
    52   131   134    1
    53   131   130    1
    54   204   203    1
    55   194   193    2
    56   123   120    1
    57   134   135    1
    58   122   121    2
    59   200   203    1
    60   200   199    1
    61    70    69    1
    62    70    71    1
    63   130   121   am
    64   130   136    1
    65   121   120    1
    66   136   135    1
    67   203   205    1
    68   106   107    2
    69   193   199   am
    70   193   192    1
    71   120   119    1
    72    71    72    2
    73    71    76   am
    74   195   192    1
    75   195   196    1
    76   192   191    1
    77    76    77    1
    78   117   116    1
    79   116   113    1
    80   116   118    1
    81   198   196    1
    82   197   196    1
    83   186   185    2
    84   112   113    1
    85   113   114    1
    86   189   188    2
    87   191   185   am
    88    83    81   ar
    89    64    63    2
    90    63    62    1
    91    77    78    1
    92    77    80    1
    93   185   184    1
    94    79    78    2
    95    78    84   am
    96    81    82   ar
    97    81    80    1
    98   188   190   am
    99   188   187    1
   100    66    65    1
   101    66    68    1
   102   114   115    2
   103    62    65    1
   104    62    61    1
   105    84    85    1
   106   184   187    1
   107   184   183    1
   108    67    65    1
   109   180   181    1
   110   180   179    1
   111   181   182    1
   112    85    88    1
   113    85    86    1
   114   183   177   am
   115   178   177    2
   116    88    89    1
   117   177   176    1
   118   179   176    1
   119    86    87    2
   120    89    90    1
   121   176   175    1
   122    98    97    2
   123   103   102    1
   124    90    91    1
   125   170   168   ar
   126   101   102    1
   127   101   100    1
   128    99   100    1
   129    99    96    1
   130    41    39   ar
   131    41    42   ar
   132    58    60   ar
   133    58    56   ar
   134    60    59   ar
   135    91    92    2
   136   175   173   am
   137    39    38   ar
   138    97    96    1
   139   168   167    1
   140   168   169   ar
   141    96    95    1
   142    42    40   ar
   143    59    57   ar
   144    56    55    1
   145    56    57   ar
   146   167   164    1
   147    92    94    1
   148    92    93    1
   149    54    53    2
   150   173   174    2
   151   173   172    1
   152    38    40   ar
   153    38    37    1
   154    55    52    1
   155    52    53    1
   156    52    51    1
   157   166   165    2
   158    37    34    1
   159   165   164    1
   160   165   171   am
   161   164   163    1
   162   172   171    1
   163    36    35    2
   164    34    35    1
   165    34    33    1
   166    35    43   am
   167    32    30   ar
   168    14    12   ar
   169    14    13   ar
   170    30    29    1
   171    30    31   ar
   172    12    10   ar
   173    43    44    1
   174    29    26    1
   175    13    11   ar
   176    44    45    1
   177    44    47    1
   178    49    47    1
   179    25    26    1
   180    26    27    1
   181    24    22   ar
   182    24    23   ar
   183    10     9   ar
   184    10     8   ar
   185    45    46    2
   186    47    48    1
   187    22    20   ar
   188    11     8   ar
   189     9     7   ar
   190    23    21   ar
   191     8     6   ar
   192    27    28    2
   193    48    50    1
   194    20    21   ar
   195    20    19    1
   196     7     6   ar
   197     6     5    1
   198    19    16    1
   199     5     2    1
   200    16    17    1
   201    16    15    1
   202    18    17    2
   203     4     3    2
   204     2     3    1
   205     2     1    1
