@<TRIPOS>MOLECULE
tmp/5k44A01.pdb
 113 104 0 0 0
SMALL
GASTEIGER

@<TRIPOS>ATOM
      1  N        176.4340  118.6490  235.6130 N.3   267  VAL267     -0.1231
      2  CA       175.4610  119.7430  235.6680 C.3   267  VAL267      0.1692
      3  C        174.6860  119.6810  236.9940 C.2   267  VAL267      0.2592
      4  O        173.9880  118.7040  237.2660 O.2   267  VAL267     -0.2718
      5  CB       174.4610  119.6960  234.4850 C.3   267  VAL267      0.0266
      6  CG1      173.3630  120.7360  234.6770 C.3   267  VAL267      0.0020
      7  CG2      175.1900  119.9130  233.1410 C.3   267  VAL267      0.0020
      8  N        174.8390  120.6960  237.8360 N.am  268  ASP268     -0.1960
      9  CA       174.2070  120.6670  239.1610 C.3   268  ASP268      0.1840
     10  C        174.0470  122.0670  239.6990 C.2   268  ASP268      0.2621
     11  O        174.8040  122.9720  239.3350 O.2   268  ASP268     -0.2715
     12  CB       175.0470  119.9030  240.2130 C.3   268  ASP268      0.1450
     13  CG       175.7590  118.6780  239.6640 C.2   268  ASP268      0.3671
     14  OD1      175.2600  117.5460  239.8550 O.co2 268  ASP268     -0.2456
     15  OD2      176.8000  118.8620  238.9950 O.co2 268  ASP268     -0.2456
     16  N        173.0740  122.2420  240.5860 N.am  269  ARG269     -0.1977
     17  CA       173.1060  123.3970  241.4720 C.3   269  ARG269      0.1597
     18  C        174.2730  123.1720  242.4150 C.2   269  ARG269      0.2287
     19  O        174.5600  122.0390  242.8130 O.2   269  ARG269     -0.2864
     20  CB       171.7950  123.5720  242.2410 C.3   269  ARG269      0.0334
     21  CG       170.6610  124.0030  241.3520 C.3   269  ARG269      0.0492
     22  CD       169.3630  124.2810  242.0980 C.3   269  ARG269      0.2205
     23  NE       168.2580  124.2450  241.1430 N.pl3 269  ARG269     -0.0865
     24  CZ       167.9310  125.2490  240.3350 C.cat 269  ARG269      0.5346
     25  NH1      168.5980  126.3960  240.3800 N.pl3 269  ARG269      0.1354
     26  NH2      166.9200  125.1100  239.4930 N.pl3 269  ARG269      0.1354
     27  N        175.7870  117.1730  246.1400 N.3   274  LYS274     -0.1245
     28  CA       175.8810  116.7460  244.7280 C.3   274  LYS274      0.1561
     29  C        177.1570  115.9960  244.3570 C.2   274  LYS274      0.2260
     30  O        177.2590  115.4690  243.2390 O.2   274  LYS274     -0.2867
     31  CB       175.7310  117.9540  243.7880 C.3   274  LYS274      0.0271
     32  CG       174.4090  118.6950  243.9560 C.3   274  LYS274      0.0035
     33  CD       173.2250  117.7920  243.6320 C.3   274  LYS274      0.0206
     34  CE       171.8910  118.5330  243.7890 C.3   274  LYS274      0.1093
     35  NZ       170.7280  117.7410  243.2730 N.3   274  LYS274     -0.1314
     36  N        179.2370  122.4950  235.0310 N.3   302  LEU302     -0.1245
     37  CA       178.3430  123.6460  235.0630 C.3   302  LEU302      0.1561
     38  C        177.6450  123.6930  236.4150 C.2   302  LEU302      0.2260
     39  O        176.7550  122.8880  236.6830 O.2   302  LEU302     -0.2867
     40  CB       177.3090  123.5620  233.9410 C.3   302  LEU302      0.0270
     41  CG       177.9290  123.3670  232.5500 C.3   302  LEU302      0.0019
     42  CD1      176.8560  123.3020  231.4610 C.3   302  LEU302      0.0001
     43  CD2      178.9200  124.4980  232.2600 C.3   302  LEU302      0.0001
     44  N        175.2900  125.7330  238.9300 N.3   304  THR304     -0.1218
     45  CA       174.3610  126.8510  239.0750 C.3   304  THR304      0.1862
     46  C        174.4570  127.4150  240.4940 C.2   304  THR304      0.2287
     47  O        174.4290  126.6500  241.4570 O.2   304  THR304     -0.2866
     48  CB       172.9100  126.4080  238.7510 C.3   304  THR304      0.1770
     49  OG1      172.8060  126.1430  237.3450 O.3   304  THR304     -0.2211
     50  CG2      171.9100  127.4940  239.1290 C.3   304  THR304      0.0375
     51  N        172.3880  128.6220  233.6150 N.3   346  VAL346     -0.1245
     52  CA       172.5130  128.2280  232.2120 C.3   346  VAL346      0.1561
     53  C        171.1270  128.0680  231.5800 C.2   346  VAL346      0.2260
     54  O        170.2750  127.3650  232.1340 O.2   346  VAL346     -0.2867
     55  CB       173.2890  126.9110  232.0610 C.3   346  VAL346      0.0252
     56  CG1      173.5490  126.6180  230.5900 C.3   346  VAL346      0.0019
     57  CG2      174.5980  126.9680  232.8350 C.3   346  VAL346      0.0019
     58  N        171.8680  123.9640  228.1540 N.3   351  LEU351     -0.1245
     59  CA       171.9930  122.7220  228.9090 C.3   351  LEU351      0.1561
     60  C        171.7680  121.5040  228.0160 C.2   351  LEU351      0.2260
     61  O        172.5270  120.5400  228.0430 O.2   351  LEU351     -0.2867
     62  CB       170.9970  122.7060  230.0700 C.3   351  LEU351      0.0270
     63  CG       170.9560  121.4260  230.9000 C.3   351  LEU351      0.0019
     64  CD1      172.3550  121.0520  231.3310 C.3   351  LEU351      0.0001
     65  CD2      170.0360  121.5780  232.1130 C.3   351  LEU351      0.0001
     66  N        170.6740  112.2050  247.1720 N.3   368  ASP368     -0.1239
     67  CA       169.7640  113.0220  246.3600 C.3   368  ASP368      0.1674
     68  C        168.3880  112.3670  246.3030 C.2   368  ASP368      0.2266
     69  O        168.2970  111.1500  246.1400 O.2   368  ASP368     -0.2867
     70  CB       170.3320  113.1990  244.9370 C.3   368  ASP368      0.1410
     71  CG       169.9240  114.5170  244.2910 C.2   368  ASP368      0.3668
     72  OD1      169.0550  115.2370  244.8390 O.co2 368  ASP368     -0.2456
     73  OD2      170.5000  114.8450  243.2320 O.co2 368  ASP368     -0.2456
     74  N        165.8660  112.4090  244.0070 N.3   370  MET370     -0.1230
     75  CA       165.7160  111.6610  242.7510 C.3   370  MET370      0.1702
     76  C        166.9050  111.9390  241.8430 C.2   370  MET370      0.2592
     77  O        167.6870  111.0310  241.5340 O.2   370  MET370     -0.2718
     78  CB       164.4040  112.0170  242.0400 C.3   370  MET370      0.0401
     79  CG       164.2550  111.3600  240.6190 C.3   370  MET370      0.0596
     80  SD       164.2920  109.5570  240.7020 S.3   370  MET370     -0.1393
     81  CE       162.8830  109.1870  241.7320 C.3   370  MET370      0.0692
     82  N        167.0320  113.2150  241.4790 N.am  371  ASN371     -0.1960
     83  CA       167.9550  113.7540  240.4780 C.3   371  ASN371      0.1819
     84  C        167.4110  113.5490  239.0680 C.2   371  ASN371      0.2621
     85  O        167.4660  112.4580  238.4940 O.2   371  ASN371     -0.2715
     86  CB       169.3650  113.1730  240.5710 C.3   371  ASN371      0.1195
     87  CG       170.3570  113.9600  239.7370 C.2   371  ASN371      0.2630
     88  OD1      170.3020  113.9440  238.5030 O.2   371  ASN371     -0.2716
     89  ND2      171.2570  114.6780  240.4050 N.am  371  ASN371     -0.0877
     90  N        166.8930  114.6290  238.5120 N.am  372  LEU372     -0.1963
     91  CA       166.2700  114.5680  237.1980 C.3   372  LEU372      0.1728
     92  C        167.2560  114.8610  236.0690 C.2   372  LEU372      0.2616
     93  O        166.9580  114.6020  234.9100 O.2   372  LEU372     -0.2715
     94  CB       165.0870  115.5280  237.1460 C.3   372  LEU372      0.0311
     95  CG       163.9420  115.0630  238.0500 C.3   372  LEU372      0.0022
     96  CD1      162.7740  116.0270  237.9920 C.3   372  LEU372      0.0001
     97  CD2      163.5050  113.6320  237.6820 C.3   372  LEU372      0.0001
     98  N        168.4260  115.3910  236.4090 N.am  373  VAL373     -0.1977
     99  CA       169.4670  115.6310  235.4110 C.3   373  VAL373      0.1596
    100  C        169.8720  114.3060  234.7710 C.2   373  VAL373      0.2287
    101  O        170.0740  114.2360  233.5590 O.2   373  VAL373     -0.2864
    102  CB       170.6920  116.3370  236.0310 C.3   373  VAL373      0.0276
    103  CG1      171.8920  116.3030  235.0790 C.3   373  VAL373      0.0022
    104  CG2      170.3330  117.7800  236.3840 C.3   373  VAL373      0.0022
    105  N        167.1750  113.4480  232.3280 N.3   376  GLU376     -0.1245
    106  CA       167.1480  114.3790  231.1970 C.3   376  GLU376      0.1567
    107  C        168.2310  114.0240  230.1800 C.2   376  GLU376      0.2260
    108  O        167.9930  114.0540  228.9710 O.2   376  GLU376     -0.2867
    109  CB       167.3280  115.8230  231.6760 C.3   376  GLU376      0.0388
    110  CG       166.1250  116.3690  232.4360 C.3   376  GLU376      0.1160
    111  CD       166.3840  117.7440  233.0360 C.2   376  GLU376      0.3649
    112  OE1      165.4300  118.5410  233.1420 O.co2 376  GLU376     -0.2457
    113  OE2      167.5450  118.0250  233.4050 O.co2 376  GLU376     -0.2457
@<TRIPOS>BOND
     1    60    61    2
     2    60    59    1
     3    58    59    1
     4    59    62    1
     5   108   107    2
     6    62    63    1
     7   107   106    1
     8    56    55    1
     9    63    64    1
    10    63    65    1
    11   106   109    1
    12   106   105    1
    13    42    41    1
    14    53    54    2
    15    53    52    1
    16   109   110    1
    17    55    52    1
    18    55    57    1
    19    52    51    1
    20    43    41    1
    21   110   111    1
    22    41    40    1
    23   111   112   ar
    24   111   113   ar
    25     7     5    1
    26   101   100    2
    27    40    37    1
    28     5     6    1
    29     5     2    1
    30   100    99    1
    31    93    92    2
    32    36    37    1
    33    37    38    1
    34   103   102    1
    35    99   102    1
    36    99    98    1
    37     1     2    1
    38     2     3    1
    39   102   104    1
    40    92    98   am
    41    92    91    1
    42    38    39    2
    43     3     4    2
    44     3     8   am
    45    94    91    1
    46    94    95    1
    47    91    90    1
    48    49    48    1
    49    97    95    1
    50     8     9    1
    51    96    95    1
    52    85    84    2
    53    88    87    2
    54    90    84   am
    55    48    45    1
    56    48    50    1
    57    44    45    1
    58    15    13   ar
    59    84    83    1
    60    45    46    1
    61     9    10    1
    62     9    12    1
    63    11    10    2
    64    26    24    1
    65    13    14   ar
    66    13    12    1
    67    10    16   am
    68    87    89   am
    69    87    86    1
    70    24    25    1
    71    24    23    2
    72    83    86    1
    73    83    82    1
    74    46    47    2
    75    16    17    1
    76    79    80    1
    77    79    78    1
    78    80    81    1
    79    23    22    1
    80    21    22    1
    81    21    20    1
    82    17    20    1
    83    17    18    1
    84    82    76   am
    85    77    76    2
    86    76    75    1
    87    78    75    1
    88    18    19    2
    89    75    74    1
    90    73    71   ar
    91    30    29    2
    92    35    34    1
    93    33    34    1
    94    33    32    1
    95    31    32    1
    96    31    28    1
    97    71    72   ar
    98    71    70    1
    99    29    28    1
   100    28    27    1
   101    70    67    1
   102    69    68    2
   103    68    67    1
   104    67    66    1
