@<TRIPOS>MOLECULE
tmp/5k44A00.pdb
 195 189 0 0 0
SMALL
GASTEIGER

@<TRIPOS>ATOM
      1  N        156.3840  126.0610  247.9350 N.3    10  ASN10      -0.1225
      2  CA       157.1320  127.2250  248.3850 C.3    10  ASN10       0.1785
      3  C        157.1060  128.3640  247.3610 C.2    10  ASN10       0.2597
      4  O        156.9160  129.5200  247.7280 O.2    10  ASN10      -0.2718
      5  CB       158.5800  126.8490  248.7000 C.3    10  ASN10       0.1169
      6  CG       159.3690  128.0180  249.2370 C.2    10  ASN10       0.2627
      7  OD1      158.9400  128.6900  250.1760 O.2    10  ASN10      -0.2716
      8  ND2      160.5080  128.2970  248.6210 N.am   10  ASN10      -0.0877
      9  N        157.2750  128.0390  246.0780 N.am   11  ARG11      -0.1979
     10  CA       157.2410  129.0650  245.0380 C.3    11  ARG11       0.1597
     11  C        156.0670  128.9140  244.0750 C.2    11  ARG11       0.2287
     12  O        155.6540  127.8040  243.7420 O.2    11  ARG11      -0.2864
     13  CB       158.5430  129.0520  244.2280 C.3    11  ARG11       0.0334
     14  CG       159.7750  129.4780  244.9960 C.3    11  ARG11       0.0492
     15  CD       161.0320  129.1410  244.1990 C.3    11  ARG11       0.2205
     16  NE       162.2560  129.4320  244.9380 N.pl3  11  ARG11      -0.0865
     17  CZ       162.8260  130.6310  244.9840 C.cat  11  ARG11       0.5346
     18  NH1      162.2800  131.6530  244.3280 N.pl3  11  ARG11       0.1354
     19  NH2      163.9410  130.8090  245.6850 N.pl3  11  ARG11       0.1354
     20  N        163.2520  130.1050  255.2110 N.3    73  TYR73      -0.1241
     21  CA       163.7420  129.4580  253.9880 C.3    73  TYR73       0.1605
     22  C        165.2510  129.2160  254.0120 C.2    73  TYR73       0.2264
     23  O        165.7010  128.0740  254.0150 O.2    73  TYR73      -0.2867
     24  CB       163.3490  130.3040  252.7810 C.3    73  TYR73       0.0534
     25  CG       163.6620  129.7100  251.4150 C.ar   73  TYR73      -0.0201
     26  CD1      163.4420  128.3640  251.1330 C.ar   73  TYR73      -0.0009
     27  CD2      164.1240  130.5230  250.3900 C.ar   73  TYR73      -0.0009
     28  CE1      163.7200  127.8410  249.8490 C.ar   73  TYR73       0.0417
     29  CE2      164.3910  130.0170  249.1290 C.ar   73  TYR73       0.0417
     30  CZ       164.1950  128.6770  248.8670 C.ar   73  TYR73       0.1957
     31  OH       164.4630  128.2040  247.5980 O.3    73  TYR73      -0.2866
     32  N        166.7890  125.5770  254.5180 N.3    78  ASN78      -0.1240
     33  CA       168.0770  125.2980  253.8800 C.3    78  ASN78       0.1653
     34  C        169.2170  124.9250  254.8250 C.2    78  ASN78       0.2266
     35  O        170.1840  124.2930  254.3870 O.2    78  ASN78      -0.2867
     36  CB       168.5490  126.4950  253.0560 C.3    78  ASN78       0.1155
     37  CG       167.6190  126.8370  251.9090 C.2    78  ASN78       0.2627
     38  OD1      166.7290  126.0710  251.5370 O.2    78  ASN78      -0.2716
     39  ND2      167.8160  128.0110  251.3590 N.am   78  ASN78      -0.0877
     40  N        167.3740  120.7130  255.3450 N.3    82  TRP82      -0.1241
     41  CA       168.1080  120.2190  254.1730 C.3    82  TRP82       0.1605
     42  C        169.3280  119.3730  254.5880 C.2    82  TRP82       0.2264
     43  O        169.4380  118.2260  254.1620 O.2    82  TRP82      -0.2867
     44  CB       168.5330  121.3810  253.2620 C.3    82  TRP82       0.0550
     45  CG       169.2620  120.9610  252.0060 C.ar   82  TRP82       0.0003
     46  CD1      170.6160  120.8430  251.8380 C.ar   82  TRP82       0.0946
     47  CD2      168.6700  120.6160  250.7420 C.ar   82  TRP82       0.0152
     48  NE1      170.9010  120.4500  250.5420 N.ar   82  TRP82      -0.2442
     49  CE2      169.7250  120.3010  249.8570 C.ar   82  TRP82       0.0810
     50  CE3      167.3470  120.5430  250.2800 C.ar   82  TRP82       0.0012
     51  CZ2      169.4950  119.9140  248.5270 C.ar   82  TRP82       0.0191
     52  CZ3      167.1300  120.1620  248.9430 C.ar   82  TRP82       0.0001
     53  CH2      168.1960  119.8520  248.0980 C.ar   82  TRP82       0.0015
     54  N        169.5010  115.0780  254.2850 N.3    86  HIS86      -0.1241
     55  CA       170.5390  114.5100  253.4170 C.3    86  HIS86       0.1621
     56  C        171.7300  113.9440  254.2150 C.2    86  HIS86       0.2264
     57  O        172.8810  114.2300  253.8970 O.2    86  HIS86      -0.2867
     58  CB       171.0550  115.5560  252.4070 C.3    86  HIS86       0.0745
     59  CG       170.0260  116.0040  251.4070 C.ar   86  HIS86       0.0817
     60  ND1      169.1000  116.9900  251.6770 N.ar   86  HIS86      -0.2268
     61  CD2      169.7990  115.6100  250.1280 C.ar   86  HIS86       0.1154
     62  CE1      168.3430  117.1820  250.6050 C.ar   86  HIS86       0.1986
     63  NE2      168.7430  116.3530  249.6550 N.ar   86  HIS86      -0.2212
     64  N        156.6070  119.2970  249.3350 N.3   127  ASP127     -0.1225
     65  CA       158.0090  119.3460  249.7610 C.3   127  ASP127      0.1805
     66  C        158.3140  119.8920  251.1470 C.2   127  ASP127      0.2598
     67  O        157.4300  120.3450  251.8950 O.2   127  ASP127     -0.2718
     68  CB       158.8550  120.1290  248.7440 C.3   127  ASP127      0.1424
     69  CG       160.1970  119.4670  248.4950 C.2   127  ASP127      0.3668
     70  OD1      160.4700  118.4400  249.1640 O.co2 127  ASP127     -0.2456
     71  OD2      160.9860  119.9630  247.6590 O.co2 127  ASP127     -0.2456
     72  N        159.6040  119.8360  251.4700 N.am  128  TYR128     -0.1962
     73  CA       160.0680  119.8830  252.8610 C.3   128  TYR128      0.1771
     74  C        159.8820  121.2270  253.5670 C.2   128  TYR128      0.2619
     75  O        159.9190  121.2860  254.8010 O.2   128  TYR128     -0.2715
     76  CB       161.5420  119.4750  252.9050 C.3   128  TYR128      0.0574
     77  CG       162.5020  120.5170  252.3690 C.ar  128  TYR128     -0.0198
     78  CD1      162.6010  120.7860  251.0070 C.ar  128  TYR128     -0.0009
     79  CD2      163.3330  121.2110  253.2410 C.ar  128  TYR128     -0.0009
     80  CE1      163.5010  121.7520  250.5290 C.ar  128  TYR128      0.0417
     81  CE2      164.2210  122.1590  252.7850 C.ar  128  TYR128      0.0417
     82  CZ       164.3050  122.4320  251.4450 C.ar  128  TYR128      0.1957
     83  OH       165.2030  123.3910  251.0510 O.3   128  TYR128     -0.2866
     84  N        159.6820  122.3000  252.8050 N.am  129  GLN129     -0.1977
     85  CA       159.4960  123.6200  253.4200 C.3   129  GLN129      0.1601
     86  C        158.1210  123.7620  254.0680 C.2   129  GLN129      0.2287
     87  O        157.8880  124.6910  254.8420 O.2   129  GLN129     -0.2864
     88  CB       159.6770  124.7420  252.3860 C.3   129  GLN129      0.0394
     89  CG       160.9570  124.6580  251.5730 C.3   129  GLN129      0.0908
     90  CD       160.7370  123.9950  250.2290 C.2   129  GLN129      0.2608
     91  OE1      159.7830  123.2400  250.0460 O.2   129  GLN129     -0.2717
     92  NE2      161.6080  124.2920  249.2750 N.am  129  GLN129     -0.0878
     93  N        159.9700  115.7800  248.2120 N.3   151  HIS151     -0.1226
     94  CA       160.8450  115.6600  247.0270 C.3   151  HIS151      0.1752
     95  C        162.3020  115.3610  247.3810 C.2   151  HIS151      0.2595
     96  O        163.0880  114.9840  246.5120 O.2   151  HIS151     -0.2718
     97  CB       160.7900  116.9320  246.1820 C.3   151  HIS151      0.0759
     98  CG       159.4750  117.1530  245.5030 C.ar  151  HIS151      0.0818
     99  ND1      159.2470  116.8210  244.1830 N.ar  151  HIS151     -0.2268
    100  CD2      158.3090  117.6630  245.9670 C.ar  151  HIS151      0.1154
    101  CE1      158.0050  117.1280  243.8600 C.ar  151  HIS151      0.1986
    102  NE2      157.4120  117.6440  244.9270 N.ar  151  HIS151     -0.2212
    103  N        162.6560  115.5290  248.6560 N.am  152  ILE152     -0.1980
    104  CA       164.0070  115.2300  249.1050 C.3   152  ILE152      0.1595
    105  C        163.9480  113.9260  249.9120 C.2   152  ILE152      0.2287
    106  O        162.8530  113.4370  250.1990 O.2   152  ILE152     -0.2864
    107  CB       164.6080  116.4160  249.9250 C.3   152  ILE152      0.0276
    108  CG1      163.9190  116.5910  251.2840 C.3   152  ILE152      0.0022
    109  CG2      164.5480  117.7040  249.0990 C.3   152  ILE152      0.0022
    110  CD1      164.6410  117.6070  252.1810 C.3   152  ILE152      0.0001
    111  N        159.7220  109.5640  247.0870 N.3   182  HIS182     -0.1241
    112  CA       160.1840  108.9390  245.8450 C.3   182  HIS182      0.1621
    113  C        160.3440  107.4360  245.9940 C.2   182  HIS182      0.2264
    114  O        160.0140  106.6840  245.0800 O.2   182  HIS182     -0.2867
    115  CB       161.5190  109.5250  245.3930 C.3   182  HIS182      0.0745
    116  CG       161.4260  110.9290  244.8930 C.ar  182  HIS182      0.0817
    117  ND1      162.0080  111.9920  245.5480 N.ar  182  HIS182     -0.2268
    118  CD2      160.8270  111.4400  243.7920 C.ar  182  HIS182      0.1154
    119  CE1      161.7740  113.1000  244.8650 C.ar  182  HIS182      0.1986
    120  NE2      161.0550  112.7940  243.8020 N.ar  182  HIS182     -0.2212
    121  N        159.4620  110.4150  241.0660 N.3   230  ILE230     -0.1245
    122  CA       159.1910  111.4760  240.0990 C.3   230  ILE230      0.1561
    123  C        159.9940  111.2410  238.8150 C.2   230  ILE230      0.2260
    124  O        160.9720  110.4950  238.8030 O.2   230  ILE230     -0.2867
    125  CB       159.5220  112.8800  240.6770 C.3   230  ILE230      0.0252
    126  CG1      158.7150  113.9710  239.9610 C.3   230  ILE230      0.0019
    127  CG2      161.0360  113.1640  240.6280 C.3   230  ILE230      0.0019
    128  CD1      158.6870  115.3090  240.7120 C.3   230  ILE230      0.0001
    129  N        173.0740  122.2420  240.5860 N.3   269  ARG269     -0.1245
    130  CA       173.1060  123.3970  241.4720 C.3   269  ARG269      0.1563
    131  C        174.2730  123.1720  242.4150 C.2   269  ARG269      0.2260
    132  O        174.5600  122.0390  242.8130 O.2   269  ARG269     -0.2867
    133  CB       171.7950  123.5720  242.2410 C.3   269  ARG269      0.0307
    134  CG       170.6610  124.0030  241.3520 C.3   269  ARG269      0.0489
    135  CD       169.3630  124.2810  242.0980 C.3   269  ARG269      0.2205
    136  NE       168.2580  124.2450  241.1430 N.pl3 269  ARG269     -0.0865
    137  CZ       167.9310  125.2490  240.3350 C.cat 269  ARG269      0.5346
    138  NH1      168.5980  126.3960  240.3800 N.pl3 269  ARG269      0.1354
    139  NH2      166.9200  125.1100  239.4930 N.pl3 269  ARG269      0.1354
    140  N        175.7870  117.1730  246.1400 N.3   274  LYS274     -0.1245
    141  CA       175.8810  116.7460  244.7280 C.3   274  LYS274      0.1561
    142  C        177.1570  115.9960  244.3570 C.2   274  LYS274      0.2260
    143  O        177.2590  115.4690  243.2390 O.2   274  LYS274     -0.2867
    144  CB       175.7310  117.9540  243.7880 C.3   274  LYS274      0.0271
    145  CG       174.4090  118.6950  243.9560 C.3   274  LYS274      0.0035
    146  CD       173.2250  117.7920  243.6320 C.3   274  LYS274      0.0206
    147  CE       171.8910  118.5330  243.7890 C.3   274  LYS274      0.1093
    148  NZ       170.7280  117.7410  243.2730 N.3   274  LYS274     -0.1314
    149  N        172.0380  129.5530  247.1070 N.3   307  ARG307     -0.1245
    150  CA       172.0640  129.7700  248.5550 C.3   307  ARG307      0.1563
    151  C        173.3060  130.5120  249.0450 C.2   307  ARG307      0.2260
    152  O        173.9360  130.1180  250.0270 O.2   307  ARG307     -0.2867
    153  CB       171.9360  128.4180  249.2770 C.3   307  ARG307      0.0307
    154  CG       170.6730  127.6590  248.8840 C.3   307  ARG307      0.0489
    155  CD       170.5700  126.2860  249.5260 C.3   307  ARG307      0.2205
    156  NE       169.3600  125.5920  249.0810 N.pl3 307  ARG307     -0.0865
    157  CZ       168.9770  124.3940  249.5110 C.cat 307  ARG307      0.5346
    158  NH1      169.7080  123.7460  250.4140 N.pl3 307  ARG307      0.1354
    159  NH2      167.8610  123.8500  249.0470 N.pl3 307  ARG307      0.1354
    160  N        170.6740  112.2050  247.1720 N.3   368  ASP368     -0.1225
    161  CA       169.7640  113.0220  246.3600 C.3   368  ASP368      0.1805
    162  C        168.3880  112.3670  246.3030 C.2   368  ASP368      0.2598
    163  O        168.2970  111.1500  246.1400 O.2   368  ASP368     -0.2718
    164  CB       170.3320  113.1990  244.9370 C.3   368  ASP368      0.1424
    165  CG       169.9240  114.5170  244.2910 C.2   368  ASP368      0.3668
    166  OD1      169.0550  115.2370  244.8390 O.co2 368  ASP368     -0.2456
    167  OD2      170.5000  114.8450  243.2320 O.co2 368  ASP368     -0.2456
    168  N        167.3250  113.1590  246.4410 N.am  369  GLY369     -0.1942
    169  CA       165.9700  112.6170  246.4290 C.3   369  GLY369      0.2014
    170  C        165.6730  111.8030  245.1720 C.2   369  GLY369      0.2639
    171  O        165.2820  110.6390  245.2470 O.2   369  GLY369     -0.2714
    172  N        165.8660  112.4090  244.0070 N.am  370  MET370     -0.1963
    173  CA       165.7160  111.6610  242.7510 C.3   370  MET370      0.1736
    174  C        166.9050  111.9390  241.8430 C.2   370  MET370      0.2616
    175  O        167.6870  111.0310  241.5340 O.2   370  MET370     -0.2715
    176  CB       164.4040  112.0170  242.0400 C.3   370  MET370      0.0427
    177  CG       164.2550  111.3600  240.6190 C.3   370  MET370      0.0599
    178  SD       164.2920  109.5570  240.7020 S.3   370  MET370     -0.1393
    179  CE       162.8830  109.1870  241.7320 C.3   370  MET370      0.0692
    180  N        167.0320  113.2150  241.4790 N.am  371  ASN371     -0.1958
    181  CA       167.9550  113.7540  240.4780 C.3   371  ASN371      0.1819
    182  C        167.4110  113.5490  239.0680 C.2   371  ASN371      0.2621
    183  O        167.4660  112.4580  238.4940 O.2   371  ASN371     -0.2715
    184  CB       169.3650  113.1730  240.5710 C.3   371  ASN371      0.1195
    185  CG       170.3570  113.9600  239.7370 C.2   371  ASN371      0.2630
    186  OD1      170.3020  113.9440  238.5030 O.2   371  ASN371     -0.2716
    187  ND2      171.2570  114.6780  240.4050 N.am  371  ASN371     -0.0877
    188  N        166.8930  114.6290  238.5120 N.am  372  LEU372     -0.1977
    189  CA       166.2700  114.5680  237.1980 C.3   372  LEU372      0.1596
    190  C        167.2560  114.8610  236.0690 C.2   372  LEU372      0.2287
    191  O        166.9580  114.6020  234.9100 O.2   372  LEU372     -0.2864
    192  CB       165.0870  115.5280  237.1460 C.3   372  LEU372      0.0297
    193  CG       163.9420  115.0630  238.0500 C.3   372  LEU372      0.0022
    194  CD1      162.7740  116.0270  237.9920 C.3   372  LEU372      0.0001
    195  CD2      163.5050  113.6320  237.6820 C.3   372  LEU372      0.0001
@<TRIPOS>BOND
     1   191   190    2
     2   190   189    1
     3   192   189    1
     4   192   193    1
     5   189   188    1
     6   195   193    1
     7   194   193    1
     8   183   182    2
     9   186   185    2
    10   188   182   am
    11   124   123    2
    12   123   122    1
    13   182   181    1
    14   139   137    1
    15   185   187   am
    16   185   184    1
    17   126   125    1
    18   126   128    1
    19   122   125    1
    20   122   121    1
    21   137   138    1
    22   137   136    2
    23   181   184    1
    24   181   180    1
    25   129   130    1
    26   177   178    1
    27   177   176    1
    28   127   125    1
    29   178   179    1
    30   136   135    1
    31   134   135    1
    32   134   133    1
    33   130   133    1
    34   130   131    1
    35   180   174   am
    36   175   174    2
    37   174   173    1
    38   176   173    1
    39   131   132    2
    40   173   172    1
    41   167   165   ar
    42   143   142    2
    43   148   147    1
    44   146   147    1
    45   146   145    1
    46    12    11    2
    47   144   145    1
    48   144   141    1
    49   118   120   ar
    50   118   116   ar
    51   120   119   ar
    52   101    99   ar
    53   101   102   ar
    54   172   170   am
    55    11    10    1
    56    99    98   ar
    57    15    16    1
    58    15    14    1
    59    13    14    1
    60    13    10    1
    61   165   166   ar
    62   165   164    1
    63    18    17    1
    64   142   141    1
    65   141   140    1
    66   119   117   ar
    67   116   115    1
    68   116   117   ar
    69   102   100   ar
    70   164   161    1
    71    16    17    2
    72    17    19    1
    73    10     9    1
    74   114   113    2
    75   170   171    2
    76   170   169    1
    77   115   112    1
    78    98   100   ar
    79    98    97    1
    80   112   113    1
    81   112   111    1
    82     9     3   am
    83   163   162    2
    84    97    94    1
    85   162   161    1
    86   162   168   am
    87   161   160    1
    88   169   168    1
    89    96    95    2
    90    94    95    1
    91    94    93    1
    92   149   150    1
    93     3     4    2
    94     3     2    1
    95    95   103   am
    96    31    30    1
    97    71    69   ar
    98     1     2    1
    99    53    51   ar
   100    53    52   ar
   101     2     5    1
   102    69    68    1
   103    69    70   ar
   104    51    49   ar
   105   150   151    1
   106   150   153    1
   107     8     6   am
   108   103   104    1
   109     5     6    1
   110    68    65    1
   111    30    29   ar
   112    30    28   ar
   113   154   153    1
   114   154   155    1
   115    52    50   ar
   116   151   152    2
   117   159   157    1
   118   156   157    2
   119   156   155    1
   120   109   107    1
   121   104   105    1
   122   104   107    1
   123    29    27   ar
   124     6     7    2
   125    92    90   am
   126    64    65    1
   127   157   158    1
   128    63    61   ar
   129    63    62   ar
   130    65    66    1
   131    28    26   ar
   132    49    48   ar
   133    49    47   ar
   134   105   106    2
   135   107   108    1
   136    91    90    2
   137    61    59   ar
   138    90    89    1
   139    50    47   ar
   140    27    25   ar
   141    80    78   ar
   142    80    82   ar
   143    48    46   ar
   144    62    60   ar
   145    47    45   ar
   146    78    77   ar
   147    83    82    1
   148    26    25   ar
   149    66    72   am
   150    66    67    2
   151   108   110    1
   152    39    37   am
   153    59    60   ar
   154    59    58    1
   155    25    24    1
   156    82    81   ar
   157    72    73    1
   158    38    37    2
   159    89    88    1
   160    46    45   ar
   161    37    36    1
   162    45    44    1
   163    77    76    1
   164    77    79   ar
   165    88    85    1
   166    58    55    1
   167    24    21    1
   168    81    79   ar
   169    84    85    1
   170    84    74   am
   171    73    76    1
   172    73    74    1
   173    36    33    1
   174    44    41    1
   175    55    56    1
   176    55    54    1
   177    85    86    1
   178    74    75    2
   179    33    32    1
   180    33    34    1
   181    57    56    2
   182    21    22    1
   183    21    20    1
   184    22    23    2
   185    86    87    2
   186    43    42    2
   187    41    42    1
   188    41    40    1
   189    35    34    2
