@<TRIPOS>MOLECULE
tmp/5k48B00.pdb
 129 128 0 0 0
SMALL
GASTEIGER

@<TRIPOS>ATOM
      1  N        -25.8990   -6.3690   64.8720 N.3    31  PHE31      -0.1241
      2  CA       -26.8670   -6.6920   63.8330 C.3    31  PHE31       0.1605
      3  C        -26.7870   -5.6480   62.7300 C.2    31  PHE31       0.2264
      4  O        -26.7900   -4.4440   63.0080 O.2    31  PHE31      -0.2867
      5  CB       -28.2870   -6.7520   64.4080 C.3    31  PHE31       0.0534
      6  CG       -29.3280   -7.1950   63.4160 C.ar   31  PHE31      -0.0203
      7  CD1      -29.5100   -8.5400   63.1380 C.ar   31  PHE31      -0.0042
      8  CD2      -30.1280   -6.2670   62.7680 C.ar   31  PHE31      -0.0042
      9  CE1      -30.4680   -8.9530   62.2280 C.ar   31  PHE31      -0.0003
     10  CE2      -31.0880   -6.6730   61.8570 C.ar   31  PHE31      -0.0003
     11  CZ       -31.2580   -8.0180   61.5870 C.ar   31  PHE31      -0.0000
     12  N        -26.8390   -3.1140   69.1090 N.3    36  TYR36      -0.1228
     13  CA       -28.0680   -2.7960   69.8160 C.3    36  TYR36       0.1721
     14  C        -28.0750   -3.4350   71.1960 C.2    36  TYR36       0.2437
     15  O        -27.5360   -4.5310   71.3810 O.2    36  TYR36      -0.2733
     16  CB       -29.2970   -3.2800   69.0350 C.3    36  TYR36       0.0547
     17  CG       -29.3980   -2.7070   67.6430 C.ar   36  TYR36      -0.0200
     18  CD1      -29.7280   -1.3740   67.4460 C.ar   36  TYR36      -0.0009
     19  CD2      -29.1680   -3.4990   66.5260 C.ar   36  TYR36      -0.0009
     20  CE1      -29.8230   -0.8430   66.1780 C.ar   36  TYR36       0.0417
     21  CE2      -29.2610   -2.9740   65.2490 C.ar   36  TYR36       0.0417
     22  CZ       -29.5900   -1.6450   65.0830 C.ar   36  TYR36       0.1957
     23  OH       -29.6870   -1.1100   63.8200 O.3    36  TYR36      -0.2866
     24  N        -28.6840   -2.7770   72.1800 N.am   37  PRO37      -0.2729
     25  CA       -28.8710   -3.3960   73.4930 C.3    37  PRO37       0.1401
     26  C        -30.1340   -4.2450   73.5220 C.2    37  PRO37       0.2269
     27  O        -31.0080   -4.1410   72.6590 O.2    37  PRO37      -0.2865
     28  CB       -29.0080   -2.1820   74.4190 C.3    37  PRO37       0.0296
     29  CG       -29.7420   -1.1920   73.5670 C.3    37  PRO37       0.0237
     30  CD       -29.2640   -1.4210   72.1410 C.3    37  PRO37       0.0939
     31  N        -29.6290  -12.9000   73.8600 N.3    56  TRP56      -0.1241
     32  CA       -29.4240  -12.6840   72.4330 C.3    56  TRP56       0.1605
     33  C        -28.1710  -13.3900   71.9320 C.2    56  TRP56       0.2264
     34  O        -27.2450  -12.7440   71.4320 O.2    56  TRP56      -0.2867
     35  CB       -29.3510  -11.1850   72.1260 C.3    56  TRP56       0.0550
     36  CG       -29.7090  -10.8310   70.7010 C.ar   56  TRP56       0.0003
     37  CD1      -29.8620  -11.6940   69.6500 C.ar   56  TRP56       0.0946
     38  CD2      -29.9650   -9.5200   70.1800 C.ar   56  TRP56       0.0152
     39  NE1      -30.1960  -11.0000   68.5120 N.ar   56  TRP56      -0.2442
     40  CE2      -30.2650   -9.6640   68.8100 C.ar   56  TRP56       0.0810
     41  CE3      -29.9720   -8.2390   70.7390 C.ar   56  TRP56       0.0012
     42  CZ2      -30.5660   -8.5750   67.9920 C.ar   56  TRP56       0.0191
     43  CZ3      -30.2700   -7.1590   69.9250 C.ar   56  TRP56       0.0001
     44  CH2      -30.5630   -7.3340   68.5680 C.ar   56  TRP56       0.0015
     45  N        -40.9220  -14.2260   72.9360 N.3    83  HIS83      -0.1241
     46  CA       -41.3260  -14.4690   71.5510 C.3    83  HIS83       0.1621
     47  C        -40.1600  -15.1570   70.8470 C.2    83  HIS83       0.2264
     48  O        -39.1500  -15.4920   71.4700 O.2    83  HIS83      -0.2867
     49  CB       -41.8140  -13.1870   70.8420 C.3    83  HIS83       0.0745
     50  CG       -40.7610  -12.1500   70.5800 C.ar   83  HIS83       0.0817
     51  ND1      -40.3850  -11.2110   71.5200 N.ar   83  HIS83      -0.2268
     52  CD2      -40.0790  -11.8410   69.4520 C.ar   83  HIS83       0.1154
     53  CE1      -39.4790  -10.4050   70.9970 C.ar   83  HIS83       0.1986
     54  NE2      -39.2750  -10.7640   69.7420 N.ar   83  HIS83      -0.2212
     55  N        -37.9800  -14.5010   68.3620 N.3    85  HIS85      -0.1226
     56  CA       -36.7880  -13.9140   67.7700 C.3    85  HIS85       0.1752
     57  C        -35.5430  -14.3160   68.5660 C.2    85  HIS85       0.2596
     58  O        -35.6210  -14.8120   69.6930 O.2    85  HIS85      -0.2718
     59  CB       -36.9210  -12.3940   67.7010 C.3    85  HIS85       0.0759
     60  CG       -37.8970  -11.9220   66.6660 C.ar   85  HIS85       0.0818
     61  ND1      -38.4220  -10.6470   66.6630 N.ar   85  HIS85      -0.2268
     62  CD2      -38.4370  -12.5520   65.5960 C.ar   85  HIS85       0.1154
     63  CE1      -39.2470  -10.5140   65.6400 C.ar   85  HIS85       0.1986
     64  NE2      -39.2760  -11.6550   64.9770 N.ar   85  HIS85      -0.2212
     65  N        -34.3750  -14.0890   67.9560 N.am   86  ASP86      -0.1960
     66  CA       -33.1180  -14.5680   68.5240 C.3    86  ASP86       0.1840
     67  C        -32.7390  -13.8610   69.8190 C.2    86  ASP86       0.2622
     68  O        -31.9930  -14.4350   70.6190 O.2    86  ASP86      -0.2715
     69  CB       -31.9830  -14.4060   67.5090 C.3    86  ASP86       0.1450
     70  CG       -32.0950  -15.3700   66.3420 C.2    86  ASP86       0.3671
     71  OD1      -32.4870  -16.5370   66.5580 O.co2  86  ASP86      -0.2456
     72  OD2      -31.7840  -14.9600   65.2040 O.co2  86  ASP86      -0.2456
     73  N        -33.2140  -12.6370   70.0510 N.am   87  ASP87      -0.1971
     74  CA       -32.9150  -11.9840   71.3190 C.3    87  ASP87       0.1709
     75  C        -33.7440  -12.5430   72.4660 C.2    87  ASP87       0.2293
     76  O        -33.5620  -12.1140   73.6120 O.2    87  ASP87      -0.2864
     77  CB       -33.1060  -10.4660   71.2140 C.3    87  ASP87       0.1436
     78  CG       -34.5220  -10.0640   70.8600 C.2    87  ASP87       0.3671
     79  OD1      -35.2670  -10.8900   70.2920 O.co2  87  ASP87      -0.2456
     80  OD2      -34.8830   -8.9010   71.1440 O.co2  87  ASP87      -0.2456
     81  N        -45.7170   -6.5780   68.3940 N.3   148  HIS148     -0.1241
     82  CA       -44.3910   -6.7350   67.8030 C.3   148  HIS148      0.1621
     83  C        -44.2880   -8.0460   67.0340 C.2   148  HIS148      0.2264
     84  O        -43.6380   -8.1150   65.9840 O.2   148  HIS148     -0.2867
     85  CB       -43.3300   -6.6720   68.9040 C.3   148  HIS148      0.0745
     86  CG       -41.9590   -7.0790   68.4560 C.ar  148  HIS148      0.0817
     87  ND1      -41.1290   -6.2440   67.7390 N.ar  148  HIS148     -0.2268
     88  CD2      -41.2680   -8.2310   68.6340 C.ar  148  HIS148      0.1154
     89  CE1      -39.9890   -6.8650   67.4910 C.ar  148  HIS148      0.1986
     90  NE2      -40.0480   -8.0720   68.0250 N.ar  148  HIS148     -0.2212
     91  N        -40.5030   -6.8110   73.6300 N.3   167  CYS167     -0.1235
     92  CA       -40.3290   -5.9990   72.4360 C.3   167  CYS167      0.1677
     93  C        -41.6420   -5.4510   71.8900 C.2   167  CYS167      0.2270
     94  O        -41.6210   -4.6930   70.9140 O.2   167  CYS167     -0.2867
     95  CB       -39.5790   -6.8210   71.3910 C.3   167  CYS167      0.0956
     96  SG       -38.0280   -7.4290   72.0950 S.3   167  CYS167     -0.0801
     97  N        -36.8950    5.7750   71.4550 N.3   174  ARG174     -0.1245
     98  CA       -37.1880    5.2600   70.1240 C.3   174  ARG174      0.1563
     99  C        -38.4760    5.9050   69.6280 C.2   174  ARG174      0.2260
    100  O        -39.5590    5.6390   70.1600 O.2   174  ARG174     -0.2867
    101  CB       -37.2960    3.7380   70.1500 C.3   174  ARG174      0.0307
    102  CG       -37.6760    3.1350   68.8080 C.3   174  ARG174      0.0489
    103  CD       -37.2740    1.6710   68.7000 C.3   174  ARG174      0.2205
    104  NE       -35.8720    1.5070   68.3220 N.pl3 174  ARG174     -0.0865
    105  CZ       -35.4090    1.6350   67.0810 C.cat 174  ARG174      0.5346
    106  NH1      -36.2350    1.9410   66.0870 N.pl3 174  ARG174      0.1354
    107  NH2      -34.1170    1.4630   66.8300 N.pl3 174  ARG174      0.1354
    108  N        -39.1670   -0.0780   64.8340 N.3   178  GLY178     -0.1210
    109  CA       -37.9350   -0.8210   64.6550 C.3   178  GLY178      0.1956
    110  C        -38.0830   -2.0140   63.7340 C.2   178  GLY178      0.2611
    111  O        -38.2570   -1.8530   62.5220 O.2   178  GLY178     -0.2717
    112  N        -38.0060   -3.2200   64.2940 N.am  179  ASN179     -0.1974
    113  CA       -38.1620   -4.4500   63.5190 C.3   179  ASN179      0.1688
    114  C        -39.6300   -4.8500   63.5590 C.2   179  ASN179      0.2292
    115  O        -40.0840   -5.4950   64.5080 O.2   179  ASN179     -0.2864
    116  CB       -37.2740   -5.5600   64.0720 C.3   179  ASN179      0.1181
    117  CG       -37.4640   -6.8750   63.3380 C.2   179  ASN179      0.2629
    118  OD1      -37.8810   -6.8950   62.1800 O.2   179  ASN179     -0.2716
    119  ND2      -37.1660   -7.9810   64.0110 N.am  179  ASN179     -0.0877
    120  N        -35.8900   -3.4630   74.6110 N.3   209  HIS209     -0.1241
    121  CA       -34.6330   -2.8190   74.2500 C.3   209  HIS209      0.1621
    122  C        -34.6400   -1.4090   74.8180 C.2   209  HIS209      0.2264
    123  O        -35.5670   -0.6390   74.5510 O.2   209  HIS209     -0.2867
    124  CB       -34.4520   -2.7860   72.7270 C.3   209  HIS209      0.0745
    125  CG       -34.5110   -4.1350   72.0810 C.ar  209  HIS209      0.0817
    126  ND1      -33.4120   -4.9610   71.9810 N.ar  209  HIS209     -0.2268
    127  CD2      -35.5380   -4.8050   71.5030 C.ar  209  HIS209      0.1154
    128  CE1      -33.7570   -6.0790   71.3680 C.ar  209  HIS209      0.1986
    129  NE2      -35.0420   -6.0100   71.0690 N.ar  209  HIS209     -0.2212
@<TRIPOS>BOND
     1    11    10   ar
     2    11     9   ar
     3    10     8   ar
     4   118   117    2
     5     9     7   ar
     6   111   110    2
     7     3     4    2
     8     3     2    1
     9     8     6   ar
    10     7     6   ar
    11   117   119   am
    12   117   116    1
    13     6     5    1
    14   113   114    1
    15   113   116    1
    16   113   112    1
    17   114   115    2
    18   110   112   am
    19   110   109    1
    20    23    22    1
    21     2     5    1
    22     2     1    1
    23   109   108    1
    24    64    62   ar
    25    64    63   ar
    26    22    21   ar
    27    22    20   ar
    28    72    70   ar
    29    21    19   ar
    30    62    60   ar
    31    63    61   ar
    32    84    83    2
    33   106   105    1
    34    20    18   ar
    35    70    71   ar
    36    70    69    1
    37    19    17   ar
    38    61    60   ar
    39    60    59    1
    40   107   105    1
    41    83    82    1
    42   105   104    2
    43    18    17   ar
    44    89    87   ar
    45    89    90   ar
    46    69    66    1
    47    17    16    1
    48    59    56    1
    49    87    86   ar
    50    56    55    1
    51    56    57    1
    52    82    81    1
    53    82    85    1
    54    65    66    1
    55    65    57   am
    56    42    44   ar
    57    42    40   ar
    58    90    88   ar
    59   104   103    1
    60    86    88   ar
    61    86    85    1
    62    39    40   ar
    63    39    37   ar
    64    66    67    1
    65    57    58    2
    66    44    43   ar
    67   103   102    1
    68   102   101    1
    69    40    38   ar
    70    16    13    1
    71    12    13    1
    72    52    54   ar
    73    52    50   ar
    74    99    98    1
    75    99   100    2
    76    37    36   ar
    77    54    53   ar
    78    13    14    1
    79    67    73   am
    80    67    68    2
    81    43    41   ar
    82    73    74    1
    83    98   101    1
    84    98    97    1
    85    38    36   ar
    86    38    41   ar
    87    79    78   ar
    88    50    49    1
    89    50    51   ar
    90    36    35    1
    91    49    46    1
    92    47    48    2
    93    47    46    1
    94    78    80   ar
    95    78    77    1
    96    94    93    2
    97    53    51   ar
    98   129   128   ar
    99   129   127   ar
   100    14    15    2
   101    14    24   am
   102    77    74    1
   103    74    75    1
   104   128   126   ar
   105    95    96    1
   106    95    92    1
   107    34    33    2
   108   127   125   ar
   109    46    45    1
   110    93    92    1
   111    33    32    1
   112   126   125   ar
   113   125   124    1
   114    35    32    1
   115    30    24    1
   116    30    29    1
   117    24    25    1
   118    32    31    1
   119    92    91    1
   120    75    76    2
   121    27    26    2
   122   124   121    1
   123    25    26    1
   124    25    28    1
   125    29    28    1
   126   121   120    1
   127   121   122    1
   128   123   122    2
