@<TRIPOS>MOLECULE
tmp/5k4gA00.pdb
 70 67 0 0 0
SMALL
GASTEIGER

@<TRIPOS>ATOM
      1  N        -18.2270  -47.8270  -69.0100 N.3    57  GLY57      -0.1210
      2  CA       -19.1110  -46.8270  -68.3540 C.3    57  GLY57       0.1956
      3  C        -18.9670  -45.4830  -69.1030 C.2    57  GLY57       0.2613
      4  O        -17.8820  -45.1510  -69.6310 O.2    57  GLY57      -0.2717
      5  N        -20.0260  -44.6630  -69.1360 N.am   58  SER58      -0.1938
      6  CA       -19.9410  -43.4050  -69.9190 C.3    58  SER58       0.2055
      7  C        -19.0120  -42.3830  -69.3400 C.2    58  SER58       0.2642
      8  O        -18.5800  -41.4640  -70.0640 O.2    58  SER58      -0.2714
      9  CB       -21.3410  -42.8200  -70.2290 C.3    58  SER58       0.2130
     10  OG       -21.8440  -42.0950  -69.1610 O.3    58  SER58      -0.2179
     11  N        -18.6860  -42.4820  -68.0580 N.am   59  GLN59      -0.1976
     12  CA       -17.7050  -41.6110  -67.4420 C.3    59  GLN59       0.1601
     13  C        -16.2670  -41.8640  -67.9820 C.2    59  GLN59       0.2287
     14  O        -15.3810  -41.0980  -67.6430 O.2    59  GLN59      -0.2864
     15  CB       -17.7470  -41.6390  -65.9220 C.3    59  GLN59       0.0394
     16  CG       -17.3030  -43.0050  -65.2910 C.3    59  GLN59       0.0908
     17  CD       -18.4600  -43.9320  -65.0700 C.2    59  GLN59       0.2608
     18  OE1      -19.2450  -44.2380  -65.9860 O.2    59  GLN59      -0.2717
     19  NE2      -18.6540  -44.3340  -63.8000 N.am   59  GLN59      -0.0878
     20  N        -26.3750  -46.4370  -73.8650 N.3    89  HIS89      -0.1226
     21  CA       -25.2930  -45.5840  -73.3930 C.3    89  HIS89       0.1752
     22  C        -25.4800  -45.3230  -71.9220 C.2    89  HIS89       0.2597
     23  O        -26.6440  -45.2540  -71.4210 O.2    89  HIS89      -0.2718
     24  CB       -25.3580  -44.2310  -74.2100 C.3    89  HIS89       0.0759
     25  CG       -24.1330  -43.3840  -74.2230 C.ar   89  HIS89       0.0818
     26  ND1      -23.6940  -42.6540  -73.1440 N.ar   89  HIS89      -0.2268
     27  CD2      -23.2900  -43.0930  -75.2330 C.ar   89  HIS89       0.1154
     28  CE1      -22.6060  -41.9780  -73.4780 C.ar   89  HIS89       0.1986
     29  NE2      -22.3690  -42.1960  -74.7580 N.ar   89  HIS89      -0.2212
     30  N        -24.3950  -45.1350  -71.1880 N.am   90  GLY90      -0.1942
     31  CA       -24.4750  -44.7210  -69.8030 C.3    90  GLY90       0.2014
     32  C        -25.0370  -43.2830  -69.7380 C.2    90  GLY90       0.2640
     33  O        -24.9100  -42.4890  -70.6940 O.2    90  GLY90      -0.2714
     34  N        -25.7480  -42.9870  -68.6780 N.am   91  THR91      -0.1936
     35  CA       -26.4090  -41.6920  -68.5970 C.3    91  THR91       0.2028
     36  C        -25.4770  -40.5000  -68.3690 C.2    91  THR91       0.2642
     37  O        -25.8140  -39.3910  -68.7360 O.2    91  THR91      -0.2714
     38  CB       -27.5280  -41.7220  -67.5210 C.3    91  THR91       0.1808
     39  OG1      -26.9480  -42.0040  -66.2480 O.3    91  THR91      -0.2208
     40  CG2      -28.6060  -42.7330  -67.8840 C.3    91  THR91       0.0379
     41  N        -24.3470  -40.6900  -67.7150 N.am   92  ASP92      -0.1971
     42  CA       -23.4820  -39.6100  -67.2610 C.3    92  ASP92       0.1709
     43  C        -23.0410  -38.6410  -68.3920 C.2    92  ASP92       0.2293
     44  O        -23.0740  -37.4150  -68.1830 O.2    92  ASP92      -0.2864
     45  CB       -22.2390  -40.1220  -66.5700 C.3    92  ASP92       0.1436
     46  CG       -22.5320  -40.7530  -65.1850 C.2    92  ASP92       0.3671
     47  OD1      -23.7150  -40.8290  -64.7460 O.co2  92  ASP92      -0.2456
     48  OD2      -21.5180  -41.2130  -64.5770 O.co2  92  ASP92      -0.2456
     49  N        -30.4660  -45.9240  -68.7310 N.3   116  ALA116     -0.1231
     50  CA       -31.2370  -46.2680  -67.5190 C.3   116  ALA116      0.1694
     51  C        -30.5770  -45.6960  -66.3190 C.2   116  ALA116      0.2591
     52  O        -29.3890  -45.8250  -66.1100 O.2   116  ALA116     -0.2718
     53  CB       -31.3830  -47.7940  -67.4010 C.3   116  ALA116      0.0304
     54  N        -31.3540  -45.0050  -65.5070 N.am  117  MET117     -0.1979
     55  CA       -30.8600  -44.4630  -64.2730 C.3   117  MET117      0.1605
     56  C        -30.7790  -45.4820  -63.1170 C.2   117  MET117      0.2287
     57  O        -30.1020  -45.2130  -62.1380 O.2   117  MET117     -0.2864
     58  CB       -31.7920  -43.2700  -63.8670 C.3   117  MET117      0.0413
     59  CG       -31.6850  -42.0790  -64.7990 C.3   117  MET117      0.0598
     60  SD       -30.0940  -41.2590  -64.6230 S.3   117  MET117     -0.1393
     61  CE       -30.0790  -40.7680  -62.8990 C.3   117  MET117      0.0692
     62  N        -28.4480  -34.1590  -68.5320 N.3   164  LYS164     -0.1245
     63  CA       -28.7100  -34.7770  -67.2270 C.3   164  LYS164      0.1561
     64  C        -28.6400  -33.7380  -66.1510 C.2   164  LYS164      0.2260
     65  O        -27.5870  -33.1660  -65.8700 O.2   164  LYS164     -0.2867
     66  CB       -27.6750  -35.8970  -66.9900 C.3   164  LYS164      0.0271
     67  CG       -27.9980  -36.7640  -65.7590 C.3   164  LYS164      0.0035
     68  CD       -27.0090  -37.9450  -65.6310 C.3   164  LYS164      0.0206
     69  CE       -27.3700  -38.7930  -64.4260 C.3   164  LYS164      0.1093
     70  NZ       -26.5420  -40.0670  -64.4230 N.3   164  LYS164     -0.1314
@<TRIPOS>BOND
     1    27    29   ar
     2    27    25   ar
     3    29    28   ar
     4    25    24    1
     5    25    26   ar
     6    24    21    1
     7    20    21    1
     8    28    26   ar
     9    21    22    1
    10    22    23    2
    11    22    30   am
    12    30    31    1
    13    33    32    2
    14     9     6    1
    15     9    10    1
    16     8     7    2
    17     6     7    1
    18     6     5    1
    19    31    32    1
    20    32    34   am
    21     4     3    2
    22     7    11   am
    23     5     3   am
    24     3     2    1
    25     1     2    1
    26    37    36    2
    27    49    50    1
    28    34    35    1
    29    35    36    1
    30    35    38    1
    31    62    63    1
    32    43    44    2
    33    43    42    1
    34    36    41   am
    35    11    12    1
    36    13    14    2
    37    13    12    1
    38    40    38    1
    39    41    42    1
    40    38    39    1
    41    50    53    1
    42    50    51    1
    43    12    15    1
    44    42    45    1
    45    63    66    1
    46    63    64    1
    47    66    67    1
    48    45    46    1
    49    51    52    2
    50    51    54   am
    51    64    65    2
    52    18    17    2
    53    15    16    1
    54    67    68    1
    55    68    69    1
    56    54    55    1
    57    16    17    1
    58    46    47   ar
    59    46    48   ar
    60    17    19   am
    61    59    60    1
    62    59    58    1
    63    60    61    1
    64    69    70    1
    65    55    58    1
    66    55    56    1
    67    56    57    2
