@<TRIPOS>MOLECULE
tmp/5k4hB00.pdb
 78 74 0 0 0
SMALL
GASTEIGER

@<TRIPOS>ATOM
      1  N          8.9330   61.5270   63.8310 N.3    13  ILE13      -0.1245
      2  CA         8.3270   61.3290   62.5070 C.3    13  ILE13       0.1561
      3  C          7.7910   59.9220   62.3450 C.2    13  ILE13       0.2260
      4  O          7.1150   59.6330   61.3810 O.2    13  ILE13      -0.2867
      5  CB         9.3110   61.6940   61.3700 C.3    13  ILE13       0.0252
      6  CG1       10.5480   60.8060   61.4060 C.3    13  ILE13       0.0019
      7  CG2        9.7140   63.1610   61.4980 C.3    13  ILE13       0.0019
      8  CD1       11.2940   60.7540   60.0960 C.3    13  ILE13       0.0001
      9  N          7.5830   72.7410   64.5750 N.3    49  GLY49      -0.1210
     10  CA         7.1180   72.4850   63.2170 C.3    49  GLY49       0.1956
     11  C          7.9660   73.2940   62.2470 C.2    49  GLY49       0.2613
     12  O          8.4620   74.3880   62.5920 O.2    49  GLY49      -0.2717
     13  N          8.1750   72.7520   61.0460 N.am   50  SER50      -0.1938
     14  CA         9.0860   73.3660   60.0610 C.3    50  SER50       0.2055
     15  C          8.5680   74.6980   59.5090 C.2    50  SER50       0.2642
     16  O          9.3550   75.5180   59.0210 O.2    50  SER50      -0.2714
     17  CB         9.4510   72.3880   58.9470 C.3    50  SER50       0.2130
     18  OG         8.4290   72.3090   57.9610 O.3    50  SER50      -0.2179
     19  N          7.2620   74.9290   59.6080 N.am   51  GLN51      -0.1976
     20  CA         6.7080   76.2580   59.3150 C.3    51  GLN51       0.1601
     21  C          7.1230   77.3490   60.3050 C.2    51  GLN51       0.2287
     22  O          6.8690   78.5240   60.0510 O.2    51  GLN51      -0.2864
     23  CB         5.1820   76.2520   59.2040 C.3    51  GLN51       0.0394
     24  CG         4.3990   75.9970   60.4770 C.3    51  GLN51       0.0908
     25  CD         4.1130   74.5420   60.6580 C.2    51  GLN51       0.2608
     26  OE1        5.0210   73.7020   60.6720 O.2    51  GLN51      -0.2717
     27  NE2        2.8310   74.2130   60.8090 N.am   51  GLN51      -0.0878
     28  N         12.8890   66.2000   60.1890 N.3    81  HIS81      -0.1226
     29  CA        12.4640   67.5570   59.8530 C.3    81  HIS81       0.1752
     30  C         11.0420   67.5420   59.3330 C.2    81  HIS81       0.2597
     31  O         10.6050   66.5760   58.7120 O.2    81  HIS81      -0.2718
     32  CB        13.4010   68.0650   58.7680 C.3    81  HIS81       0.0759
     33  CG        13.4790   69.5560   58.6230 C.ar   81  HIS81       0.0818
     34  ND1       12.4760   70.3180   58.0580 N.ar   81  HIS81      -0.2268
     35  CD2       14.4930   70.4140   58.8880 C.ar   81  HIS81       0.1154
     36  CE1       12.8550   71.5830   58.0130 C.ar   81  HIS81       0.1986
     37  NE2       14.0810   71.6680   58.4980 N.ar   81  HIS81      -0.2212
     38  N         10.3200   68.6150   59.6090 N.am   82  GLY82      -0.1942
     39  CA         8.9920   68.7880   59.0620 C.3    82  GLY82       0.2014
     40  C          9.1010   69.0120   57.5490 C.2    82  GLY82       0.2640
     41  O         10.1100   69.5200   57.0630 O.2    82  GLY82      -0.2714
     42  N          8.0750   68.6030   56.8140 N.am   83  THR83      -0.1936
     43  CA         8.1580   68.5490   55.3680 C.3    83  THR83       0.2028
     44  C          7.9660   69.8980   54.7520 C.2    83  THR83       0.2642
     45  O          8.4840   70.1310   53.6760 O.2    83  THR83      -0.2714
     46  CB         7.1440   67.5600   54.7570 C.3    83  THR83       0.1808
     47  OG1        5.8140   67.9250   55.1430 O.3    83  THR83      -0.2208
     48  CG2        7.4460   66.1630   55.1820 C.3    83  THR83       0.0379
     49  N          7.2680   70.8090   55.4420 N.am   84  ASP84      -0.1971
     50  CA         6.9250   72.0950   54.8400 C.3    84  ASP84       0.1709
     51  C          8.1150   72.9040   54.3310 C.2    84  ASP84       0.2293
     52  O          8.0490   73.4790   53.2340 O.2    84  ASP84      -0.2864
     53  CB         6.1210   72.9880   55.7790 C.3    84  ASP84       0.1436
     54  CG         4.7300   72.4570   56.0850 C.2    84  ASP84       0.3671
     55  OD1        4.3050   71.4150   55.5280 O.co2  84  ASP84      -0.2456
     56  OD2        4.0590   73.1270   56.9020 O.co2  84  ASP84      -0.2456
     57  N          7.9770   62.9660   57.3020 N.3   108  ALA108     -0.1231
     58  CA         6.7690   62.1450   57.0860 C.3   108  ALA108      0.1694
     59  C          5.5900   63.0350   56.7700 C.2   108  ALA108      0.2591
     60  O          5.3350   63.9960   57.4630 O.2   108  ALA108     -0.2718
     61  CB         6.4510   61.3300   58.3030 C.3   108  ALA108      0.0304
     62  N          4.9220   62.7270   55.6580 N.am  109  MET109     -0.1979
     63  CA         3.7290   63.4620   55.2410 C.3   109  MET109      0.1605
     64  C          2.5060   63.0800   56.0790 C.2   109  MET109      0.2287
     65  O          1.5750   63.8430   56.1380 O.2   109  MET109     -0.2864
     66  CB         3.4390   63.2050   53.7560 C.3   109  MET109      0.0413
     67  CG         4.4880   63.8490   52.8570 C.3   109  MET109      0.0598
     68  SD         4.4310   65.6410   52.8850 S.3   109  MET109     -0.1393
     69  CE         2.7340   65.9520   52.3930 C.3   109  MET109      0.0692
     70  N          8.9280   70.4130   47.9800 N.3   156  LYS156     -0.1245
     71  CA         7.6030   69.8730   48.3130 C.3   156  LYS156      0.1561
     72  C          6.6210   70.4380   47.3060 C.2   156  LYS156      0.2260
     73  O          6.4300   71.6380   47.2550 O.2   156  LYS156     -0.2867
     74  CB         7.1970   70.2370   49.7250 C.3   156  LYS156      0.0271
     75  CG         5.9030   69.5700   50.1570 C.3   156  LYS156      0.0035
     76  CD         5.6340   69.8080   51.6300 C.3   156  LYS156      0.0206
     77  CE         4.2800   69.2930   52.0440 C.3   156  LYS156      0.1093
     78  NZ         4.1310   69.2880   53.5390 N.3   156  LYS156     -0.1314
@<TRIPOS>BOND
     1    73    72    2
     2    72    71    1
     3    70    71    1
     4    71    74    1
     5    74    75    1
     6    75    76    1
     7    76    77    1
     8    77    78    1
     9    69    68    1
    10    67    68    1
    11    67    66    1
    12    52    51    2
    13    45    44    2
    14    66    63    1
    15    51    50    1
    16    44    43    1
    17    44    49   am
    18    46    47    1
    19    46    48    1
    20    46    43    1
    21    50    49    1
    22    50    53    1
    23    63    62    1
    24    63    64    1
    25    43    42    1
    26    55    54   ar
    27    62    59   am
    28    53    54    1
    29    64    65    2
    30    54    56   ar
    31    59    58    1
    32    59    60    2
    33    42    40   am
    34    41    40    2
    35    58    57    1
    36    58    61    1
    37    40    39    1
    38    18    17    1
    39    36    34   ar
    40    36    37   ar
    41    34    33   ar
    42    37    35   ar
    43    33    32    1
    44    33    35   ar
    45    31    30    2
    46    32    29    1
    47    17    14    1
    48    16    15    2
    49    39    38    1
    50    23    20    1
    51    23    24    1
    52    20    19    1
    53    20    21    1
    54    30    38   am
    55    30    29    1
    56    15    19   am
    57    15    14    1
    58    29    28    1
    59    22    21    2
    60    14    13    1
    61     8     6    1
    62    24    25    1
    63    25    26    2
    64    25    27   am
    65    13    11   am
    66     5     6    1
    67     5     7    1
    68     5     2    1
    69     4     3    2
    70    11    12    2
    71    11    10    1
    72     3     2    1
    73     2     1    1
    74    10     9    1
