@<TRIPOS>MOLECULE
tmp/5k4jA00.pdb
 207 199 0 0 0
SMALL
GASTEIGER

@<TRIPOS>ATOM
      1  N          0.5670  -24.7090   34.0320 N.3     9  GLU9       -0.1245
      2  CA         0.2540  -23.5180   34.7980 C.3     9  GLU9        0.1567
      3  C          0.7310  -23.6340   36.2290 C.2     9  GLU9        0.2260
      4  O          0.9700  -24.7450   36.7230 O.2     9  GLU9       -0.2867
      5  CB        -1.2490  -23.2460   34.7470 C.3     9  GLU9        0.0388
      6  CG        -2.0680  -24.3420   35.3540 C.3     9  GLU9        0.1160
      7  CD        -3.5440  -24.0210   35.4120 C.2     9  GLU9        0.3649
      8  OE1       -3.9550  -23.0620   34.7440 O.co2   9  GLU9       -0.2457
      9  OE2       -4.2790  -24.7190   36.1420 O.co2   9  GLU9       -0.2457
     10  N          0.4470  -23.7300   40.1600 N.3    11  ILE11      -0.1231
     11  CA        -0.6090  -23.9830   41.1390 C.3    11  ILE11       0.1692
     12  C         -0.2770  -23.7780   42.5970 C.2    11  ILE11       0.2593
     13  O         -1.1620  -23.9280   43.4640 O.2    11  ILE11      -0.2718
     14  CB        -1.1640  -25.3750   40.9550 C.3    11  ILE11       0.0266
     15  CG1       -0.1040  -26.4130   41.2390 C.3    11  ILE11       0.0019
     16  CG2       -1.6130  -25.5360   39.4820 C.3    11  ILE11       0.0020
     17  CD1       -0.5020  -27.7760   40.6520 C.3    11  ILE11       0.0001
     18  N          0.9760  -23.4470   42.8980 N.am   12  GLY12      -0.1942
     19  CA         1.3110  -23.1140   44.2660 C.3    12  GLY12       0.2014
     20  C          2.6430  -22.4050   44.3390 C.2    12  GLY12       0.2639
     21  O          3.4320  -22.4420   43.3670 O.2    12  GLY12      -0.2714
     22  N          2.8740  -21.7570   45.4860 N.am   13  GLU13      -0.1963
     23  CA         4.2200  -21.4160   45.9020 C.3    13  GLU13       0.1733
     24  C          4.4400  -21.5850   47.4160 C.2    13  GLU13       0.2616
     25  O          3.5270  -21.3890   48.2450 O.2    13  GLU13      -0.2715
     26  CB         4.5960  -19.9900   45.4640 C.3    13  GLU13       0.0429
     27  CG         3.4800  -18.9740   45.4960 C.3    13  GLU13       0.1163
     28  CD         3.9070  -17.6070   44.9350 C.2    13  GLU13       0.3649
     29  OE1        4.8150  -17.5600   44.0670 O.co2  13  GLU13      -0.2457
     30  OE2        3.3310  -16.5790   45.3670 O.co2  13  GLU13      -0.2457
     31  N          5.6640  -22.0020   47.7500 N.am   14  GLY14      -0.1955
     32  CA         6.1480  -22.0670   49.1150 C.3    14  GLY14       0.1869
     33  C          7.2810  -21.0660   49.3080 C.2    14  GLY14       0.2309
     34  O          7.6270  -20.3000   48.3960 O.2    14  GLY14      -0.2863
     35  N         10.2570  -21.8570   49.6370 N.3    16  TYR16      -0.1227
     36  CA        11.4160  -22.3750   48.9100 C.3    16  TYR16       0.1736
     37  C         11.1410  -23.0210   47.5450 C.2    16  TYR16       0.2596
     38  O         12.0340  -23.6200   46.9690 O.2    16  TYR16      -0.2718
     39  CB        12.1490  -23.4050   49.7670 C.3    16  TYR16       0.0548
     40  CG        11.2880  -24.5660   50.2120 C.ar   16  TYR16      -0.0200
     41  CD1       10.8220  -25.5200   49.3020 C.ar   16  TYR16      -0.0009
     42  CD2       10.9550  -24.7210   51.5510 C.ar   16  TYR16      -0.0009
     43  CE1       10.0390  -26.5830   49.7180 C.ar   16  TYR16       0.0417
     44  CE2       10.1790  -25.7870   51.9770 C.ar   16  TYR16       0.0417
     45  CZ         9.7230  -26.7160   51.0610 C.ar   16  TYR16       0.1957
     46  OH         8.9440  -27.7670   51.5130 O.3    16  TYR16      -0.2866
     47  N          9.9190  -22.9450   47.0360 N.am   17  GLY17      -0.1942
     48  CA         9.6760  -23.5150   45.7380 C.3    17  GLY17       0.2014
     49  C          8.4170  -23.0160   45.0800 C.2    17  GLY17       0.2639
     50  O          7.6700  -22.2010   45.6290 O.2    17  GLY17      -0.2714
     51  N          8.2140  -23.5030   43.8730 N.am   18  VAL18      -0.1963
     52  CA         7.0040  -23.2310   43.1010 C.3    18  VAL18       0.1727
     53  C          6.4810  -24.5900   42.6450 C.2    18  VAL18       0.2616
     54  O          7.2420  -25.5270   42.5140 O.2    18  VAL18      -0.2715
     55  CB         7.2940  -22.3530   41.8870 C.3    18  VAL18       0.0290
     56  CG1        8.3920  -22.9730   41.0600 C.3    18  VAL18       0.0023
     57  CG2        6.0310  -22.1500   41.0500 C.3    18  VAL18       0.0023
     58  N          5.1720  -24.7150   42.4850 N.am   19  VAL19      -0.1977
     59  CA         4.5870  -25.9700   42.0050 C.3    19  VAL19       0.1596
     60  C          3.8330  -25.6950   40.7350 C.2    19  VAL19       0.2287
     61  O          2.9770  -24.8040   40.7320 O.2    19  VAL19      -0.2864
     62  CB         3.6080  -26.5890   43.0190 C.3    19  VAL19       0.0276
     63  CG1        3.0760  -27.9540   42.5090 C.3    19  VAL19       0.0022
     64  CG2        4.2540  -26.7590   44.3850 C.3    19  VAL19       0.0022
     65  N          1.9020  -32.8280   39.1850 N.3    32  ALA32      -0.1245
     66  CA         2.3010  -31.5650   39.8580 C.3    32  ALA32       0.1562
     67  C          3.8190  -31.5850   39.9940 C.2    32  ALA32       0.2260
     68  O          4.3800  -32.5190   40.5110 O.2    32  ALA32      -0.2867
     69  CB         1.6630  -31.4510   41.1900 C.3    32  ALA32       0.0290
     70  N          7.0930  -29.9260   41.5300 N.3    34  LYS34      -0.1245
     71  CA         7.5650  -28.9840   42.5360 C.3    34  LYS34       0.1561
     72  C          9.0380  -28.7100   42.2510 C.2    34  LYS34       0.2260
     73  O          9.8320  -29.6340   42.1800 O.2    34  LYS34      -0.2867
     74  CB         7.3550  -29.5410   43.9470 C.3    34  LYS34       0.0271
     75  CG         7.7580  -28.5920   45.0440 C.3    34  LYS34       0.0035
     76  CD         7.5570  -29.3620   46.3620 C.3    34  LYS34       0.0206
     77  CE         7.4830  -28.4840   47.5900 C.3    34  LYS34       0.1093
     78  NZ         6.5320  -29.1280   48.5710 N.3    34  LYS34      -0.1314
     79  N         -0.5360  -38.0070   48.9240 N.3    58  VAL58      -0.1245
     80  CA        -0.2940  -37.6660   47.5180 C.3    58  VAL58       0.1561
     81  C          0.9590  -38.3970   47.0910 C.2    58  VAL58       0.2260
     82  O          2.0170  -38.2430   47.6940 O.2    58  VAL58      -0.2867
     83  CB        -0.1560  -36.1160   47.3590 C.3    58  VAL58       0.0252
     84  CG1        0.1930  -35.7630   45.8960 C.3    58  VAL58       0.0019
     85  CG2       -1.3880  -35.4280   47.7460 C.3    58  VAL58       0.0019
     86  N          4.7780  -35.0700   41.6240 N.3    74  PHE74      -0.1227
     87  CA         3.6770  -35.6260   42.4410 C.3    74  PHE74       0.1736
     88  C          2.4820  -35.9650   41.5800 C.2    74  PHE74       0.2595
     89  O          2.3010  -35.4070   40.4910 O.2    74  PHE74      -0.2718
     90  CB         3.2640  -34.6120   43.5100 C.3    74  PHE74       0.0547
     91  CG         4.2570  -34.4900   44.5910 C.ar   74  PHE74      -0.0202
     92  CD1        4.2760  -35.4550   45.6030 C.ar   74  PHE74      -0.0042
     93  CD2        5.1120  -33.4070   44.6560 C.ar   74  PHE74      -0.0042
     94  CE1        5.1810  -35.4000   46.6420 C.ar   74  PHE74      -0.0003
     95  CE2        5.9980  -33.3210   45.7020 C.ar   74  PHE74      -0.0003
     96  CZ         6.0490  -34.3040   46.7020 C.ar   74  PHE74      -0.0000
     97  N          1.6820  -36.9390   42.0190 N.am   75  GLU75      -0.1965
     98  CA         0.3210  -37.0870   41.5320 C.3    75  GLU75       0.1733
     99  C         -0.4030  -35.7140   41.5140 C.2    75  GLU75       0.2616
    100  O         -0.2120  -34.9250   42.3850 O.2    75  GLU75      -0.2715
    101  CB        -0.3710  -38.0660   42.5160 C.3    75  GLU75       0.0429
    102  CG        -1.8420  -38.1820   42.4440 C.3    75  GLU75       0.1163
    103  CD        -2.4220  -39.0110   43.6110 C.2    75  GLU75       0.3649
    104  OE1       -3.6150  -39.3190   43.5090 O.co2  75  GLU75      -0.2457
    105  OE2       -1.7700  -39.2920   44.6380 O.co2  75  GLU75      -0.2457
    106  N         -1.1850  -35.4220   40.4950 N.am   76  PHE76      -0.1960
    107  CA        -1.9140  -34.1560   40.3950 C.3    76  PHE76       0.1771
    108  C         -3.3270  -34.3910   40.9300 C.2    76  PHE76       0.2619
    109  O         -4.0350  -35.3600   40.5250 O.2    76  PHE76      -0.2715
    110  CB        -2.0340  -33.7250   38.9320 C.3    76  PHE76       0.0574
    111  CG        -2.8490  -32.4990   38.7310 C.ar   76  PHE76      -0.0200
    112  CD1       -4.1950  -32.5680   38.3050 C.ar   76  PHE76      -0.0042
    113  CD2       -2.2670  -31.2370   39.0010 C.ar   76  PHE76      -0.0042
    114  CE1       -4.8980  -31.3730   38.1470 C.ar   76  PHE76      -0.0003
    115  CE2       -2.9750  -30.0310   38.8090 C.ar   76  PHE76      -0.0003
    116  CZ        -4.3030  -30.1080   38.3730 C.ar   76  PHE76      -0.0000
    117  N         -3.7850  -33.4810   41.7820 N.am   77  LEU77      -0.1963
    118  CA        -5.1740  -33.5070   42.2120 C.3    77  LEU77       0.1728
    119  C         -5.7770  -32.1730   41.8050 C.2    77  LEU77       0.2616
    120  O         -5.1100  -31.1450   41.8270 O.2    77  LEU77      -0.2715
    121  CB        -5.3610  -33.7200   43.7540 C.3    77  LEU77       0.0311
    122  CG        -5.2080  -35.2090   44.1040 C.3    77  LEU77       0.0022
    123  CD1       -3.7440  -35.3970   44.4260 C.3    77  LEU77       0.0001
    124  CD2       -6.1300  -35.7350   45.2520 C.3    77  LEU77       0.0001
    125  N         -7.0850  -32.1680   41.5870 N.am   78  HIS78      -0.1959
    126  CA        -7.6220  -30.9380   41.0540 C.3    78  HIS78       0.1787
    127  C         -7.9810  -29.8400   42.0210 C.2    78  HIS78       0.2620
    128  O         -8.1990  -28.7460   41.5640 O.2    78  HIS78      -0.2715
    129  CB        -8.8340  -31.2820   40.1880 C.3    78  HIS78       0.0785
    130  CG        -8.4890  -31.9230   38.8650 C.ar   78  HIS78       0.0821
    131  ND1       -8.1540  -33.2790   38.7010 N.ar   78  HIS78      -0.2267
    132  CD2       -8.3910  -31.3580   37.6330 C.ar   78  HIS78       0.1154
    133  CE1       -7.9040  -33.4990   37.4220 C.ar   78  HIS78       0.1986
    134  NE2       -8.0610  -32.3590   36.7490 N.ar   78  HIS78      -0.2212
    135  N         -8.0520  -30.0740   43.3400 N.am   79  GLN79      -0.1963
    136  CA        -8.4480  -28.9740   44.1970 C.3    79  GLN79       0.1733
    137  C         -7.8060  -29.1700   45.5610 C.2    79  GLN79       0.2616
    138  O         -7.5100  -30.2930   45.8830 O.2    79  GLN79      -0.2715
    139  CB        -9.9730  -28.9200   44.3180 C.3    79  GLN79       0.0408
    140  CG       -10.3940  -27.6230   44.8930 C.3    79  GLN79       0.0908
    141  CD       -11.8050  -27.3310   44.5450 C.2    79  GLN79       0.2608
    142  OE1      -12.6250  -27.3210   45.4120 O.2    79  GLN79      -0.2717
    143  NE2      -12.1090  -27.1640   43.2420 N.am   79  GLN79      -0.0878
    144  N         -7.5380  -28.0970   46.3100 N.am   80  ASP80      -0.1971
    145  CA        -7.1500  -28.2600   47.7340 C.3    80  ASP80       0.1709
    146  C         -8.3170  -27.9170   48.6740 C.2    80  ASP80       0.2293
    147  O         -9.3660  -27.4260   48.2550 O.2    80  ASP80      -0.2864
    148  CB        -5.8930  -27.4560   48.1090 C.3    80  ASP80       0.1436
    149  CG        -6.0820  -25.9330   48.0770 C.2    80  ASP80       0.3671
    150  OD1       -7.1730  -25.4070   48.2490 O.co2  80  ASP80      -0.2456
    151  OD2       -5.0800  -25.2510   47.9520 O.co2  80  ASP80      -0.2456
    152  N         -9.4470  -24.1790   48.9740 N.3    83  LYS83      -0.1245
    153  CA       -10.3640  -23.6970   47.9060 C.3    83  LYS83       0.1561
    154  C        -11.7590  -24.2540   48.0690 C.2    83  LYS83       0.2260
    155  O        -12.7470  -23.5510   47.8680 O.2    83  LYS83      -0.2867
    156  CB        -9.8060  -24.0680   46.5230 C.3    83  LYS83       0.0271
    157  CG        -8.5010  -23.3860   46.2240 C.3    83  LYS83       0.0035
    158  CD        -7.9840  -23.8600   44.8550 C.3    83  LYS83       0.0206
    159  CE        -6.7120  -23.1440   44.4440 C.3    83  LYS83       0.1093
    160  NZ        -5.7480  -23.1600   45.5530 N.3    83  LYS83      -0.1314
    161  N         -2.1010  -28.1530   56.8620 N.3   123  LYS123     -0.1245
    162  CA        -2.8950  -26.9410   56.6800 C.3   123  LYS123      0.1561
    163  C         -3.8160  -27.1910   55.5000 C.2   123  LYS123      0.2260
    164  O         -3.5680  -28.1100   54.7220 O.2   123  LYS123     -0.2867
    165  CB        -1.9950  -25.7230   56.4580 C.3   123  LYS123      0.0271
    166  CG        -1.0380  -25.7780   55.3330 C.3   123  LYS123      0.0035
    167  CD         0.0200  -24.7040   55.6010 C.3   123  LYS123      0.0206
    168  CE         1.2380  -24.9700   54.8070 C.3   123  LYS123      0.1093
    169  NZ         2.2170  -23.8310   54.9490 N.3   123  LYS123     -0.1314
    170  N         -4.1940  -25.9550   52.7210 N.3   125  GLN125     -0.1231
    171  CA        -3.5790  -25.8860   51.3750 C.3   125  GLN125      0.1698
    172  C         -2.7930  -27.1320   51.0530 C.2   125  GLN125      0.2592
    173  O         -2.4120  -27.3030   49.9060 O.2   125  GLN125     -0.2718
    174  CB        -2.6600  -24.6800   51.2770 C.3   125  GLN125      0.0381
    175  CG        -3.4010  -23.4350   50.9390 C.3   125  GLN125      0.0905
    176  CD        -2.5340  -22.2250   51.0730 C.2   125  GLN125      0.2608
    177  OE1       -1.7880  -22.0840   52.0530 O.2   125  GLN125     -0.2717
    178  NE2       -2.6100  -21.3380   50.0890 N.am  125  GLN125     -0.0878
    179  N         -2.4930  -27.9800   52.0530 N.am  126  ASN126     -0.1974
    180  CA        -1.7060  -29.1970   51.8410 C.3   126  ASN126      0.1688
    181  C         -2.6020  -30.4150   51.8020 C.2   126  ASN126      0.2292
    182  O         -2.1120  -31.5450   51.9370 O.2   126  ASN126     -0.2864
    183  CB        -0.7120  -29.4210   53.0470 C.3   126  ASN126      0.1181
    184  CG         0.4490  -28.5570   52.9770 C.2   126  ASN126      0.2629
    185  OD1        0.7490  -28.0450   51.9020 O.2   126  ASN126     -0.2716
    186  ND2        1.1450  -28.3710   54.1100 N.am  126  ASN126     -0.0877
    187  N         -5.3950  -32.3130   49.6860 N.3   128  LEU128     -0.1245
    188  CA        -5.8700  -32.2150   48.3120 C.3   128  LEU128      0.1561
    189  C         -7.0180  -33.1940   48.0740 C.2   128  LEU128      0.2260
    190  O         -7.0450  -34.2950   48.6500 O.2   128  LEU128     -0.2867
    191  CB        -4.6960  -32.5530   47.3250 C.3   128  LEU128      0.0270
    192  CG        -3.4660  -31.6800   47.6110 C.3   128  LEU128      0.0019
    193  CD1       -2.4030  -32.0220   46.5750 C.3   128  LEU128      0.0001
    194  CD2       -3.8860  -30.1880   47.5580 C.3   128  LEU128      0.0001
    195  N         -0.5170  -33.7600   51.3380 N.3   138  ALA138     -0.1231
    196  CA         0.6160  -33.3450   50.4610 C.3   138  ALA138      0.1694
    197  C          1.7330  -32.7600   51.2960 C.2   138  ALA138      0.2592
    198  O          1.4870  -32.3260   52.4280 O.2   138  ALA138     -0.2718
    199  CB         0.1590  -32.3520   49.4570 C.3   138  ALA138      0.0304
    200  N          2.9220  -32.7410   50.7250 N.am  139  ASP139     -0.1974
    201  CA         4.0920  -32.0430   51.3210 C.3   139  ASP139      0.1709
    202  C          4.5650  -33.0020   52.4480 C.2   139  ASP139      0.2293
    203  O          5.1460  -32.5760   53.3730 O.2   139  ASP139     -0.2864
    204  CB         3.6970  -30.6190   51.7930 C.3   139  ASP139      0.1436
    205  CG         4.8590  -29.6070   51.8790 C.2   139  ASP139      0.3671
    206  OD1        6.0290  -29.9420   51.6670 O.co2 139  ASP139     -0.2456
    207  OD2        4.5670  -28.4270   52.2160 O.co2 139  ASP139     -0.2456
@<TRIPOS>BOND
     1     1     2    1
     2     8     7   ar
     3     5     2    1
     4     5     6    1
     5     2     3    1
     6     6     7    1
     7     7     9   ar
     8     3     4    2
     9   134   133   ar
    10   134   132   ar
    11   133   131   ar
    12   132   130   ar
    13   114   112   ar
    14   114   116   ar
    15   112   111   ar
    16   116   115   ar
    17   131   130   ar
    18   111   110    1
    19   111   113   ar
    20   115   113   ar
    21   130   129    1
    22   110   107    1
    23    65    66    1
    24    16    14    1
    25    66    67    1
    26    66    69    1
    27    67    68    2
    28    10    11    1
    29   129   126    1
    30   107   106    1
    31   107   108    1
    32    89    88    2
    33   106    99   am
    34   109   108    2
    35    17    15    1
    36    61    60    2
    37    60    59    1
    38   108   117   am
    39    14    11    1
    40    14    15    1
    41    57    55    1
    42   126   125    1
    43   126   127    1
    44    56    55    1
    45    11    12    1
    46    99    98    1
    47    99   100    2
    48    70    71    1
    49    98    97    1
    50    98   101    1
    51   128   127    2
    52    88    97   am
    53    88    87    1
    54   125   119   am
    55    86    87    1
    56   117   118    1
    57   119   120    2
    58   119   118    1
    59    55    52    1
    60    59    58    1
    61    59    62    1
    62   127   135   am
    63    73    72    2
    64   118   121    1
    65    72    71    1
    66    87    90    1
    67   102   101    1
    68   102   103    1
    69    58    53   am
    70    63    62    1
    71    54    53    2
    72    71    74    1
    73    12    18   am
    74    12    13    2
    75    53    52    1
    76    18    19    1
    77    62    64    1
    78    52    51    1
    79   143   141   am
    80   135   136    1
    81    21    20    2
    82   104   103   ar
    83    90    91    1
    84   103   105   ar
    85   121   122    1
    86    51    49   am
    87    74    75    1
    88    29    28   ar
    89   122   123    1
    90   122   124    1
    91   136   139    1
    92   136   137    1
    93    19    20    1
    94   139   140    1
    95    20    22   am
    96   159   158    1
    97   159   160    1
    98   141   140    1
    99   141   142    2
   100    91    93   ar
   101    91    92   ar
   102    93    95   ar
   103   158   157    1
   104    28    30   ar
   105    28    27    1
   106    75    76    1
   107    49    50    2
   108    49    48    1
   109    26    27    1
   110    26    23    1
   111    22    23    1
   112   137   138    2
   113   137   144   am
   114    92    94   ar
   115    95    96   ar
   116    48    47    1
   117    84    83    1
   118    23    24    1
   119   157   156    1
   120   144   145    1
   121    76    77    1
   122   156   153    1
   123   193   192    1
   124    94    96   ar
   125    38    37    2
   126    47    37   am
   127    81    80    1
   128    81    82    2
   129   191   192    1
   130   191   188    1
   131    83    80    1
   132    83    85    1
   133    24    31   am
   134    24    25    2
   135    80    79    1
   136    37    36    1
   137   194   192    1
   138    77    78    1
   139   145   148    1
   140   145   146    1
   141    31    32    1
   142   155   154    2
   143   153   154    1
   144   153   152    1
   145   151   149   ar
   146   189   188    1
   147   189   190    2
   148   149   148    1
   149   149   150   ar
   150   147   146    2
   151   188   187    1
   152    34    33    2
   153    36    35    1
   154    36    39    1
   155    32    33    1
   156    41    43   ar
   157    41    40   ar
   158   199   196    1
   159    43    45   ar
   160    39    40    1
   161   173   172    2
   162   178   176   am
   163    40    42   ar
   164   196   197    1
   165   196   195    1
   166   200   197   am
   167   200   201    1
   168   175   176    1
   169   175   174    1
   170   172   171    1
   171   172   179   am
   172    45    46    1
   173    45    44   ar
   174   176   177    2
   175   174   171    1
   176   197   198    2
   177   201   204    1
   178   201   202    1
   179   171   170    1
   180    42    44   ar
   181   206   205   ar
   182   204   205    1
   183   181   180    1
   184   181   182    2
   185   180   179    1
   186   180   183    1
   187   205   207   ar
   188   185   184    2
   189   202   203    2
   190   184   183    1
   191   184   186   am
   192   164   163    2
   193   168   169    1
   194   168   167    1
   195   166   167    1
   196   166   165    1
   197   163   162    1
   198   165   162    1
   199   162   161    1
