@<TRIPOS>MOLECULE
tmp/5k4lA00.pdb
 137 133 0 0 0
SMALL
GASTEIGER

@<TRIPOS>ATOM
      1  N        193.3350    0.6010  -27.4850 N.3   221  TYR221     -0.1227
      2  CA       193.6430    0.9680  -26.1100 C.3   221  TYR221      0.1736
      3  C        194.5970   -0.0640  -25.5310 C.2   221  TYR221      0.2596
      4  O        195.1310   -0.9050  -26.2550 O.2   221  TYR221     -0.2718
      5  CB       192.3640    1.0220  -25.2650 C.3   221  TYR221      0.0548
      6  CG       191.7330   -0.3350  -25.0100 C.ar  221  TYR221     -0.0200
      7  CD1      190.8760   -0.9120  -25.9380 C.ar  221  TYR221     -0.0009
      8  CD2      191.9920   -1.0360  -23.8380 C.ar  221  TYR221     -0.0009
      9  CE1      190.3000   -2.1500  -25.7080 C.ar  221  TYR221      0.0417
     10  CE2      191.4210   -2.2750  -23.6010 C.ar  221  TYR221      0.0417
     11  CZ       190.5750   -2.8260  -24.5380 C.ar  221  TYR221      0.1957
     12  OH       190.0010   -4.0580  -24.3090 O.3   221  TYR221     -0.2866
     13  N        194.8110    0.0050  -24.2230 N.am  222  GLY222     -0.1942
     14  CA       195.4770   -1.0660  -23.5120 C.3   222  GLY222      0.2014
     15  C        194.9970   -1.0920  -22.0770 C.2   222  GLY222      0.2638
     16  O        194.6240   -0.0640  -21.5130 O.2   222  GLY222     -0.2714
     17  N        195.0250   -2.2800  -21.4870 N.am  223  ALA223     -0.1977
     18  CA       194.5030   -2.5010  -20.1460 C.3   223  ALA223      0.1597
     19  C        194.8800   -3.9080  -19.7220 C.2   223  ALA223      0.2287
     20  O        195.5500   -4.6240  -20.4680 O.2   223  ALA223     -0.2864
     21  CB       192.9910   -2.3170  -20.1120 C.3   223  ALA223      0.0319
     22  N        195.7990    1.7820  -17.4400 N.3   284  TYR284     -0.1227
     23  CA       194.9820    1.8880  -18.6350 C.3   284  TYR284      0.1736
     24  C        195.5180    3.0200  -19.4950 C.2   284  TYR284      0.2595
     25  O        195.4350    4.1920  -19.1260 O.2   284  TYR284     -0.2718
     26  CB       193.5230    2.1490  -18.2600 C.3   284  TYR284      0.0548
     27  CG       192.9780    1.1570  -17.2570 C.ar  284  TYR284     -0.0200
     28  CD1      192.4270   -0.0480  -17.6720 C.ar  284  TYR284     -0.0009
     29  CD2      193.0220    1.4210  -15.8950 C.ar  284  TYR284     -0.0009
     30  CE1      191.9310   -0.9590  -16.7580 C.ar  284  TYR284      0.0417
     31  CE2      192.5290    0.5170  -14.9750 C.ar  284  TYR284      0.0417
     32  CZ       191.9850   -0.6720  -15.4110 C.ar  284  TYR284      0.1957
     33  OH       191.4930   -1.5750  -14.4950 O.3   284  TYR284     -0.2866
     34  N        196.0690    2.6540  -20.6460 N.am  285  VAL285     -0.1980
     35  CA       196.5040    3.6260  -21.6330 C.3   285  VAL285      0.1595
     36  C        195.3210    3.8220  -22.5650 C.2   285  VAL285      0.2287
     37  O        194.5870    2.8720  -22.8410 O.2   285  VAL285     -0.2864
     38  CB       197.7530    3.1500  -22.4120 C.3   285  VAL285      0.0276
     39  CG1      197.4820    1.8340  -23.1510 C.3   285  VAL285      0.0022
     40  CG2      198.2280    4.2380  -23.3700 C.3   285  VAL285      0.0022
     41  N        188.3720    5.6080  -26.8520 N.3   290  SER290     -0.1202
     42  CA       188.5640    4.3350  -26.1580 C.3   290  SER290      0.2020
     43  C        187.7250    4.3310  -24.8810 C.2   290  SER290      0.2619
     44  O        187.6990    5.3220  -24.1530 O.2   290  SER290     -0.2717
     45  CB       190.0400    4.0850  -25.8420 C.3   290  SER290      0.2103
     46  OG       190.5630    5.0730  -24.9720 O.3   290  SER290     -0.2182
     47  N        187.0550    3.2100  -24.6130 N.am  291  SER291     -0.1937
     48  CA       185.9830    3.1640  -23.6200 C.3   291  SER291      0.2055
     49  C        186.0930    1.9860  -22.6570 C.2   291  SER291      0.2643
     50  O        186.8070    1.0170  -22.9180 O.2   291  SER291     -0.2714
     51  CB       184.6330    3.0890  -24.3370 C.3   291  SER291      0.2130
     52  OG       184.5930    1.9740  -25.2090 O.3   291  SER291     -0.2179
     53  N        185.3740    2.0870  -21.5410 N.am  292  PHE292     -0.1973
     54  CA       185.2000    0.9700  -20.6180 C.3   292  PHE292      0.1639
     55  C        183.7370    0.8910  -20.1760 C.2   292  PHE292      0.2290
     56  O        183.1660    1.8620  -19.6770 O.2   292  PHE292     -0.2864
     57  CB       186.1490    1.0820  -19.4160 C.3   292  PHE292      0.0560
     58  CG       185.9240    2.3010  -18.5590 C.ar  292  PHE292     -0.0200
     59  CD1      186.4130    3.5390  -18.9440 C.ar  292  PHE292     -0.0042
     60  CD2      185.2400    2.2030  -17.3580 C.ar  292  PHE292     -0.0042
     61  CE1      186.2120    4.6580  -18.1530 C.ar  292  PHE292     -0.0003
     62  CE2      185.0370    3.3190  -16.5630 C.ar  292  PHE292     -0.0003
     63  CZ       185.5240    4.5460  -16.9620 C.ar  292  PHE292     -0.0000
     64  N        180.0690   -1.3290  -15.1700 N.3   295  HIS295     -0.1241
     65  CA       180.5290   -2.4010  -14.3010 C.3   295  HIS295      0.1621
     66  C        180.6830   -1.9080  -12.8750 C.2   295  HIS295      0.2264
     67  O        180.7390   -0.7070  -12.6130 O.2   295  HIS295     -0.2867
     68  CB       181.8830   -2.9410  -14.7720 C.3   295  HIS295      0.0745
     69  CG       183.0350   -2.0460  -14.4450 C.ar  295  HIS295      0.0817
     70  ND1      183.3950   -0.9720  -15.2360 N.ar  295  HIS295     -0.2268
     71  CD2      183.9110   -2.0580  -13.4140 C.ar  295  HIS295      0.1154
     72  CE1      184.4350   -0.3660  -14.7030 C.ar  295  HIS295      0.1986
     73  NE2      184.7750   -1.0030  -13.5930 N.ar  295  HIS295     -0.2212
     74  N        183.1570   -2.8970   -9.3600 N.3   297  GLU297     -0.1245
     75  CA       184.3930   -3.5840   -9.0310 C.3   297  GLU297      0.1567
     76  C        184.0860   -4.8680   -8.2720 C.2   297  GLU297      0.2260
     77  O        183.0750   -4.9570   -7.5740 O.2   297  GLU297     -0.2867
     78  CB       185.3060   -2.6760   -8.2140 C.3   297  GLU297      0.0388
     79  CG       185.4750   -1.2710   -8.7990 C.3   297  GLU297      0.1160
     80  CD       185.7540   -1.2620  -10.2980 C.2   297  GLU297      0.3649
     81  OE1      186.8890   -0.9740  -10.7040 O.co2 297  GLU297     -0.2457
     82  OE2      184.8380   -1.5160  -11.0910 O.co2 297  GLU297     -0.2457
     83  N        187.2230    1.8950   -6.2100 N.3   303  SER303     -0.1217
     84  CA       188.2990    2.0700   -7.1700 C.3   303  SER303      0.1889
     85  C        188.7450    3.5300   -7.1610 C.2   303  SER303      0.2288
     86  O        187.9450    4.4190   -7.4500 O.2   303  SER303     -0.2866
     87  CB       187.8490    1.6440   -8.5700 C.3   303  SER303      0.2089
     88  OG       188.7450    2.1210   -9.5590 O.3   303  SER303     -0.2183
     89  N        191.0640    6.1400   -9.0540 N.3   305  ASN305     -0.1240
     90  CA       191.7280    6.2730  -10.3460 C.3   305  ASN305      0.1653
     91  C        192.4240    7.6250  -10.4640 C.2   305  ASN305      0.2266
     92  O        191.7960    8.6680  -10.2850 O.2   305  ASN305     -0.2867
     93  CB       190.7130    6.1350  -11.4890 C.3   305  ASN305      0.1155
     94  CG       190.2010    4.7010  -11.6850 C.2   305  ASN305      0.2627
     95  OD1      189.6860    4.3760  -12.7530 O.2   305  ASN305     -0.2716
     96  ND2      190.3430    3.8480  -10.6750 N.am  305  ASN305     -0.0877
     97  N        189.6190   12.2650  -19.1630 N.3   313  LYS313     -0.1245
     98  CA       188.8350   11.0340  -19.2100 C.3   313  LYS313      0.1561
     99  C        187.4150   11.2870  -18.7070 C.2   313  LYS313      0.2260
    100  O        187.2170   11.8070  -17.6080 O.2   313  LYS313     -0.2867
    101  CB       189.5160    9.9440  -18.3760 C.3   313  LYS313      0.0271
    102  CG       188.6260    8.7620  -18.0060 C.3   313  LYS313      0.0035
    103  CD       189.3520    7.4350  -18.1600 C.3   313  LYS313      0.0206
    104  CE       190.6090    7.3400  -17.3030 C.3   313  LYS313      0.1093
    105  NZ       191.5380    6.3040  -17.8260 N.3   313  LYS313     -0.1314
    106  N        183.6800   10.2480  -17.3880 N.3   315  TRP315     -0.1241
    107  CA       183.1040    9.2330  -16.5080 C.3   315  TRP315      0.1605
    108  C        181.5810    9.3070  -16.4670 C.2   315  TRP315      0.2264
    109  O        181.0010   10.3750  -16.6580 O.2   315  TRP315     -0.2867
    110  CB       183.6180    9.4300  -15.0820 C.3   315  TRP315      0.0550
    111  CG       185.0230    8.9890  -14.8610 C.ar  315  TRP315      0.0003
    112  CD1      186.1580    9.6790  -15.1620 C.ar  315  TRP315      0.0946
    113  CD2      185.4450    7.7560  -14.2720 C.ar  315  TRP315      0.0152
    114  NE1      187.2640    8.9500  -14.8010 N.ar  315  TRP315     -0.2442
    115  CE2      186.8520    7.7630  -14.2520 C.ar  315  TRP315      0.0810
    116  CE3      184.7680    6.6450  -13.7610 C.ar  315  TRP315      0.0012
    117  CZ2      187.5960    6.7020  -13.7420 C.ar  315  TRP315      0.0191
    118  CZ3      185.5060    5.5930  -13.2560 C.ar  315  TRP315      0.0001
    119  CH2      186.9060    5.6290  -13.2500 C.ar  315  TRP315      0.0015
    120  N        179.7370    2.0890  -13.0220 N.3   383  HIS383     -0.1241
    121  CA       180.4410    3.1600  -13.7110 C.3   383  HIS383      0.1621
    122  C        180.9620    2.7200  -15.0710 C.2   383  HIS383      0.2264
    123  O        181.3660    1.5720  -15.2580 O.2   383  HIS383     -0.2867
    124  CB       181.5860    3.7020  -12.8460 C.3   383  HIS383      0.0745
    125  CG       182.5850    2.6640  -12.4460 C.ar  383  HIS383      0.0817
    126  ND1      182.4580    1.9080  -11.2990 N.ar  383  HIS383     -0.2268
    127  CD2      183.7300    2.2560  -13.0390 C.ar  383  HIS383      0.1154
    128  CE1      183.4810    1.0800  -11.2050 C.ar  383  HIS383      0.1986
    129  NE2      184.2690    1.2680  -12.2520 N.ar  383  HIS383     -0.2212
    130  N        187.5990    7.8420  -23.1440 N.3   387  ASN387     -0.1240
    131  CA       188.6960    8.8000  -23.1170 C.3   387  ASN387      0.1653
    132  C        188.5610    9.8690  -24.2000 C.2   387  ASN387      0.2266
    133  O        188.1090    9.5910  -25.3110 O.2   387  ASN387     -0.2867
    134  CB       190.0290    8.0680  -23.2700 C.3   387  ASN387      0.1155
    135  CG       190.3960    7.2620  -22.0400 C.2   387  ASN387      0.2627
    136  OD1      190.9680    7.7880  -21.0870 O.2   387  ASN387     -0.2716
    137  ND2      190.0760    5.9750  -22.0590 N.am  387  ASN387     -0.0877
@<TRIPOS>BOND
     1     1     2    1
     2    41    42    1
     3     4     3    2
     4    42    45    1
     5    42    43    1
     6     2     3    1
     7     2     5    1
     8     7     9   ar
     9     7     6   ar
    10    45    46    1
    11     9    11   ar
    12     3    13   am
    13   133   132    2
    14     5     6    1
    15    52    51    1
    16     6     8   ar
    17    43    47   am
    18    43    44    2
    19    47    48    1
    20    11    12    1
    21    11    10   ar
    22    51    48    1
    23    13    14    1
    24   132   131    1
    25     8    10   ar
    26    48    49    1
    27    14    15    1
    28    40    38    1
    29   134   131    1
    30   134   135    1
    31    39    38    1
    32   130   131    1
    33    50    49    2
    34    37    36    2
    35    49    53   am
    36    36    35    1
    37    38    35    1
    38    15    16    2
    39    15    17   am
    40   137   135   am
    41   135   136    2
    42    35    34    1
    43    53    54    1
    44    17    18    1
    45    34    24   am
    46    54    55    1
    47    54    57    1
    48    20    19    2
    49    55    56    2
    50    18    21    1
    51    18    19    1
    52    24    25    2
    53    24    23    1
    54    57    58    1
    55    98    97    1
    56    98    99    1
    57    98   101    1
    58    59    58   ar
    59    59    61   ar
    60    99   100    2
    61    23    26    1
    62    23    22    1
    63    58    60   ar
    64   101   102    1
    65    26    27    1
    66   103   102    1
    67   103   104    1
    68    61    63   ar
    69   105   104    1
    70    28    27   ar
    71    28    30   ar
    72   106   107    1
    73    60    62   ar
    74    27    29   ar
    75    63    62   ar
    76    30    32   ar
    77   109   108    2
    78   107   108    1
    79   107   110    1
    80    29    31   ar
    81    32    31   ar
    82    32    33    1
    83   123   122    2
    84    70    72   ar
    85    70    69   ar
    86    64    65    1
    87   112   111   ar
    88   112   114   ar
    89   110   111    1
    90   122   121    1
    91   111   113   ar
    92   114   115   ar
    93    68    69    1
    94    68    65    1
    95    72    73   ar
    96    69    71   ar
    97    65    66    1
    98   113   115   ar
    99   113   116   ar
   100   115   117   ar
   101   116   118   ar
   102   117   119   ar
   103   121   120    1
   104   121   124    1
   105    73    71   ar
   106   118   119   ar
   107   127   125   ar
   108   127   129   ar
   109    66    67    2
   110   124   125    1
   111    95    94    2
   112   125   126   ar
   113   129   128   ar
   114    94    93    1
   115    94    96   am
   116    93    90    1
   117   126   128   ar
   118    82    80   ar
   119    81    80   ar
   120    91    90    1
   121    91    92    2
   122    90    89    1
   123    80    79    1
   124    88    87    1
   125    74    75    1
   126    75    76    1
   127    75    78    1
   128    79    78    1
   129    87    84    1
   130    76    77    2
   131    86    85    2
   132    84    85    1
   133    84    83    1
