@<TRIPOS>MOLECULE
tmp/5k4mA02.pdb
 105 99 0 0 0
SMALL
GASTEIGER

@<TRIPOS>ATOM
      1  N         15.2360   23.6200    9.5000 N.3    23  LEU23      -0.1245
      2  CA        15.4980   22.7100   10.6950 C.3    23  LEU23       0.1561
      3  C         16.9320   22.1370   10.7880 C.2    23  LEU23       0.2260
      4  O         17.7160   22.2860    9.8650 O.2    23  LEU23      -0.2867
      5  CB        14.5470   21.4840   10.7700 C.3    23  LEU23       0.0270
      6  CG        14.9350   20.1120   10.1180 C.3    23  LEU23       0.0019
      7  CD1       14.2860   18.8990   10.7830 C.3    23  LEU23       0.0001
      8  CD2       14.6440   20.1000    8.6180 C.3    23  LEU23       0.0001
      9  N         19.1080   18.6480   12.3050 N.3    25  MET25      -0.1245
     10  CA        19.3750   17.3350   12.9320 C.3    25  MET25       0.1570
     11  C         20.8320   17.2510   13.4180 C.2    25  MET25       0.2261
     12  O         21.7330   17.7040   12.7080 O.2    25  MET25      -0.2867
     13  CB        19.0590   16.1610   11.9750 C.3    25  MET25       0.0387
     14  CG        18.5760   16.5410   10.5780 C.3    25  MET25       0.0595
     15  SD        19.8010   17.3740    9.5480 S.3    25  MET25      -0.1393
     16  CE        20.6910   15.9540    8.9010 C.3    25  MET25       0.0692
     17  N         19.0800   22.3160    7.5780 N.3    31  VAL31      -0.1245
     18  CA        18.6560   22.3290    6.1580 C.3    31  VAL31       0.1561
     19  C         17.2280   22.8790    6.0090 C.2    31  VAL31       0.2260
     20  O         16.4310   22.6870    6.8970 O.2    31  VAL31      -0.2867
     21  CB        18.6420   20.9050    5.5670 C.3    31  VAL31       0.0252
     22  CG1       17.6110   20.0190    6.2760 C.3    31  VAL31       0.0019
     23  CG2       18.3540   20.9450    4.0630 C.3    31  VAL31       0.0019
     24  N          5.8500   11.3630    3.7010 N.3    78  HIS78      -0.1241
     25  CA         6.5060   10.1450    4.1460 C.3    78  HIS78       0.1621
     26  C          6.8950   10.2460    5.6050 C.2    78  HIS78       0.2264
     27  O          6.9520   11.3560    6.1720 O.2    78  HIS78      -0.2867
     28  CB         7.7270    9.6640    3.2960 C.3    78  HIS78       0.0745
     29  CG         8.9390   10.4820    3.4240 C.ar   78  HIS78       0.0817
     30  ND1        9.1010   11.6550    2.7340 N.ar   78  HIS78      -0.2268
     31  CD2       10.1120   10.2580    4.0790 C.ar   78  HIS78       0.1154
     32  CE1       10.2980   12.1550    2.9970 C.ar   78  HIS78       0.1986
     33  NE2       10.9220   11.3390    3.8250 N.ar   78  HIS78      -0.2212
     34  N          9.3020   10.6650    7.9190 N.3    80  HIS80      -0.1226
     35  CA        10.6230   11.1780    8.3850 C.3    80  HIS80       0.1752
     36  C         10.3420   12.4920    9.0600 C.2    80  HIS80       0.2596
     37  O          9.2480   13.0940    8.7940 O.2    80  HIS80      -0.2718
     38  CB        11.5930   11.3730    7.2120 C.3    80  HIS80       0.0759
     39  CG        12.3490   10.1200    6.8660 C.ar   80  HIS80       0.0818
     40  ND1       13.0160    9.9360    5.6840 N.ar   80  HIS80      -0.2268
     41  CD2       12.4750    8.9650    7.5450 C.ar   80  HIS80       0.1154
     42  CE1       13.6280    8.7600    5.7010 C.ar   80  HIS80       0.1986
     43  NE2       13.2570    8.1280    6.7960 N.ar   80  HIS80      -0.2212
     44  N         11.2880   12.9690    9.8800 N.am   81  GLN81      -0.1965
     45  CA        11.0990   14.1590   10.7230 C.3    81  GLN81       0.1733
     46  C         10.6940   15.3900    9.9190 C.2    81  GLN81       0.2616
     47  O          9.7610   16.1040   10.2580 O.2    81  GLN81      -0.2715
     48  CB        12.3810   14.5070   11.5340 C.3    81  GLN81       0.0408
     49  CG        12.2390   15.7240   12.4740 C.3    81  GLN81       0.0908
     50  CD        11.3090   15.4500   13.6530 C.2    81  GLN81       0.2608
     51  OE1       10.9120   14.3100   13.8830 O.2    81  GLN81      -0.2717
     52  NE2       10.9440   16.4830   14.3830 N.am   81  GLN81      -0.0878
     53  N         11.4040   15.6490    8.8420 N.am   82  ASP82      -0.1971
     54  CA        11.0880   16.8010    8.0250 C.3    82  ASP82       0.1709
     55  C          9.6650   16.9310    7.4880 C.2    82  ASP82       0.2293
     56  O          9.1710   18.0380    7.3660 O.2    82  ASP82      -0.2864
     57  CB        12.1090   17.0330    6.9430 C.3    82  ASP82       0.1436
     58  CG        12.1980   15.9090    5.8470 C.2    82  ASP82       0.3671
     59  OD1       11.7830   14.7290    5.9910 O.co2  82  ASP82      -0.2456
     60  OD2       12.8110   16.3210    4.8050 O.co2  82  ASP82      -0.2456
     61  N         13.1380    7.6990   -2.5510 N.3   147  HIS147     -0.1241
     62  CA        13.7390    8.2890   -1.3500 C.3   147  HIS147      0.1621
     63  C         13.5180    7.4060   -0.1090 C.2   147  HIS147      0.2264
     64  O         14.4750    7.0350    0.6380 O.2   147  HIS147     -0.2867
     65  CB        13.2030    9.7120   -1.1450 C.3   147  HIS147      0.0745
     66  CG        13.5820   10.3000    0.1750 C.ar  147  HIS147      0.0817
     67  ND1       14.8670   10.7090    0.4660 N.ar  147  HIS147     -0.2268
     68  CD2       12.8810   10.4260    1.3260 C.ar  147  HIS147      0.1154
     69  CE1       14.9190   11.1390    1.7160 C.ar  147  HIS147      0.1986
     70  NE2       13.7190   10.9910    2.2520 N.ar  147  HIS147     -0.2212
     71  N         10.6320   14.6860   -0.9120 N.3   166  CYS166     -0.1235
     72  CA        12.1130   14.4510   -0.8790 C.3   166  CYS166      0.1677
     73  C         12.5410   13.5600   -2.0260 C.2   166  CYS166      0.2270
     74  O         13.7220   13.3780   -2.2130 O.2   166  CYS166     -0.2867
     75  CB        12.5830   13.9140    0.4770 C.3   166  CYS166      0.0956
     76  SG        11.8630   14.9020    1.8280 S.3   166  CYS166     -0.0801
     77  N         14.9450   16.2590   -6.5800 N.3   169  ARG169     -0.1245
     78  CA        15.9990   17.2520   -6.3290 C.3   169  ARG169      0.1563
     79  C         16.0000   18.2550   -7.5050 C.2   169  ARG169      0.2260
     80  O         15.5660   17.9200   -8.5980 O.2   169  ARG169     -0.2867
     81  CB        17.3880   16.5880   -6.2980 C.3   169  ARG169      0.0307
     82  CG        17.4330   15.1860   -5.6890 C.3   169  ARG169      0.0489
     83  CD        17.3960   15.2130   -4.1620 C.3   169  ARG169      0.2205
     84  NE        18.6700   15.6870   -3.6630 N.pl3 169  ARG169     -0.0865
     85  CZ        19.0010   15.9880   -2.3830 C.cat 169  ARG169      0.5346
     86  NH1       18.1900   15.8930   -1.3700 N.pl3 169  ARG169      0.1354
     87  NH2       20.2520   16.4180   -2.1330 N.pl3 169  ARG169      0.1354
     88  N         20.5490   11.6470    1.3440 N.3   178  ASN178     -0.1240
     89  CA        20.7290   10.4210    2.0860 C.3   178  ASN178      0.1653
     90  C         19.9640    9.2700    1.4620 C.2   178  ASN178      0.2266
     91  O         18.7510    9.3490    1.2460 O.2   178  ASN178     -0.2867
     92  CB        20.3430   10.5730    3.5520 C.3   178  ASN178      0.1155
     93  CG        20.8870    9.4240    4.3860 C.2   178  ASN178      0.2627
     94  OD1       20.3200    8.3410    4.4100 O.2   178  ASN178     -0.2716
     95  ND2       22.0580    9.6420    5.0220 N.am  178  ASN178     -0.0877
     96  N         13.7320   20.1550   -0.4360 N.3   208  HIS208     -0.1241
     97  CA        15.0100   20.7730   -0.0590 C.3   208  HIS208      0.1621
     98  C         15.6020   21.7250   -1.0730 C.2   208  HIS208      0.2264
     99  O         16.7660   22.1210   -0.9230 O.2   208  HIS208     -0.2867
    100  CB        15.9840   19.6850    0.3360 C.3   208  HIS208      0.0745
    101  CG        15.4310   18.8410    1.4290 C.ar  208  HIS208      0.0817
    102  ND1       15.0150   19.3780    2.6300 N.ar  208  HIS208     -0.2268
    103  CD2       15.1080   17.5310    1.4750 C.ar  208  HIS208      0.1154
    104  CE1       14.4890   18.4240    3.3750 C.ar  208  HIS208      0.1986
    105  NE2       14.5300   17.2940    2.6900 N.ar  208  HIS208     -0.2212
@<TRIPOS>BOND
     1    80    79    2
     2    79    78    1
     3    77    78    1
     4    78    81    1
     5    81    82    1
     6    82    83    1
     7    83    84    1
     8    84    85    2
     9    61    62    1
    10    85    87    1
    11    85    86    1
    12    74    73    2
    13    73    72    1
    14    62    65    1
    15    62    63    1
    16    65    66    1
    17    98    99    2
    18    98    97    1
    19    71    72    1
    20    72    75    1
    21    96    97    1
    22    63    64    2
    23    97   100    1
    24    66    67   ar
    25    66    68   ar
    26   100   101    1
    27    67    69   ar
    28    75    76    1
    29    91    90    2
    30    68    70   ar
    31    88    89    1
    32   101   103   ar
    33   101   102   ar
    34    90    89    1
    35   103   105   ar
    36    69    70   ar
    37    89    92    1
    38   102   104   ar
    39   105   104   ar
    40    30    32   ar
    41    30    29   ar
    42    32    33   ar
    43    28    29    1
    44    28    25    1
    45    29    31   ar
    46    92    93    1
    47    24    25    1
    48    33    31   ar
    49    23    21    1
    50    25    26    1
    51    93    94    2
    52    93    95   am
    53    60    58   ar
    54    21    18    1
    55    21    22    1
    56    26    27    2
    57    40    42   ar
    58    40    39   ar
    59    42    43   ar
    60    58    59   ar
    61    58    57    1
    62    19    18    1
    63    19    20    2
    64    18    17    1
    65    43    41   ar
    66    39    38    1
    67    39    41   ar
    68    57    54    1
    69    38    35    1
    70    56    55    2
    71    55    54    1
    72    34    35    1
    73    54    53    1
    74    35    36    1
    75     8     6    1
    76    37    36    2
    77    53    46   am
    78    16    15    1
    79    36    44   am
    80     1     2    1
    81    15    14    1
    82     4     3    2
    83    44    45    1
    84    46    47    2
    85    46    45    1
    86     6     5    1
    87     6     7    1
    88    14    13    1
    89     2     5    1
    90     2     3    1
    91    45    48    1
    92    48    49    1
    93    13    10    1
    94     9    10    1
    95    49    50    1
    96    12    11    2
    97    10    11    1
    98    50    51    2
    99    50    52   am
