@<TRIPOS>MOLECULE
tmp/5k4wA01.pdb
 120 117 0 0 0
SMALL
GASTEIGER

@<TRIPOS>ATOM
      1  N         12.6760  -13.3480  -11.1770 N.3    12  GLN12      -0.1245
      2  CA        12.9190  -12.9810   -9.7860 C.3    12  GLN12       0.1566
      3  C         13.5780  -11.6140   -9.7090 C.2    12  GLN12       0.2260
      4  O         13.1030  -10.7290   -8.9640 O.2    12  GLN12      -0.2867
      5  CB        13.7850  -14.0100   -9.1080 C.3    12  GLN12       0.0367
      6  CG        13.8740  -13.7270   -7.6330 C.3    12  GLN12       0.0905
      7  CD        14.9180  -14.5120   -6.9390 C.2    12  GLN12       0.2608
      8  OE1       15.4920  -15.4350   -7.4670 O.2    12  GLN12      -0.2717
      9  NE2       15.1270  -14.1720   -5.7160 N.am   12  GLN12      -0.0878
     10  N         19.4950  -20.7820  -15.6270 N.3    80  MET80      -0.1230
     11  CA        20.4500  -20.8090  -14.5500 C.3    80  MET80       0.1702
     12  C         20.9070  -22.2390  -14.2050 C.2    80  MET80       0.2593
     13  O         20.7230  -23.1740  -15.0170 O.2    80  MET80      -0.2718
     14  CB        19.8750  -20.0730  -13.3310 C.3    80  MET80       0.0401
     15  CG        19.6930  -18.6020  -13.6140 C.3    80  MET80       0.0596
     16  SD        18.9130  -17.6650  -12.2970 S.3    80  MET80      -0.1393
     17  CE        17.2510  -18.3300  -12.3750 C.3    80  MET80       0.0692
     18  N         21.5770  -22.4250  -13.0690 N.am   81  SER81      -0.1952
     19  CA        22.4250  -23.5950  -12.9140 C.3    81  SER81       0.1924
     20  C         21.7360  -24.9080  -13.0000 C.2    81  SER81       0.2314
     21  O         22.0330  -25.7110  -13.9100 O.2    81  SER81      -0.2863
     22  CB        23.2570  -23.5000  -11.6430 C.3    81  SER81       0.2116
     23  OG        22.4340  -23.3410  -10.5160 O.3    81  SER81      -0.2180
     24  N         27.6660  -14.1900  -12.3580 N.3   118  THR118     -0.1203
     25  CA        27.2300  -14.9990  -11.2820 C.3   118  THR118      0.1994
     26  C         28.3940  -15.7040  -10.6420 C.2   118  THR118      0.2618
     27  O         29.4280  -15.9320  -11.2460 O.2   118  THR118     -0.2717
     28  CB        26.2310  -16.0680  -11.7820 C.3   118  THR118      0.1784
     29  OG1       25.9810  -17.0130  -10.7340 O.3   118  THR118     -0.2211
     30  CG2       26.6850  -16.7800  -12.9820 C.3   118  THR118      0.0376
     31  N         28.2110  -16.0350   -9.3680 N.am  119  ILE119     -0.1965
     32  CA        29.1550  -16.9580   -8.7110 C.3   119  ILE119      0.1727
     33  C         29.3240  -18.2900   -9.4170 C.2   119  ILE119      0.2616
     34  O         30.3780  -18.8960   -9.2790 O.2   119  ILE119     -0.2715
     35  CB        28.7600  -17.2070   -7.2410 C.3   119  ILE119      0.0290
     36  CG1       27.3290  -17.6740   -7.1170 C.3   119  ILE119      0.0022
     37  CG2       29.0270  -15.9590   -6.4130 C.3   119  ILE119      0.0023
     38  CD1       26.9520  -18.1950   -5.7500 C.3   119  ILE119      0.0001
     39  N         28.2950  -18.7200  -10.1660 N.am  120  ALA120     -0.1977
     40  CA        28.3800  -19.9180  -11.0080 C.3   120  ALA120      0.1597
     41  C         29.4760  -19.8750  -12.0780 C.2   120  ALA120      0.2287
     42  O         29.8210  -20.9130  -12.6720 O.2   120  ALA120     -0.2864
     43  CB        27.0200  -20.2220  -11.6200 C.3   120  ALA120      0.0319
     44  N         25.6170  -23.3270  -17.5280 N.3   143  TYR143     -0.1241
     45  CA        25.2420  -21.9460  -17.1810 C.3   143  TYR143      0.1605
     46  C         26.5080  -21.0940  -16.8800 C.2   143  TYR143      0.2264
     47  O         26.7110  -20.0070  -17.5050 O.2   143  TYR143     -0.2867
     48  CB        24.3910  -21.9520  -15.9640 C.3   143  TYR143      0.0534
     49  CG        24.1150  -20.6420  -15.2780 C.ar  143  TYR143     -0.0201
     50  CD1       23.5830  -19.5400  -15.9300 C.ar  143  TYR143     -0.0009
     51  CD2       24.3080  -20.5520  -13.9150 C.ar  143  TYR143     -0.0009
     52  CE1       23.2420  -18.3730  -15.2280 C.ar  143  TYR143      0.0417
     53  CE2       23.9510  -19.4370  -13.1850 C.ar  143  TYR143      0.0417
     54  CZ        23.4490  -18.3600  -13.8230 C.ar  143  TYR143      0.1957
     55  OH        23.0760  -17.2820  -13.1440 O.3   143  TYR143     -0.2866
     56  N         26.8490  -11.8220   -9.3660 N.3   170  LEU170     -0.1231
     57  CA        25.8860  -11.8210   -8.2840 C.3   170  LEU170      0.1678
     58  C         25.9950  -13.1430   -7.5070 C.2   170  LEU170      0.2434
     59  O         26.2290  -14.1900   -8.0970 O.2   170  LEU170     -0.2733
     60  CB        24.4750  -11.7330   -8.8650 C.3   170  LEU170      0.0284
     61  CG        24.0970  -10.3460   -9.4030 C.3   170  LEU170      0.0019
     62  CD1       22.7330  -10.3920  -10.0560 C.3   170  LEU170      0.0001
     63  CD2       24.2020   -9.2850   -8.3090 C.3   170  LEU170      0.0001
     64  N         25.7750  -13.0720   -6.2040 N.am  171  PRO171     -0.2718
     65  CA        25.6370  -14.1940   -5.3210 C.3   171  PRO171      0.1535
     66  C         24.2210  -14.7100   -5.4580 C.2   171  PRO171      0.2599
     67  O         23.4210  -14.1750   -6.2250 O.2   171  PRO171     -0.2715
     68  CB        25.9150  -13.5860   -3.9850 C.3   171  PRO171      0.0310
     69  CG        25.3330  -12.2510   -4.0620 C.3   171  PRO171      0.0237
     70  CD        25.5800  -11.7970   -5.4950 C.3   171  PRO171      0.0939
     71  N         23.8500  -15.6900   -4.6690 N.am  172  GLY172     -0.1941
     72  CA        22.4430  -16.0640   -4.6250 C.3   172  GLY172      0.2014
     73  C         21.5580  -14.9680   -4.0800 C.2   172  GLY172      0.2638
     74  O         21.8620  -14.3490   -3.0580 O.2   172  GLY172     -0.2714
     75  N         20.4760  -14.6780   -4.8070 N.am  173  ILE173     -0.1977
     76  CA        19.6220  -13.5380   -4.4710 C.3   173  ILE173      0.1596
     77  C         18.3390  -14.0930   -3.8310 C.2   173  ILE173      0.2287
     78  O         17.6510  -14.9900   -4.3610 O.2   173  ILE173     -0.2864
     79  CB        19.2910  -12.6520   -5.7120 C.3   173  ILE173      0.0276
     80  CG1       20.5660  -12.1810   -6.4110 C.3   173  ILE173      0.0022
     81  CG2       18.4010  -11.4960   -5.2940 C.3   173  ILE173      0.0022
     82  CD1       21.5750  -11.4940   -5.5120 C.3   173  ILE173      0.0001
     83  N         17.6740  -22.3430  -10.0070 N.3   183  GLY183     -0.1210
     84  CA        19.1080  -22.2770   -9.6460 C.3   183  GLY183      0.1956
     85  C         19.3210  -23.1280   -8.4020 C.2   183  GLY183      0.2612
     86  O         18.3520  -23.6110   -7.7650 O.2   183  GLY183     -0.2717
     87  N         20.5850  -23.3310   -8.0330 N.am  184  ALA184     -0.1965
     88  CA        20.9110  -24.1310   -6.8810 C.3   184  ALA184      0.1728
     89  C         20.5860  -23.4160   -5.5720 C.2   184  ALA184      0.2617
     90  O         20.4800  -24.0730   -4.5260 O.2   184  ALA184     -0.2715
     91  CB        22.3760  -24.4850   -6.9250 C.3   184  ALA184      0.0334
     92  N         20.5190  -22.0800   -5.5850 N.am  185  THR185     -0.1937
     93  CA        20.2750  -21.3710   -4.3330 C.3   185  THR185      0.2028
     94  C         18.7890  -21.2420   -4.0020 C.2   185  THR185      0.2642
     95  O         18.4250  -20.6940   -2.9830 O.2   185  THR185     -0.2714
     96  CB        20.8360  -19.9600   -4.3890 C.3   185  THR185      0.1808
     97  OG1       20.2510  -19.2930   -5.5250 O.3   185  THR185     -0.2208
     98  CG2       22.3310  -19.9680   -4.5570 C.3   185  THR185      0.0379
     99  N         17.9360  -21.7910   -4.8520 N.am  186  ASP186     -0.1971
    100  CA        16.4700  -21.7030   -4.6590 C.3   186  ASP186      0.1709
    101  C         15.9840  -22.3350   -3.3490 C.2   186  ASP186      0.2293
    102  O         14.9580  -21.8910   -2.7990 O.2   186  ASP186     -0.2864
    103  CB        15.7670  -22.3810   -5.8320 C.3   186  ASP186      0.1436
    104  CG        15.9810  -21.6690   -7.1690 C.2   186  ASP186      0.3671
    105  OD1       16.8940  -20.8160   -7.2720 O.co2 186  ASP186     -0.2456
    106  OD2       15.2010  -22.0320   -8.1360 O.co2 186  ASP186     -0.2456
    107  N         31.2570  -24.0130   -6.0210 N.3   279  TRP279     -0.1241
    108  CA        31.2510  -22.5620   -6.0590 C.3   279  TRP279      0.1605
    109  C         31.9740  -22.0420   -4.8130 C.2   279  TRP279      0.2264
    110  O         32.1500  -22.7920   -3.8690 O.2   279  TRP279     -0.2867
    111  CB        29.8300  -22.0530   -5.9650 C.3   279  TRP279      0.0550
    112  CG        28.9970  -22.3550   -7.1920 C.ar  279  TRP279      0.0003
    113  CD1       29.4370  -22.7630   -8.3930 C.ar  279  TRP279      0.0946
    114  CD2       27.5590  -22.1550   -7.3180 C.ar  279  TRP279      0.0152
    115  NE1       28.3460  -22.8930   -9.2410 N.ar  279  TRP279     -0.2442
    116  CE2       27.2050  -22.4730   -8.6130 C.ar  279  TRP279      0.0810
    117  CE3       26.5780  -21.7040   -6.4530 C.ar  279  TRP279      0.0012
    118  CZ2       25.8580  -22.3830   -9.0820 C.ar  279  TRP279      0.0191
    119  CZ3       25.2590  -21.6030   -6.8840 C.ar  279  TRP279      0.0001
    120  CH2       24.9070  -21.9440   -8.2040 C.ar  279  TRP279      0.0015
@<TRIPOS>BOND
     1    44    45    1
     2    47    46    2
     3    45    46    1
     4    45    48    1
     5    48    49    1
     6    50    49   ar
     7    50    52   ar
     8    10    11    1
     9    49    51   ar
    10    52    54   ar
    11    13    12    2
    12    11    12    1
    13    11    14    1
    14    12    18   am
    15    51    53   ar
    16    21    20    2
    17    54    53   ar
    18    54    55    1
    19    15    14    1
    20    15    16    1
    21    18    19    1
    22    20    19    1
    23    30    28    1
    24    19    22    1
    25    42    41    2
    26    17    16    1
    27    24    25    1
    28    41    40    1
    29    28    25    1
    30    28    29    1
    31    22    23    1
    32    43    40    1
    33    25    26    1
    34    27    26    2
    35     1     2    1
    36    40    39    1
    37    26    31   am
    38    39    33   am
    39    62    61    1
    40    83    84    1
    41     2     3    1
    42     2     5    1
    43     3     4    2
    44    84    85    1
    45    33    34    2
    46    33    32    1
    47    61    60    1
    48    61    63    1
    49    31    32    1
    50    56    57    1
    51   115   116   ar
    52   115   113   ar
    53     5     6    1
    54   118   116   ar
    55   118   120   ar
    56    60    57    1
    57    32    35    1
    58   116   114   ar
    59    85    87   am
    60    85    86    2
    61   113   112   ar
    62    57    58    1
    63   120   119   ar
    64   106   104   ar
    65    59    58    2
    66    87    88    1
    67     6     7    1
    68    58    64   am
    69     8     7    2
    70   114   112   ar
    71   114   117   ar
    72   105   104   ar
    73    35    36    1
    74    35    37    1
    75   112   111    1
    76   104   103    1
    77    36    38    1
    78     7     9   am
    79    91    88    1
    80   119   117   ar
    81    88    89    1
    82    80    79    1
    83    80    82    1
    84    67    66    2
    85    64    70    1
    86    64    65    1
    87   108   107    1
    88   108   111    1
    89   108   109    1
    90   103   100    1
    91    79    81    1
    92    79    76    1
    93    92    89   am
    94    92    93    1
    95    89    90    2
    96    97    96    1
    97    70    69    1
    98    66    65    1
    99    66    71   am
   100    65    68    1
   101    99   100    1
   102    99    94   am
   103   109   110    2
   104    75    76    1
   105    75    73   am
   106    71    72    1
   107   100   101    1
   108    72    73    1
   109    98    96    1
   110    76    77    1
   111    96    93    1
   112    78    77    2
   113    93    94    1
   114    73    74    2
   115    69    68    1
   116    94    95    2
   117   101   102    2
