@<TRIPOS>MOLECULE
tmp/5k4xA00.pdb
 112 103 0 0 0
SMALL
GASTEIGER

@<TRIPOS>ATOM
      1  N        120.3940   79.3490  -12.7870 N.3    79  ARG79      -0.1245
      2  CA       120.8610   80.7310  -12.7330 C.3    79  ARG79       0.1563
      3  C        122.0050   81.0200  -13.7010 C.2    79  ARG79       0.2260
      4  O        122.6940   82.0340  -13.5580 O.2    79  ARG79      -0.2867
      5  CB       121.2920   81.0900  -11.3070 C.3    79  ARG79       0.0307
      6  CG       122.4600   80.2630  -10.7690 C.3    79  ARG79       0.0489
      7  CD       122.7870   80.6800   -9.3460 C.3    79  ARG79       0.2205
      8  NE       123.7740   79.8340   -8.6820 N.pl3  79  ARG79      -0.0865
      9  CZ       125.0780   80.0840   -8.6380 C.cat  79  ARG79       0.5346
     10  NH1      125.5860   81.1530   -9.2420 N.pl3  79  ARG79       0.1354
     11  NH2      125.8840   79.2600   -7.9840 N.pl3  79  ARG79       0.1354
     12  N        122.4030   78.3050   -3.8760 N.3   129  ASP129     -0.1225
     13  CA       122.9000   77.1780   -4.6700 C.3   129  ASP129      0.1805
     14  C        124.4290   77.1330   -4.6910 C.2   129  ASP129      0.2598
     15  O        125.0700   77.8130   -5.4900 O.2   129  ASP129     -0.2718
     16  CB       122.3130   77.3070   -6.0920 C.3   129  ASP129      0.1424
     17  CG       122.9950   76.4200   -7.1250 C.2   129  ASP129      0.3668
     18  OD1      123.3130   75.2480   -6.8230 O.co2 129  ASP129     -0.2456
     19  OD2      123.2050   76.9110   -8.2640 O.co2 129  ASP129     -0.2456
     20  N        125.0180   76.3540   -3.7860 N.am  130  THR130     -0.1939
     21  CA       126.4730   76.1990   -3.7270 C.3   130  THR130      0.2028
     22  C        126.8720   74.7330   -3.6040 C.2   130  THR130      0.2642
     23  O        126.0460   73.8730   -3.2640 O.2   130  THR130     -0.2714
     24  CB       127.1000   76.9600   -2.5340 C.3   130  THR130      0.1808
     25  OG1      126.8820   76.2150   -1.3250 O.3   130  THR130     -0.2208
     26  CG2      126.5320   78.3790   -2.4020 C.3   130  THR130      0.0379
     27  N        128.1400   74.4420   -3.8760 N.am  131  ALA131     -0.1977
     28  CA       128.6420   73.0910   -3.7350 C.3   131  ALA131      0.1597
     29  C        128.9970   72.7610   -2.2830 C.2   131  ALA131      0.2287
     30  O        129.1840   71.5990   -1.9420 O.2   131  ALA131     -0.2864
     31  CB       129.8540   72.8810   -4.6340 C.3   131  ALA131      0.0319
     32  N        124.8070   73.0710   -0.8160 N.3   159  ASN159     -0.1240
     33  CA       124.5730   71.6960   -0.3700 C.3   159  ASN159      0.1653
     34  C        125.4620   71.3100    0.8000 C.2   159  ASN159      0.2266
     35  O        126.5410   71.8910    0.9930 O.2   159  ASN159     -0.2867
     36  CB       124.7890   70.6990   -1.5250 C.3   159  ASN159      0.1155
     37  CG       123.6020   70.6310   -2.4590 C.2   159  ASN159      0.2627
     38  OD1      122.7200   71.4910   -2.4150 O.2   159  ASN159     -0.2716
     39  ND2      123.5480   69.5890   -3.2870 N.am  159  ASN159     -0.0877
     40  N        119.5130   71.2530    1.6650 N.3   178  LYS178     -0.1245
     41  CA       119.7010   70.3570    0.5340 C.3   178  LYS178      0.1561
     42  C        120.9990   69.5870    0.6860 C.2   178  LYS178      0.2260
     43  O        122.0560   70.1590    0.9410 O.2   178  LYS178     -0.2867
     44  CB       119.6660   71.1480   -0.7730 C.3   178  LYS178      0.0271
     45  CG       119.4770   70.2650   -1.9900 C.3   178  LYS178      0.0035
     46  CD       118.6690   70.9490   -3.1020 C.3   178  LYS178      0.0206
     47  CE       119.3760   72.1920   -3.6660 C.3   178  LYS178      0.1093
     48  NZ       120.6850   71.9170   -4.3450 N.3   178  LYS178     -0.1314
     49  N        123.8470   66.7390   -0.5460 N.3   180  GLY180     -0.1210
     50  CA       124.5320   66.0670   -1.6240 C.3   180  GLY180      0.1956
     51  C        125.8240   66.7920   -1.9520 C.2   180  GLY180      0.2612
     52  O        125.8100   67.8820   -2.5410 O.2   180  GLY180     -0.2717
     53  N        126.9450   66.2120   -1.5420 N.am  181  VAL181     -0.1965
     54  CA       128.2550   66.6880   -1.9910 C.3   181  VAL181      0.1727
     55  C        128.9420   65.5190   -2.6770 C.2   181  VAL181      0.2617
     56  O        129.3000   64.5300   -2.0300 O.2   181  VAL181     -0.2715
     57  CB       129.1250   67.2170   -0.8410 C.3   181  VAL181      0.0290
     58  CG1      130.4810   67.6920   -1.3820 C.3   181  VAL181      0.0023
     59  CG2      128.4190   68.3450   -0.1410 C.3   181  VAL181      0.0023
     60  N        129.0850   65.6200   -3.9940 N.am  182  GLY182     -0.1941
     61  CA       129.6820   64.5520   -4.7750 C.3   182  GLY182      0.1998
     62  C        128.8280   63.5010   -5.4870 C.2   182  GLY182      0.2480
     63  O        129.3760   62.7800   -6.3060 O.2   182  GLY182     -0.2729
     64  N        127.5130   63.3760   -5.1880 N.am  183  PRO183     -0.2726
     65  CA       126.8630   62.1750   -5.7310 C.3   183  PRO183      0.1402
     66  C        126.2580   62.2980   -7.1380 C.2   183  PRO183      0.2269
     67  O        125.8250   61.2770   -7.6760 O.2   183  PRO183     -0.2865
     68  CB       125.7450   61.9180   -4.7180 C.3   183  PRO183      0.0296
     69  CG       125.3230   63.2740   -4.3340 C.3   183  PRO183      0.0237
     70  CD       126.5790   64.1320   -4.3260 C.3   183  PRO183      0.0939
     71  N        128.7430   64.6840  -11.9000 N.3   187  CYS187     -0.1235
     72  CA       129.6810   65.2770  -10.9740 C.3   187  CYS187      0.1677
     73  C        131.0700   64.6340  -10.9860 C.2   187  CYS187      0.2270
     74  O        131.1940   63.4640  -11.0290 O.2   187  CYS187     -0.2867
     75  CB       129.0870   65.1870   -9.5610 C.3   187  CYS187      0.0956
     76  SG       130.1050   65.8340   -8.2180 S.3   187  CYS187     -0.0801
     77  N        133.4080   66.0590   -8.6410 N.3   189  THR189     -0.1218
     78  CA       133.9780   66.5270   -7.3800 C.3   189  THR189      0.1862
     79  C        134.7570   65.4310   -6.6570 C.2   189  THR189      0.2287
     80  O        135.8350   65.6960   -6.1060 O.2   189  THR189     -0.2866
     81  CB       132.8760   67.0750   -6.4430 C.3   189  THR189      0.1770
     82  OG1      132.2540   68.2050   -7.0710 O.3   189  THR189     -0.2211
     83  CG2      133.4470   67.5120   -5.1020 C.3   189  THR189      0.0375
     84  N        119.5550   65.5460   -2.8740 N.3   220  ASP220     -0.1239
     85  CA       119.9290   66.0730   -4.1740 C.3   220  ASP220      0.1674
     86  C        121.1300   65.3720   -4.7840 C.2   220  ASP220      0.2266
     87  O        122.2710   65.5970   -4.3550 O.2   220  ASP220     -0.2867
     88  CB       120.2240   67.5620   -4.0220 C.3   220  ASP220      0.1410
     89  CG       120.6520   68.2220   -5.3190 C.2   220  ASP220      0.3668
     90  OD1      120.3560   67.6950   -6.4200 O.co2 220  ASP220     -0.2456
     91  OD2      121.2710   69.3060   -5.2110 O.co2 220  ASP220     -0.2456
     92  N        126.6680   71.8950  -14.1260 N.3   270  MET270     -0.1230
     93  CA       126.8090   73.3490  -14.1430 C.3   270  MET270      0.1702
     94  C        128.2560   73.7680  -13.8790 C.2   270  MET270      0.2592
     95  O        128.6280   74.9270  -14.0840 O.2   270  MET270     -0.2718
     96  CB       125.8560   73.9720  -13.1280 C.3   270  MET270      0.0401
     97  CG       124.4180   73.6500  -13.4730 C.3   270  MET270      0.0596
     98  SD       123.9880   74.2850  -15.1170 S.3   270  MET270     -0.1393
     99  CE       123.7150   75.9870  -14.6910 C.3   270  MET270      0.0692
    100  N        129.0740   72.8080  -13.4510 N.am  271  GLY271     -0.1957
    101  CA       130.4890   73.0440  -13.2290 C.3   271  GLY271      0.1869
    102  C        131.3300   72.4880  -14.3620 C.2   271  GLY271      0.2309
    103  O        132.5550   72.4210  -14.2480 O.2   271  GLY271     -0.2863
    104  N        134.3570   70.7210  -12.2990 N.3   280  GLU280     -0.1245
    105  CA       133.9300   69.6670  -11.3860 C.3   280  GLU280      0.1567
    106  C        132.6530   69.0140  -11.8890 C.2   280  GLU280      0.2260
    107  O        131.9040   68.3990  -11.1220 O.2   280  GLU280     -0.2867
    108  CB       133.7270   70.2140   -9.9750 C.3   280  GLU280      0.0388
    109  CG       135.0320   70.5910   -9.3030 C.3   280  GLU280      0.1160
    110  CD       134.8220   71.1180   -7.9080 C.2   280  GLU280      0.3649
    111  OE1      134.0330   70.5080   -7.1490 O.co2 280  GLU280     -0.2457
    112  OE2      135.4380   72.1510   -7.5800 O.co2 280  GLU280     -0.2457
@<TRIPOS>BOND
     1    98    99    1
     2    98    97    1
     3   102   103    2
     4   102   101    1
     5    93    92    1
     6    93    94    1
     7    93    96    1
     8    95    94    2
     9    94   100   am
    10     3     4    2
    11     3     2    1
    12    97    96    1
    13   100   101    1
    14     1     2    1
    15     2     5    1
    16   104   105    1
    17    71    72    1
    18   106   105    1
    19   106   107    2
    20   105   108    1
    21     5     6    1
    22    74    73    2
    23    73    72    1
    24    72    75    1
    25     6     7    1
    26   108   109    1
    27    75    76    1
    28     7     8    1
    29   109   110    1
    30    10     9    1
    31     8     9    2
    32    77    78    1
    33     9    11    1
    34    19    17   ar
    35   110   112   ar
    36   110   111   ar
    37    67    66    2
    38    78    79    1
    39    78    81    1
    40    66    65    1
    41    17    18   ar
    42    17    16    1
    43    82    81    1
    44    79    80    2
    45    81    83    1
    46    90    89   ar
    47    63    62    2
    48    16    13    1
    49    65    64    1
    50    65    68    1
    51    15    14    2
    52    62    64   am
    53    62    61    1
    54    89    91   ar
    55    89    88    1
    56    64    70    1
    57    86    87    2
    58    86    85    1
    59    61    60    1
    60    68    69    1
    61    14    13    1
    62    14    20   am
    63    13    12    1
    64    31    28    1
    65    48    47    1
    66    69    70    1
    67    85    88    1
    68    85    84    1
    69    60    55   am
    70    27    28    1
    71    27    22   am
    72    20    21    1
    73    28    29    1
    74    21    22    1
    75    21    24    1
    76    47    46    1
    77    22    23    2
    78    39    37   am
    79    46    45    1
    80    55    56    2
    81    55    54    1
    82    52    51    2
    83    24    26    1
    84    24    25    1
    85    37    38    2
    86    37    36    1
    87    29    30    2
    88    54    53    1
    89    54    57    1
    90    45    44    1
    91    51    50    1
    92    51    53   am
    93    50    49    1
    94    36    33    1
    95    58    57    1
    96    57    59    1
    97    32    33    1
    98    44    41    1
    99    33    34    1
   100    41    42    1
   101    41    40    1
   102    42    43    2
   103    34    35    2
