@<TRIPOS>MOLECULE
tmp/5k4zA01.pdb
 168 155 0 0 0
SMALL
GASTEIGER

@<TRIPOS>ATOM
      1  N         31.7660   79.7310  -11.7340 N.3    79  ARG79      -0.1245
      2  CA        32.2600   81.1100  -11.6550 C.3    79  ARG79       0.1563
      3  C         33.3740   81.4040  -12.6550 C.2    79  ARG79       0.2260
      4  O         34.0780   82.4270  -12.5420 O.2    79  ARG79      -0.2867
      5  CB        32.7380   81.4170  -10.2340 C.3    79  ARG79       0.0307
      6  CG        33.9300   80.5770   -9.7930 C.3    79  ARG79       0.0489
      7  CD        34.2970   80.8490   -8.3310 C.3    79  ARG79       0.2205
      8  NE        35.3250   79.9590   -7.7850 N.pl3  79  ARG79      -0.0865
      9  CZ        36.6280   80.2250   -7.7860 C.cat  79  ARG79       0.5346
     10  NH1       37.0810   81.3490   -8.3330 N.pl3  79  ARG79       0.1354
     11  NH2       37.4830   79.3620   -7.2500 N.pl3  79  ARG79       0.1354
     12  N         37.7460   83.3750   -3.3900 N.3   107  VAL107     -0.1245
     13  CA        38.2020   84.2020   -2.3000 C.3   107  VAL107      0.1561
     14  C         39.1150   85.3280   -2.7640 C.2   107  VAL107      0.2260
     15  O         39.7190   86.0200   -1.9760 O.2   107  VAL107     -0.2867
     16  CB        38.8600   83.4050   -1.1840 C.3   107  VAL107      0.0252
     17  CG1       37.8530   82.4760   -0.5540 C.3   107  VAL107      0.0019
     18  CG2       40.0290   82.6240   -1.7020 C.3   107  VAL107      0.0019
     19  N         33.6950   78.4050   -3.1020 N.3   129  ASP129     -0.1225
     20  CA        34.2040   77.2730   -3.8860 C.3   129  ASP129      0.1805
     21  C         35.7360   77.2530   -3.9280 C.2   129  ASP129      0.2598
     22  O         36.3500   77.9740   -4.7220 O.2   129  ASP129     -0.2718
     23  CB        33.6050   77.3660   -5.3090 C.3   129  ASP129      0.1424
     24  CG        34.3790   76.5690   -6.3620 C.2   129  ASP129      0.3668
     25  OD1       34.7300   75.3970   -6.1060 O.co2 129  ASP129     -0.2456
     26  OD2       34.6140   77.1190   -7.4730 O.co2 129  ASP129     -0.2456
     27  N         36.3490   76.4480   -3.0560 N.am  130  THR130     -0.1939
     28  CA        37.8080   76.3370   -2.9930 C.3   130  THR130      0.2028
     29  C         38.2530   74.8850   -2.8830 C.2   130  THR130      0.2642
     30  O         37.4560   74.0040   -2.5590 O.2   130  THR130     -0.2714
     31  CB        38.4200   77.1080   -1.7920 C.3   130  THR130      0.1808
     32  OG1       38.2640   76.3430   -0.5870 O.3   130  THR130     -0.2208
     33  CG2       37.7730   78.4670   -1.6210 C.3   130  THR130      0.0379
     34  N         39.5330   74.6410   -3.1450 N.am  131  ALA131     -0.1963
     35  CA        40.0970   73.3050   -3.0070 C.3   131  ALA131      0.1728
     36  C         40.4890   73.0180   -1.5660 C.2   131  ALA131      0.2616
     37  O         40.7680   71.8810   -1.2060 O.2   131  ALA131     -0.2715
     38  CB        41.3050   73.1380   -3.9120 C.3   131  ALA131      0.0334
     39  N         40.5110   74.0310   -0.7270 N.am  132  HIS132     -0.1973
     40  CA        40.9980   73.8570    0.6150 C.3   132  HIS132      0.1656
     41  C         40.4250   74.9230    1.5240 C.2   132  HIS132      0.2291
     42  O         40.9570   75.9630    1.6270 O.2   132  HIS132     -0.2864
     43  CB        42.5100   73.9290    0.6030 C.3   132  HIS132      0.0771
     44  CG        43.1590   73.6790    1.9220 C.ar  132  HIS132      0.0820
     45  ND1       42.7150   72.7350    2.8080 N.ar  132  HIS132     -0.2267
     46  CD2       44.2510   74.2230    2.4830 C.ar  132  HIS132      0.1154
     47  CE1       43.4830   72.7410    3.8770 C.ar  132  HIS132      0.1986
     48  NE2       44.4210   73.6330    3.6990 N.ar  132  HIS132     -0.2212
     49  N         41.5330   77.4470    5.3400 N.3   135  ASN135     -0.1240
     50  CA        42.4400   78.5640    5.0990 C.3   135  ASN135      0.1653
     51  C         41.7450   79.8040    5.6240 C.2   135  ASN135      0.2266
     52  O         40.5850   80.0310    5.2940 O.2   135  ASN135     -0.2867
     53  CB        42.7600   78.6590    3.5960 C.3   135  ASN135      0.1155
     54  CG        43.9300   79.5750    3.2870 C.2   135  ASN135      0.2627
     55  OD1       43.8220   80.7880    3.4140 O.2   135  ASN135     -0.2716
     56  ND2       45.0420   78.9950    2.8400 N.am  135  ASN135     -0.0877
     57  N         41.7260   82.7130    4.8790 N.3   137  LYS137     -0.1231
     58  CA        41.1470   83.4840    3.7850 C.3   137  LYS137      0.1693
     59  C         39.7700   82.9380    3.4190 C.2   137  LYS137      0.2591
     60  O         38.8370   83.7010    3.1850 O.2   137  LYS137     -0.2718
     61  CB        42.0740   83.4750    2.5650 C.3   137  LYS137      0.0285
     62  CG        41.5960   84.3940    1.4540 C.3   137  LYS137      0.0035
     63  CD        42.0290   85.8330    1.8120 C.3   137  LYS137      0.0206
     64  CE        41.8460   86.6880    0.5650 C.3   137  LYS137      0.1093
     65  NZ        41.9220   88.1090    0.9730 N.3   137  LYS137     -0.1314
     66  N         39.6280   81.6170    3.3910 N.am  138  VAL138     -0.1980
     67  CA        38.3230   81.0390    3.0830 C.3   138  VAL138      0.1595
     68  C         37.3520   81.2090    4.2580 C.2   138  VAL138      0.2287
     69  O         36.2130   81.6470    4.0730 O.2   138  VAL138     -0.2864
     70  CB        38.4380   79.5560    2.7060 C.3   138  VAL138      0.0276
     71  CG1       37.0680   79.0020    2.3320 C.3   138  VAL138      0.0022
     72  CG2       39.4190   79.3800    1.5500 C.3   138  VAL138      0.0022
     73  N         36.2600   73.2690   -0.0120 N.3   159  ASN159     -0.1240
     74  CA        36.0320   71.8870    0.3990 C.3   159  ASN159      0.1653
     75  C         36.9350   71.4940    1.5490 C.2   159  ASN159      0.2266
     76  O         38.0340   72.0480    1.7070 O.2   159  ASN159     -0.2867
     77  CB        36.2770   70.9410   -0.7730 C.3   159  ASN159      0.1155
     78  CG        35.0990   70.8600   -1.6960 C.2   159  ASN159      0.2627
     79  OD1       34.2270   71.7180   -1.6670 O.2   159  ASN159     -0.2716
     80  ND2       35.0580   69.8230   -2.5250 N.am  159  ASN159     -0.0877
     81  N         31.0400   71.4390    2.4800 N.3   178  LYS178     -0.1245
     82  CA        31.2200   70.5560    1.3260 C.3   178  LYS178      0.1561
     83  C         32.5200   69.7630    1.4780 C.2   178  LYS178      0.2260
     84  O         33.5620   70.3130    1.7990 O.2   178  LYS178     -0.2867
     85  CB        31.1920   71.3670    0.0190 C.3   178  LYS178      0.0271
     86  CG        31.0580   70.5180   -1.2440 C.3   178  LYS178      0.0035
     87  CD        30.2210   71.2030   -2.3470 C.3   178  LYS178      0.0206
     88  CE        30.8590   72.4900   -2.8970 C.3   178  LYS178      0.1093
     89  NZ        32.1930   72.2830   -3.5340 N.3   178  LYS178     -0.1314
     90  N         35.3650   66.9560    0.1720 N.3   180  GLY180     -0.1210
     91  CA        36.0580   66.3080   -0.9280 C.3   180  GLY180      0.1956
     92  C         37.3360   67.0380   -1.2940 C.2   180  GLY180      0.2612
     93  O         37.3000   68.1020   -1.9190 O.2   180  GLY180     -0.2717
     94  N         38.4660   66.4680   -0.8860 N.am  181  VAL181     -0.1965
     95  CA        39.7760   66.9490   -1.3030 C.3   181  VAL181      0.1727
     96  C         40.4790   65.7710   -1.9430 C.2   181  VAL181      0.2617
     97  O         40.8090   64.7980   -1.2800 O.2   181  VAL181     -0.2715
     98  CB        40.6090   67.5190   -0.1230 C.3   181  VAL181      0.0290
     99  CG1       42.0240   67.8990   -0.5960 C.3   181  VAL181      0.0023
    100  CG2       39.8880   68.7050    0.5160 C.3   181  VAL181      0.0023
    101  N         40.6410   65.8230   -3.2590 N.am  182  GLY182     -0.1941
    102  CA        41.2310   64.7030   -3.9710 C.3   182  GLY182      0.1998
    103  C         40.3840   63.6590   -4.7130 C.2   182  GLY182      0.2480
    104  O         40.9470   62.9360   -5.5390 O.2   182  GLY182     -0.2729
    105  N         39.0570   63.5550   -4.4520 N.am  183  PRO183     -0.2726
    106  CA        38.4080   62.3660   -5.0190 C.3   183  PRO183      0.1402
    107  C         37.7970   62.5260   -6.4170 C.2   183  PRO183      0.2269
    108  O         37.3430   61.5270   -6.9670 O.2   183  PRO183     -0.2865
    109  CB        37.2990   62.0830   -4.0060 C.3   183  PRO183      0.0296
    110  CG        36.8680   63.4310   -3.5870 C.3   183  PRO183      0.0237
    111  CD        38.1110   64.3110   -3.6080 C.3   183  PRO183      0.0939
    112  N         40.2510   64.7880  -11.1300 N.3   187  CYS187     -0.1235
    113  CA        41.1700   65.3800  -10.1660 C.3   187  CYS187      0.1677
    114  C         42.5750   64.7690  -10.2150 C.2   187  CYS187      0.2270
    115  O         42.7370   63.5530  -10.2800 O.2   187  CYS187     -0.2867
    116  CB        40.5920   65.2360   -8.7530 C.3   187  CYS187      0.0956
    117  SG        41.6190   65.9620   -7.4430 S.3   187  CYS187     -0.0801
    118  N         44.9180   66.2220   -7.9590 N.3   189  THR189     -0.1218
    119  CA        45.4560   66.7120   -6.6960 C.3   189  THR189      0.1862
    120  C         46.2520   65.6260   -5.9930 C.2   189  THR189      0.2287
    121  O         47.3020   65.8860   -5.4260 O.2   189  THR189     -0.2866
    122  CB        44.3370   67.2070   -5.7720 C.3   189  THR189      0.1770
    123  OG1       43.7040   68.3380   -6.3810 O.3   189  THR189     -0.2211
    124  CG2       44.8770   67.5850   -4.4200 C.3   189  THR189      0.0375
    125  N         31.0460   65.7900   -2.1020 N.3   220  ASP220     -0.1239
    126  CA        31.4570   66.3330   -3.4090 C.3   220  ASP220      0.1674
    127  C         32.6440   65.6020   -4.0410 C.2   220  ASP220      0.2266
    128  O         33.8050   65.7770   -3.6330 O.2   220  ASP220     -0.2867
    129  CB        31.7830   67.8260   -3.2470 C.3   220  ASP220      0.1410
    130  CG        32.1760   68.4900   -4.5440 C.2   220  ASP220      0.3668
    131  OD1       31.8460   67.9390   -5.6180 O.co2 220  ASP220     -0.2456
    132  OD2       32.8300   69.5660   -4.4910 O.co2 220  ASP220     -0.2456
    133  N         38.1900   72.2040  -13.3490 N.3   270  MET270     -0.1230
    134  CA        38.3370   73.6440  -13.3200 C.3   270  MET270      0.1702
    135  C         39.7690   74.0280  -13.0800 C.2   270  MET270      0.2592
    136  O         40.1230   75.1580  -13.2330 O.2   270  MET270     -0.2718
    137  CB        37.4380   74.2810  -12.2770 C.3   270  MET270      0.0401
    138  CG        35.9820   74.0750  -12.5710 C.3   270  MET270      0.0596
    139  SD        35.5180   74.6250  -14.2110 S.3   270  MET270     -0.1393
    140  CE        35.1070   76.2850  -13.8000 C.3   270  MET270      0.0692
    141  N         40.5800   73.0530  -12.6990 N.am  271  GLY271     -0.1957
    142  CA        42.0040   73.2500  -12.5000 C.3   271  GLY271      0.1869
    143  C         42.8330   72.6180  -13.6050 C.2   271  GLY271      0.2309
    144  O         44.0290   72.3990  -13.4390 O.2   271  GLY271     -0.2863
    145  N         41.8680   76.8470  -17.0440 N.3   276  MET276     -0.1245
    146  CA        42.6150   77.9700  -16.4920 C.3   276  MET276      0.1570
    147  C         43.0560   78.9200  -17.6020 C.2   276  MET276      0.2261
    148  O         43.3700   80.0840  -17.3410 O.2   276  MET276     -0.2867
    149  CB        43.8210   77.4750  -15.6930 C.3   276  MET276      0.0387
    150  CG        43.4490   76.7570  -14.4060 C.3   276  MET276      0.0595
    151  SD        44.8740   76.3130  -13.3850 S.3   276  MET276     -0.1393
    152  CE        45.6990   75.1160  -14.4280 C.3   276  MET276      0.0692
    153  N         50.4970   75.0720  -12.7670 N.3   279  VAL279     -0.1245
    154  CA        50.5600   73.6650  -12.3910 C.3   279  VAL279      0.1561
    155  C         49.1450   73.1240  -12.1940 C.2   279  VAL279      0.2260
    156  O         48.5330   73.3160  -11.1410 O.2   279  VAL279     -0.2867
    157  CB        51.4010   73.4660  -11.1160 C.3   279  VAL279      0.0252
    158  CG1       51.5690   71.9810  -10.8040 C.3   279  VAL279      0.0019
    159  CG2       52.7590   74.1330  -11.2900 C.3   279  VAL279      0.0019
    160  N         45.7880   70.9110  -11.6010 N.3   281  GLU281     -0.1245
    161  CA        45.4020   69.8590  -10.6730 C.3   281  GLU281      0.1567
    162  C         44.1200   69.1810  -11.1530 C.2   281  GLU281      0.2260
    163  O         43.4000   68.5560  -10.3760 O.2   281  GLU281     -0.2867
    164  CB        45.2420   70.4180   -9.2540 C.3   281  GLU281      0.0388
    165  CG        46.5690   70.8000   -8.6130 C.3   281  GLU281      0.1160
    166  CD        46.4040   71.3080   -7.1940 C.2   281  GLU281      0.3649
    167  OE1       45.7580   70.6030   -6.3830 O.co2 281  GLU281     -0.2457
    168  OE2       46.9050   72.4150   -6.8950 O.co2 281  GLU281     -0.2457
@<TRIPOS>BOND
     1   147   148    2
     2   147   146    1
     3   145   146    1
     4   146   149    1
     5   149   150    1
     6   152   151    1
     7   150   151    1
     8   139   140    1
     9   139   138    1
    10   143   144    2
    11   143   142    1
    12   133   134    1
    13   134   135    1
    14   134   137    1
    15   136   135    2
    16   135   141   am
    17   153   154    1
    18   141   142    1
    19     3     4    2
    20     3     2    1
    21   138   137    1
    22   154   155    1
    23   154   157    1
    24   155   156    2
    25     1     2    1
    26     2     5    1
    27   160   161    1
    28   159   157    1
    29   162   161    1
    30   162   163    2
    31   112   113    1
    32   157   158    1
    33   161   164    1
    34   115   114    2
    35     5     6    1
    36   114   113    1
    37   113   116    1
    38     6     7    1
    39   164   165    1
    40   116   117    1
    41   165   166    1
    42    10     9    1
    43     7     8    1
    44   118   119    1
    45     9     8    2
    46     9    11    1
    47    26    24   ar
    48   166   168   ar
    49   166   167   ar
    50   108   107    2
    51   119   120    1
    52   119   122    1
    53   107   106    1
    54   123   122    1
    55    24    25   ar
    56    24    23    1
    57   120   121    2
    58   122   124    1
    59   131   130   ar
    60   104   103    2
    61    23    20    1
    62   106   105    1
    63   106   109    1
    64    22    21    2
    65   103   105   am
    66   103   102    1
    67   130   132   ar
    68   130   129    1
    69   105   111    1
    70   127   128    2
    71   127   126    1
    72   109   110    1
    73   102   101    1
    74    21    20    1
    75    21    27   am
    76    38    35    1
    77    20    19    1
    78   111   110    1
    79    89    88    1
    80   126   129    1
    81   126   125    1
    82    12    13    1
    83   101    96   am
    84    34    35    1
    85    34    29   am
    86    27    28    1
    87    35    36    1
    88    28    29    1
    89    28    31    1
    90    88    87    1
    91    29    30    2
    92    14    13    1
    93    14    15    2
    94    80    78   am
    95    87    86    1
    96    13    16    1
    97    96    95    1
    98    96    97    2
    99    93    92    2
   100    31    33    1
   101    31    32    1
   102    18    16    1
   103    78    79    2
   104    78    77    1
   105    36    37    2
   106    36    39   am
   107    95    94    1
   108    95    98    1
   109    92    91    1
   110    92    94   am
   111    86    85    1
   112    16    17    1
   113    91    90    1
   114    77    74    1
   115    39    40    1
   116    99    98    1
   117    98   100    1
   118    73    74    1
   119    85    82    1
   120    74    75    1
   121    64    65    1
   122    64    63    1
   123    43    40    1
   124    43    44    1
   125    40    41    1
   126    82    83    1
   127    82    81    1
   128    62    63    1
   129    62    61    1
   130    83    84    2
   131    41    42    2
   132    75    76    2
   133    72    70    1
   134    44    46   ar
   135    44    45   ar
   136    71    70    1
   137    46    48   ar
   138    61    58    1
   139    70    67    1
   140    45    47   ar
   141    56    54   am
   142    67    66    1
   143    67    68    1
   144    60    59    2
   145    54    55    2
   146    54    53    1
   147    66    59   am
   148    59    58    1
   149    53    50    1
   150    48    47   ar
   151    58    57    1
   152    69    68    2
   153    50    49    1
   154    50    51    1
   155    52    51    2
