@<TRIPOS>MOLECULE
tmp/5k51B00.pdb
 111 106 0 0 0
SMALL
GASTEIGER

@<TRIPOS>ATOM
      1  N        -29.9210    4.8650    8.3600 N.3    47  LEU47      -0.1245
      2  CA       -31.3680    5.0610    8.2720 C.3    47  LEU47       0.1561
      3  C        -31.7740    5.6440    6.9230 C.2    47  LEU47       0.2260
      4  O        -31.0030    6.3650    6.2820 O.2    47  LEU47      -0.2867
      5  CB       -31.8870    5.9390    9.4180 C.3    47  LEU47       0.0270
      6  CG       -32.5510    5.1940   10.5790 C.3    47  LEU47       0.0019
      7  CD1      -31.6500    4.0840   11.0920 C.3    47  LEU47       0.0001
      8  CD2      -32.9090    6.1530   11.7030 C.3    47  LEU47       0.0001
      9  N        -27.1660   10.5220   11.2920 N.3    85  GLU85      -0.1245
     10  CA       -28.4730    9.9100   11.4780 C.3    85  GLU85       0.1567
     11  C        -29.5190   11.0120   11.5430 C.2    85  GLU85       0.2260
     12  O        -29.2960   12.0510   12.1710 O.2    85  GLU85      -0.2867
     13  CB       -28.5130    9.0440   12.7460 C.3    85  GLU85       0.0388
     14  CG       -29.7340    8.1430   12.8500 C.3    85  GLU85       0.1160
     15  CD       -29.5350    6.9980   13.8300 C.2    85  GLU85       0.3649
     16  OE1      -29.2080    5.8790   13.3840 O.co2  85  GLU85      -0.2457
     17  OE2      -29.6970    7.2190   15.0490 O.co2  85  GLU85      -0.2457
     18  N        -32.5330   11.1200   12.9770 N.3    87  ILE87      -0.1231
     19  CA       -33.0680   11.3180   14.3180 C.3    87  ILE87       0.1692
     20  C        -32.3760   10.3580   15.2760 C.2    87  ILE87       0.2592
     21  O        -31.9760    9.2510   14.9010 O.2    87  ILE87      -0.2718
     22  CB       -34.6050   11.1370   14.3630 C.3    87  ILE87       0.0266
     23  CG1      -35.1600   11.5930   15.7160 C.3    87  ILE87       0.0019
     24  CG2      -34.9920    9.6940   14.0710 C.3    87  ILE87       0.0020
     25  CD1      -36.6630   11.5600   15.8040 C.3    87  ILE87       0.0001
     26  N        -32.2210   10.8010   16.5220 N.am   88  LEU88      -0.1966
     27  CA       -31.6160   10.0100   17.5880 C.3    88  LEU88       0.1728
     28  C        -32.6050    9.9360   18.7440 C.2    88  LEU88       0.2616
     29  O        -32.8710   10.9460   19.4050 O.2    88  LEU88      -0.2715
     30  CB       -30.2880   10.6210   18.0350 C.3    88  LEU88       0.0311
     31  CG       -29.6040    9.9900   19.2480 C.3    88  LEU88       0.0022
     32  CD1      -29.3960    8.5030   19.0320 C.3    88  LEU88       0.0001
     33  CD2      -28.2800   10.6790   19.5260 C.3    88  LEU88       0.0001
     34  N        -33.1510    8.7440   18.9860 N.am   89  ASP89      -0.1957
     35  CA       -34.1280    8.5610   20.0520 C.3    89  ASP89       0.1840
     36  C        -33.6180    7.5890   21.1080 C.2    89  ASP89       0.2623
     37  O        -33.0960    8.0080   22.1450 O.2    89  ASP89      -0.2715
     38  CB       -35.4600    8.0680   19.4820 C.3    89  ASP89       0.1450
     39  CG       -36.5230    7.9020   20.5510 C.2    89  ASP89       0.3671
     40  OD1      -36.5770    8.7440   21.4710 O.co2  89  ASP89      -0.2456
     41  OD2      -37.3000    6.9280   20.4740 O.co2  89  ASP89      -0.2456
     42  N        -33.7640    6.2880   20.8530 N.am   90  THR90      -0.1937
     43  CA       -33.3660    5.2710   21.8180 C.3    90  THR90       0.2028
     44  C        -31.8640    5.0220   21.8450 C.2    90  THR90       0.2642
     45  O        -31.3810    4.3820   22.7860 O.2    90  THR90      -0.2714
     46  CB       -34.0850    3.9510   21.5250 C.3    90  THR90       0.1808
     47  OG1      -33.6160    3.4140   20.2820 O.3    90  THR90      -0.2208
     48  CG2      -35.5860    4.1730   21.4390 C.3    90  THR90       0.0379
     49  N        -31.1260    5.4960   20.8430 N.am   91  ALA91      -0.1963
     50  CA       -29.6910    5.2750   20.6890 C.3    91  ALA91       0.1728
     51  C        -29.3280    3.8000   20.5700 C.2    91  ALA91       0.2616
     52  O        -28.1470    3.4470   20.6720 O.2    91  ALA91      -0.2715
     53  CB       -28.8930    5.9180   21.8320 C.3    91  ALA91       0.0334
     54  N        -30.3120    2.9240   20.3580 N.am   92  LEU92      -0.1963
     55  CA       -30.0200    1.5140   20.1280 C.3    92  LEU92       0.1728
     56  C        -29.5030    1.2830   18.7130 C.2    92  LEU92       0.2616
     57  O        -28.5410    0.5330   18.5150 O.2    92  LEU92      -0.2715
     58  CB       -31.2690    0.6690   20.3820 C.3    92  LEU92       0.0311
     59  CG       -31.8640    0.7060   21.7910 C.3    92  LEU92       0.0022
     60  CD1      -33.1910   -0.0320   21.8270 C.3    92  LEU92       0.0001
     61  CD2      -30.8910    0.1110   22.7950 C.3    92  LEU92       0.0001
     62  N        -30.1340    1.9200   17.7230 N.am   93  THR93      -0.1951
     63  CA       -29.6820    1.7860   16.3430 C.3    93  THR93       0.1897
     64  C        -28.2770    2.3500   16.1650 C.2    93  THR93       0.2313
     65  O        -27.4360    1.7400   15.4950 O.2    93  THR93      -0.2863
     66  CB       -30.6580    2.4910   15.4000 C.3    93  THR93       0.1794
     67  OG1      -31.9640    1.9170   15.5340 O.3    93  THR93      -0.2208
     68  CG2      -30.1930    2.3610   13.9600 C.3    93  THR93       0.0378
     69  N        -33.4930   13.1900   20.4670 N.3   117  LYS117     -0.1245
     70  CA       -34.4910   13.0320   21.5160 C.3   117  LYS117      0.1561
     71  C        -33.8310   12.4620   22.7660 C.2   117  LYS117      0.2260
     72  O        -33.8260   11.2410   22.9640 O.2   117  LYS117     -0.2867
     73  CB       -35.6290   12.1130   21.0680 C.3   117  LYS117      0.0271
     74  CG       -36.5760   12.7280   20.0610 C.3   117  LYS117      0.0035
     75  CD       -37.7920   11.8390   19.8640 C.3   117  LYS117      0.0206
     76  CE       -38.7950   12.4710   18.9180 C.3   117  LYS117      0.1093
     77  NZ       -40.0630   11.6860   18.8100 N.3   117  LYS117     -0.1314
     78  N        -43.8590   13.0550   18.4570 N.3   138  PHE138     -0.1227
     79  CA       -43.6180   12.4680   17.1460 C.3   138  PHE138      0.1736
     80  C        -43.5810   13.5710   16.0960 C.2   138  PHE138      0.2595
     81  O        -44.5400   14.3400   15.9610 O.2   138  PHE138     -0.2718
     82  CB       -44.6890   11.4350   16.8070 C.3   138  PHE138      0.0547
     83  CG       -44.4310   10.7010   15.5230 C.ar  138  PHE138     -0.0202
     84  CD1      -43.5020    9.6740   15.4720 C.ar  138  PHE138     -0.0042
     85  CD2      -45.1130   11.0390   14.3660 C.ar  138  PHE138     -0.0042
     86  CE1      -43.2590    8.9970   14.2920 C.ar  138  PHE138     -0.0003
     87  CE2      -44.8750   10.3650   13.1830 C.ar  138  PHE138     -0.0003
     88  CZ       -43.9460    9.3430   13.1460 C.ar  138  PHE138     -0.0000
     89  N        -42.4790   13.6490   15.3550 N.am  139  VAL139     -0.1980
     90  CA       -42.2700   14.7090   14.3780 C.3   139  VAL139      0.1595
     91  C        -42.0030   14.0930   13.0120 C.2   139  VAL139      0.2287
     92  O        -41.5170   12.9630   12.8970 O.2   139  VAL139     -0.2864
     93  CB       -41.1120   15.6470   14.7870 C.3   139  VAL139      0.0276
     94  CG1      -41.3800   16.2510   16.1560 C.3   139  VAL139      0.0022
     95  CG2      -39.7880   14.8990   14.7800 C.3   139  VAL139      0.0022
     96  N        -37.6830   12.8230    8.0850 N.3   144  LEU144     -0.1231
     97  CA       -38.4170   12.0360    9.0640 C.3   144  LEU144      0.1693
     98  C        -39.8160   11.7380    8.5400 C.2   144  LEU144      0.2592
     99  O        -40.5490   12.6500    8.1430 O.2   144  LEU144     -0.2718
    100  CB       -38.4860   12.7770   10.3980 C.3   144  LEU144      0.0284
    101  CG       -37.1250   13.1890   10.9640 C.3   144  LEU144      0.0019
    102  CD1      -37.2750   13.8460   12.3250 C.3   144  LEU144      0.0001
    103  CD2      -36.1950   11.9900   11.0450 C.3   144  LEU144      0.0001
    104  N        -40.1850   10.4620    8.5400 N.am  145  ASP145     -0.1974
    105  CA       -41.4040   10.0000    7.8980 C.3   145  ASP145      0.1709
    106  C        -42.4180    9.5090    8.9220 C.2   145  ASP145      0.2293
    107  O        -42.0790    9.1600   10.0560 O.2   145  ASP145     -0.2864
    108  CB       -41.1070    8.8660    6.9130 C.3   145  ASP145      0.1436
    109  CG       -40.7650    7.5610    7.6140 C.2   145  ASP145      0.3671
    110  OD1      -39.9850    7.5940    8.5910 O.co2 145  ASP145     -0.2456
    111  OD2      -41.2850    6.5040    7.1980 O.co2 145  ASP145     -0.2456
@<TRIPOS>BOND
     1     4     3    2
     2   108   109    1
     3   108   105    1
     4     3     2    1
     5   111   109   ar
     6   109   110   ar
     7   105   104    1
     8   105   106    1
     9    96    97    1
    10    99    98    2
    11     2     1    1
    12     2     5    1
    13   104    98   am
    14    98    97    1
    15   106   107    2
    16    97   100    1
    17     5     6    1
    18   100   101    1
    19     6     7    1
    20     6     8    1
    21   101   103    1
    22   101   102    1
    23     9    10    1
    24    10    11    1
    25    10    13    1
    26    11    12    2
    27    13    14    1
    28    14    15    1
    29    92    91    2
    30    18    19    1
    31    91    90    1
    32    88    87   ar
    33    88    86   ar
    34    87    85   ar
    35    16    15   ar
    36    15    17   ar
    37    68    66    1
    38    24    22    1
    39    86    84   ar
    40    19    22    1
    41    19    20    1
    42    22    23    1
    43    85    83   ar
    44    90    93    1
    45    90    89    1
    46    95    93    1
    47    93    94    1
    48    21    20    2
    49    20    26   am
    50    89    80   am
    51    66    67    1
    52    66    63    1
    53    84    83   ar
    54    65    64    2
    55    83    82    1
    56    23    25    1
    57    81    80    2
    58    80    79    1
    59    64    63    1
    60    63    62    1
    61    26    27    1
    62    82    79    1
    63    79    78    1
    64    27    30    1
    65    27    28    1
    66    62    56   am
    67    30    31    1
    68    57    56    2
    69    56    55    1
    70    28    34   am
    71    28    29    2
    72    77    76    1
    73    76    75    1
    74    34    35    1
    75    32    31    1
    76    31    33    1
    77    38    35    1
    78    38    39    1
    79    75    74    1
    80    35    36    1
    81    74    73    1
    82    55    54    1
    83    55    58    1
    84    47    46    1
    85    54    51   am
    86    58    59    1
    87    69    70    1
    88    41    39   ar
    89    39    40   ar
    90    51    52    2
    91    51    50    1
    92    50    49    1
    93    50    53    1
    94    49    44   am
    95    42    36   am
    96    42    43    1
    97    73    70    1
    98    36    37    2
    99    48    46    1
   100    70    71    1
   101    46    43    1
   102    59    60    1
   103    59    61    1
   104    43    44    1
   105    44    45    2
   106    71    72    2
