@<TRIPOS>MOLECULE
tmp/5k52C00.pdb
 217 205 0 0 0
SMALL
GASTEIGER

@<TRIPOS>ATOM
      1  N          6.4650   88.8310    2.5290 N.3    12  TYR12      -0.1241
      2  CA         6.0050   87.9560    3.6020 C.3    12  TYR12       0.1605
      3  C          6.2890   86.4750    3.3330 C.2    12  TYR12       0.2264
      4  O          6.5030   85.6880    4.2590 O.2    12  TYR12      -0.2867
      5  CB         4.4790   88.1090    3.8240 C.3    12  TYR12       0.0534
      6  CG         4.0690   87.7390    5.2300 C.ar   12  TYR12      -0.0201
      7  CD1        3.9300   88.7040    6.1950 C.ar   12  TYR12      -0.0009
      8  CD2        3.8800   86.4140    5.6090 C.ar   12  TYR12      -0.0009
      9  CE1        3.5770   88.3850    7.4820 C.ar   12  TYR12       0.0417
     10  CE2        3.5470   86.0870    6.9230 C.ar   12  TYR12       0.0417
     11  CZ         3.3920   87.0770    7.8550 C.ar   12  TYR12       0.1957
     12  OH         3.0730   86.7760    9.1810 O.3    12  TYR12      -0.2866
     13  N          9.9430   86.0910    4.4370 N.3    15  ILE15      -0.1231
     14  CA        10.1150   86.2900    5.8590 C.3    15  ILE15       0.1692
     15  C          9.3910   85.1720    6.6360 C.2    15  ILE15       0.2592
     16  O          9.9840   84.6040    7.5350 O.2    15  ILE15      -0.2718
     17  CB         9.6770   87.7180    6.2180 C.3    15  ILE15       0.0266
     18  CG1       10.7310   88.7120    5.6970 C.3    15  ILE15       0.0019
     19  CG2        9.3490   87.8410    7.6840 C.3    15  ILE15       0.0020
     20  CD1       11.6840   89.2960    6.7160 C.3    15  ILE15       0.0001
     21  N          8.1680   84.8190    6.2460 N.am   16  ASN16      -0.1974
     22  CA         7.4420   83.6870    6.8370 C.3    16  ASN16       0.1688
     23  C          8.2240   82.3650    6.7650 C.2    16  ASN16       0.2292
     24  O          8.4190   81.7110    7.7470 O.2    16  ASN16      -0.2864
     25  CB         6.0860   83.5290    6.1180 C.3    16  ASN16       0.1181
     26  CG         5.2120   82.4430    6.7060 C.2    16  ASN16       0.2629
     27  OD1        4.5260   81.7400    5.9960 O.2    16  ASN16      -0.2716
     28  ND2        5.2020   82.3450    7.9910 N.am   16  ASN16      -0.0877
     29  N         11.4170   82.0540    6.4560 N.3    18  ILE18      -0.1231
     30  CA        12.6730   82.1510    7.2240 C.3    18  ILE18       0.1692
     31  C         12.3890   81.7330    8.6490 C.2    18  ILE18       0.2591
     32  O         13.0960   80.8950    9.2540 O.2    18  ILE18      -0.2718
     33  CB        13.3130   83.5540    7.0930 C.3    18  ILE18       0.0266
     34  CG1       14.0850   83.5980    5.7740 C.3    18  ILE18       0.0019
     35  CG2       14.2840   83.8940    8.2320 C.3    18  ILE18       0.0020
     36  CD1       14.5670   84.9830    5.3950 C.3    18  ILE18       0.0001
     37  N         11.2930   82.2730    9.1530 N.am   19  VAL19      -0.1980
     38  CA        10.8050   81.9440   10.4820 C.3    19  VAL19       0.1595
     39  C         10.3680   80.4820   10.5340 C.2    19  VAL19       0.2287
     40  O         10.7070   79.7900   11.4690 O.2    19  VAL19      -0.2864
     41  CB         9.7150   82.9330   10.8590 C.3    19  VAL19       0.0276
     42  CG1        8.8490   82.4460   11.9770 C.3    19  VAL19       0.0022
     43  CG2       10.3780   84.2380   11.2060 C.3    19  VAL19       0.0022
     44  N         13.4900   78.3620   10.2280 N.3    22  GLY22      -0.1210
     45  CA        14.2540   78.6100   11.4290 C.3    22  GLY22       0.1956
     46  C         13.8470   77.8310   12.6550 C.2    22  GLY22       0.2611
     47  O         14.7110   77.3610   13.3960 O.2    22  GLY22      -0.2717
     48  N         12.5440   77.7410   12.8980 N.am   23  GLU23      -0.1979
     49  CA        11.9910   76.9180   13.9830 C.3    23  GLU23       0.1602
     50  C         12.2190   75.3830   13.7180 C.2    23  GLU23       0.2287
     51  O         12.5770   74.6270   14.6370 O.2    23  GLU23      -0.2864
     52  CB        10.5280   77.2930   14.2390 C.3    23  GLU23       0.0415
     53  CG        10.2940   78.7510   14.7220 C.3    23  GLU23       0.1163
     54  CD        10.6090   79.0390   16.2200 C.2    23  GLU23       0.3649
     55  OE1       11.0230   78.1240   16.9820 O.co2  23  GLU23      -0.2457
     56  OE2       10.4450   80.2120   16.6710 O.co2  23  GLU23      -0.2457
     57  N         15.9390   74.6410   14.2300 N.3    26  ALA26      -0.1245
     58  CA        16.1470   74.6440   15.7040 C.3    26  ALA26       0.1562
     59  C         15.6930   73.3170   16.3830 C.2    26  ALA26       0.2260
     60  O         16.4980   72.6830   17.0210 O.2    26  ALA26      -0.2867
     61  CB        15.5200   75.8900   16.3740 C.3    26  ALA26       0.0290
     62  N          9.8450   74.5300   19.7590 N.3    51  GLU51      -0.1245
     63  CA        10.1030   75.1220   18.4290 C.3    51  GLU51       0.1567
     64  C          9.1460   74.6040   17.3580 C.2    51  GLU51       0.2260
     65  O          8.6730   75.3820   16.4880 O.2    51  GLU51      -0.2867
     66  CB        11.5400   74.8780   17.9620 C.3    51  GLU51       0.0388
     67  CG        12.6570   75.3020   18.9090 C.3    51  GLU51       0.1160
     68  CD        12.6730   76.8020   19.2380 C.2    51  GLU51       0.3649
     69  OE1       11.7000   77.3560   19.8410 O.co2  51  GLU51      -0.2457
     70  OE2       13.7180   77.4200   18.9370 O.co2  51  GLU51      -0.2457
     71  N          3.5680   79.7030   13.0340 N.3    58  PHE58      -0.1241
     72  CA         4.0810   80.5210   11.9670 C.3    58  PHE58       0.1605
     73  C          3.5700   80.0020   10.6320 C.2    58  PHE58       0.2264
     74  O          3.3730   80.7790    9.7090 O.2    58  PHE58      -0.2867
     75  CB         5.6110   80.6480   12.0440 C.3    58  PHE58       0.0534
     76  CG         6.0860   81.5250   13.1720 C.ar   58  PHE58      -0.0203
     77  CD1        5.5530   82.7990   13.3690 C.ar   58  PHE58      -0.0042
     78  CD2        7.0710   81.0910   14.0510 C.ar   58  PHE58      -0.0042
     79  CE1        5.9870   83.5990   14.4170 C.ar   58  PHE58      -0.0003
     80  CE2        7.5220   81.9090   15.0910 C.ar   58  PHE58      -0.0003
     81  CZ         6.9780   83.1730   15.2670 C.ar   58  PHE58      -0.0000
     82  N          0.3420   81.7120    9.9320 N.3    61  CYS61      -0.1235
     83  CA         0.4480   83.1530    9.6350 C.3    61  CYS61       0.1677
     84  C          0.4810   83.4330    8.1340 C.2    61  CYS61       0.2270
     85  O         -0.1480   84.3980    7.6810 O.2    61  CYS61      -0.2867
     86  CB         1.6650   83.7660   10.3270 C.3    61  CYS61       0.0956
     87  SG         1.5360   83.8200   12.1350 S.3    61  CYS61      -0.0801
     88  N         18.9080   80.4550    2.7030 N.3    77  PHE77      -0.1227
     89  CA        19.1960   81.5380    3.6710 C.3    77  PHE77       0.1736
     90  C         20.0230   80.9810    4.8240 C.2    77  PHE77       0.2595
     91  O         21.0420   81.5850    5.2310 O.2    77  PHE77      -0.2718
     92  CB        17.8930   82.1120    4.2020 C.3    77  PHE77       0.0547
     93  CG        18.0500   83.2830    5.1090 C.ar   77  PHE77      -0.0202
     94  CD1       18.4330   84.5120    4.6110 C.ar   77  PHE77      -0.0042
     95  CD2       17.7470   83.1910    6.4290 C.ar   77  PHE77      -0.0042
     96  CE1       18.5730   85.6140    5.4300 C.ar   77  PHE77      -0.0003
     97  CE2       17.8730   84.3040    7.2660 C.ar   77  PHE77      -0.0003
     98  CZ        18.2690   85.5210    6.7550 C.ar   77  PHE77      -0.0000
     99  N         19.5980   79.8120    5.3190 N.am   78  PHE78      -0.1976
    100  CA        20.2320   79.1850    6.5220 C.3    78  PHE78       0.1639
    101  C         21.4750   78.3330    6.2390 C.2    78  PHE78       0.2290
    102  O         22.1370   77.8680    7.1630 O.2    78  PHE78      -0.2864
    103  CB        19.2120   78.3520    7.3400 C.3    78  PHE78       0.0560
    104  CG        18.2910   79.1880    8.1970 C.ar   78  PHE78      -0.0200
    105  CD1       18.7110   79.6820    9.4140 C.ar   78  PHE78      -0.0042
    106  CD2       17.0040   79.4530    7.7900 C.ar   78  PHE78      -0.0042
    107  CE1       17.8700   80.4620   10.1860 C.ar   78  PHE78      -0.0003
    108  CE2       16.1420   80.1940    8.5660 C.ar   78  PHE78      -0.0003
    109  CZ        16.5790   80.7320    9.7470 C.ar   78  PHE78      -0.0000
    110  N         23.1790   78.2930   18.0530 N.3   101  GLN101     -0.1245
    111  CA        21.7430   78.0590   18.1760 C.3   101  GLN101      0.1566
    112  C         21.1310   78.8330   19.3120 C.2   101  GLN101      0.2260
    113  O         20.0500   79.4100   19.1650 O.2   101  GLN101     -0.2867
    114  CB        21.4380   76.5430   18.3910 C.3   101  GLN101      0.0367
    115  CG        19.9420   76.2040   18.5080 C.3   101  GLN101      0.0905
    116  CD        19.1300   76.6550   17.3190 C.2   101  GLN101      0.2608
    117  OE1       19.3940   76.2730   16.1720 O.2   101  GLN101     -0.2717
    118  NE2       18.1280   77.4870   17.5790 N.am  101  GLN101     -0.0878
    119  N         21.2090   82.7620   16.9370 N.3   105  ILE105     -0.1231
    120  CA        19.9330   82.5820   16.2750 C.3   105  ILE105      0.1692
    121  C         18.8490   83.0190   17.2040 C.2   105  ILE105      0.2591
    122  O         17.9370   83.6930   16.7970 O.2   105  ILE105     -0.2718
    123  CB        19.6940   81.0990   15.8590 C.3   105  ILE105      0.0266
    124  CG1       20.3890   80.8250   14.5520 C.3   105  ILE105      0.0019
    125  CG2       18.2180   80.8060   15.7130 C.3   105  ILE105      0.0020
    126  CD1       19.8930   81.6950   13.4120 C.3   105  ILE105      0.0001
    127  N         18.9520   82.6000   18.4520 N.am  106  GLU106     -0.1979
    128  CA        17.9810   82.9910   19.4330 C.3   106  GLU106      0.1602
    129  C         17.8870   84.5570   19.5640 C.2   106  GLU106      0.2287
    130  O         16.7810   85.1290   19.5130 O.2   106  GLU106     -0.2864
    131  CB        18.2790   82.3100   20.7670 C.3   106  GLU106      0.0415
    132  CG        17.0240   81.8980   21.5020 C.3   106  GLU106      0.1163
    133  CD        16.2380   80.8310   20.7430 C.2   106  GLU106      0.3649
    134  OE1       16.8120   79.7490   20.4090 O.co2 106  GLU106     -0.2457
    135  OE2       15.0380   81.0800   20.4860 O.co2 106  GLU106     -0.2457
    136  N         18.6320   86.7990   17.4160 N.3   108  PHE108     -0.1227
    137  CA        18.1870   87.3420   16.1680 C.3   108  PHE108      0.1736
    138  C         16.6800   87.0660   16.0850 C.2   108  PHE108      0.2595
    139  O         15.8900   87.9670   15.9460 O.2   108  PHE108     -0.2718
    140  CB        19.0070   86.6800   15.0690 C.3   108  PHE108      0.0547
    141  CG        18.7490   87.1920   13.7020 C.ar  108  PHE108     -0.0202
    142  CD1       18.6980   88.5700   13.4390 C.ar  108  PHE108     -0.0042
    143  CD2       18.6270   86.2990   12.6360 C.ar  108  PHE108     -0.0042
    144  CE1       18.4830   89.0250   12.1410 C.ar  108  PHE108     -0.0003
    145  CE2       18.4200   86.7520   11.3390 C.ar  108  PHE108     -0.0003
    146  CZ        18.3470   88.1080   11.0850 C.ar  108  PHE108     -0.0000
    147  N         16.2820   85.8300   16.3310 N.am  109  ALA109     -0.1980
    148  CA        14.9040   85.4770   16.3150 C.3   109  ALA109      0.1597
    149  C         14.0620   86.3740   17.2160 C.2   109  ALA109      0.2287
    150  O         13.1120   86.9950   16.7370 O.2   109  ALA109     -0.2864
    151  CB        14.7600   84.0300   16.6970 C.3   109  ALA109      0.0319
    152  N         13.7480   89.9250   16.1470 N.3   112  ALA112     -0.1231
    153  CA        13.0200   90.0380   14.9200 C.3   112  ALA112      0.1694
    154  C         11.5100   89.8990   15.1450 C.2   112  ALA112      0.2592
    155  O         10.7320   90.6390   14.6160 O.2   112  ALA112     -0.2718
    156  CB        13.5210   89.0230   13.9440 C.3   112  ALA112      0.0304
    157  N         11.1250   88.9970   16.0090 N.am  113  TYR113     -0.1976
    158  CA         9.7520   88.8710   16.3830 C.3   113  TYR113      0.1639
    159  C          9.3070   90.1120   17.1160 C.2   113  TYR113      0.2290
    160  O          8.1770   90.5240   17.0040 O.2   113  TYR113     -0.2864
    161  CB         9.5670   87.6810   17.3140 C.3   113  TYR113      0.0560
    162  CG         9.9420   86.2930   16.7990 C.ar  113  TYR113     -0.0198
    163  CD1       10.1680   86.0220   15.4610 C.ar  113  TYR113     -0.0009
    164  CD2       10.0180   85.2280   17.6940 C.ar  113  TYR113     -0.0009
    165  CE1       10.4970   84.7290   15.0390 C.ar  113  TYR113      0.0417
    166  CE2       10.3210   83.9270   17.2860 C.ar  113  TYR113      0.0417
    167  CZ        10.5720   83.6850   15.9770 C.ar  113  TYR113      0.1957
    168  OH        10.8810   82.4220   15.6380 O.3   113  TYR113     -0.2866
    169  N          8.8190   92.8640   14.6640 N.3   116  TYR116     -0.1241
    170  CA         7.6730   92.5250   13.8480 C.3   116  TYR116      0.1605
    171  C          6.3320   92.8000   14.5200 C.2   116  TYR116      0.2264
    172  O          5.4290   93.2340   13.8550 O.2   116  TYR116     -0.2867
    173  CB         7.6850   91.0250   13.4790 C.3   116  TYR116      0.0534
    174  CG         6.4450   90.5360   12.7050 C.ar  116  TYR116     -0.0201
    175  CD1        6.0740   91.1240   11.4920 C.ar  116  TYR116     -0.0009
    176  CD2        5.6690   89.4730   13.1800 C.ar  116  TYR116     -0.0009
    177  CE1        4.9600   90.6830   10.7930 C.ar  116  TYR116      0.0417
    178  CE2        4.5810   89.0020   12.4650 C.ar  116  TYR116      0.0417
    179  CZ         4.2340   89.6140   11.2630 C.ar  116  TYR116      0.1957
    180  OH         3.1490   89.1800   10.5690 O.3   116  TYR116     -0.2866
    181  N          9.3350   81.8610   24.1690 N.3   135  GLU135     -0.1245
    182  CA        10.7800   81.6460   23.8890 C.3   135  GLU135      0.1567
    183  C         11.7100   82.3280   24.8720 C.2   135  GLU135      0.2260
    184  O         12.9180   82.0700   24.8520 O.2   135  GLU135     -0.2867
    185  CB        11.1700   81.9660   22.4290 C.3   135  GLU135      0.0388
    186  CG        11.5840   80.7210   21.6350 C.3   135  GLU135      0.1160
    187  CD        11.8460   80.9630   20.1530 C.2   135  GLU135      0.3649
    188  OE1       11.4190   80.1640   19.2900 O.co2 135  GLU135     -0.2457
    189  OE2       12.5000   81.9670   19.8410 O.co2 135  GLU135     -0.2457
    190  N         17.8010   90.4270    3.9660 N.3   175  VAL175     -0.1245
    191  CA        16.3460   90.5410    4.2080 C.3   175  VAL175      0.1561
    192  C         15.9240   91.8290    4.7990 C.2   175  VAL175      0.2260
    193  O         14.7670   91.9780    5.0580 O.2   175  VAL175     -0.2867
    194  CB        15.7940   89.4110    5.1250 C.3   175  VAL175      0.0252
    195  CG1       16.2950   88.0770    4.6000 C.3   175  VAL175      0.0019
    196  CG2       16.1510   89.5910    6.6080 C.3   175  VAL175      0.0019
    197  N         12.2580   92.8030    5.2050 N.3   179  ALA179     -0.1245
    198  CA        11.7560   93.1690    6.5350 C.3   179  ALA179      0.1562
    199  C         11.1210   94.5770    6.5070 C.2   179  ALA179      0.2260
    200  O         10.1090   94.8020    7.1670 O.2   179  ALA179     -0.2867
    201  CB        12.8720   93.0970    7.5650 C.3   179  ALA179      0.0290
    202  N          9.4810   96.7740    9.4410 N.3   184  MET184     -0.1245
    203  CA        10.5680   96.5170   10.3750 C.3   184  MET184      0.1570
    204  C         11.8070   97.3010    9.9470 C.2   184  MET184      0.2261
    205  O         12.3950   97.0170    8.9080 O.2   184  MET184     -0.2867
    206  CB        10.8750   95.0030   10.4260 C.3   184  MET184      0.0387
    207  CG         9.6470   94.1350   10.6740 C.3   184  MET184      0.0595
    208  SD         9.9550   92.3860   10.3780 S.3   184  MET184     -0.1393
    209  CE        10.9770   91.9420   11.7270 C.3   184  MET184      0.0692
    210  N         16.2700   96.1250   14.2110 N.3   189  LEU189     -0.1245
    211  CA        16.6870   94.7380   14.2100 C.3   189  LEU189      0.1561
    212  C         18.1570   94.6480   14.5620 C.2   189  LEU189      0.2260
    213  O         18.5630   93.6810   15.1830 O.2   189  LEU189     -0.2867
    214  CB        16.5370   94.1050   12.8350 C.3   189  LEU189      0.0270
    215  CG        15.1530   93.9170   12.2550 C.3   189  LEU189      0.0019
    216  CD1       15.2750   93.6500   10.7410 C.3   189  LEU189      0.0001
    217  CD2       14.4690   92.7580   12.9930 C.3   189  LEU189      0.0001
@<TRIPOS>BOND
     1     1     2    1
     2    88    89    1
     3     3     2    1
     4     3     4    2
     5     2     5    1
     6    89    92    1
     7    89    90    1
     8     5     6    1
     9   190   191    1
    10    92    93    1
    11   191   192    1
    12   191   194    1
    13    13    14    1
    14   195   194    1
    15    94    93   ar
    16    94    96   ar
    17   192   193    2
    18    90    91    2
    19    90    99   am
    20    93    95   ar
    21   194   196    1
    22   197   198    1
    23     6     8   ar
    24     6     7   ar
    25    99   100    1
    26    36    34    1
    27    96    98   ar
    28     8    10   ar
    29    18    17    1
    30    18    20    1
    31    34    33    1
    32    14    17    1
    33    14    15    1
    34    27    26    2
    35    25    26    1
    36    25    22    1
    37     7     9   ar
    38    17    19    1
    39   101   100    1
    40   101   102    2
    41    21    15   am
    42    21    22    1
    43    95    97   ar
    44    29    30    1
    45   199   198    1
    46   199   200    2
    47   100   103    1
    48   198   201    1
    49    15    16    2
    50    26    28   am
    51    98    97   ar
    52    23    22    1
    53    23    24    2
    54    10    11   ar
    55    33    30    1
    56    33    35    1
    57    30    31    1
    58   103   104    1
    59     9    11   ar
    60    85    84    2
    61   106   104   ar
    62   106   108   ar
    63    11    12    1
    64    84    83    1
    65   104   105   ar
    66   108   109   ar
    67    31    37   am
    68    31    32    2
    69   205   204    2
    70    37    38    1
    71   105   107   ar
    72   202   203    1
    73    83    82    1
    74    83    86    1
    75    74    73    2
    76   109   107   ar
    77   204   203    1
    78    44    45    1
    79    86    87    1
    80   203   206    1
    81   208   207    1
    82   208   209    1
    83   206   207    1
    84    38    39    1
    85    38    41    1
    86    39    40    2
    87   180   179    1
    88    73    72    1
    89   216   215    1
    90   177   179   ar
    91   177   175   ar
    92    41    43    1
    93    41    42    1
    94   146   145   ar
    95   146   144   ar
    96   179   178   ar
    97   145   143   ar
    98    45    46    1
    99   175   174   ar
   100    72    75    1
   101    72    71    1
   102    75    76    1
   103   144   142   ar
   104   215   214    1
   105   215   217    1
   106   178   176   ar
   107   143   141   ar
   108    46    48   am
   109    46    47    2
   110   174   176   ar
   111   174   173    1
   112   214   211    1
   113    48    49    1
   114    76    77   ar
   115    76    78   ar
   116    77    79   ar
   117   126   124    1
   118   142   141   ar
   119   173   170    1
   120   141   140    1
   121    50    49    1
   122    50    51    2
   123   170   171    1
   124   170   169    1
   125   172   171    2
   126   156   153    1
   127    49    52    1
   128    78    80   ar
   129   211   210    1
   130   211   212    1
   131    57    58    1
   132    52    53    1
   133    79    81   ar
   134   124   123    1
   135   212   213    2
   136   155   154    2
   137    53    54    1
   138   153   154    1
   139   153   152    1
   140   165   163   ar
   141   165   167   ar
   142   140   137    1
   143    80    81   ar
   144   154   157   am
   145   163   162   ar
   146   168   167    1
   147    58    61    1
   148    58    59    1
   149   125   123    1
   150   123   120    1
   151   139   138    2
   152   167   166   ar
   153   157   158    1
   154   138   137    1
   155   138   147   am
   156   137   136    1
   157   117   116    2
   158    54    56   ar
   159    54    55   ar
   160   120   119    1
   161   120   121    1
   162   148   147    1
   163   148   151    1
   164   148   149    1
   165    59    60    2
   166   158   159    1
   167   158   161    1
   168    65    64    2
   169   150   149    2
   170   122   121    2
   171   162   161    1
   172   162   164   ar
   173   160   159    2
   174   121   127   am
   175   166   164   ar
   176   116   118   am
   177   116   115    1
   178    64    63    1
   179    66    63    1
   180    66    67    1
   181   110   111    1
   182   111   114    1
   183   111   112    1
   184   114   115    1
   185    63    62    1
   186   127   128    1
   187    67    68    1
   188    70    68   ar
   189   113   112    2
   190    68    69   ar
   191   188   187   ar
   192   128   129    1
   193   128   131    1
   194   130   129    2
   195   189   187   ar
   196   187   186    1
   197   134   133   ar
   198   135   133   ar
   199   133   132    1
   200   131   132    1
   201   186   185    1
   202   185   182    1
   203   182   181    1
   204   182   183    1
   205   184   183    2
