@<TRIPOS>MOLECULE
tmp/5k53B00.pdb
 225 212 0 0 0
SMALL
GASTEIGER

@<TRIPOS>ATOM
      1  N        -34.6610    7.3370  153.2280 N.3    12  TYR12      -0.1241
      2  CA       -34.4940    7.7470  151.8510 C.3    12  TYR12       0.1605
      3  C        -33.0810    7.5910  151.3470 C.2    12  TYR12       0.2264
      4  O        -32.8880    7.2420  150.1920 O.2    12  TYR12      -0.2867
      5  CB       -34.9110    9.2050  151.6660 C.3    12  TYR12       0.0534
      6  CG       -35.4340    9.4520  150.2680 C.ar   12  TYR12      -0.0201
      7  CD1      -36.7720    9.1240  149.9560 C.ar   12  TYR12      -0.0009
      8  CD2      -34.6330    9.9950  149.2800 C.ar   12  TYR12      -0.0009
      9  CE1      -37.2920    9.3330  148.6770 C.ar   12  TYR12       0.0417
     10  CE2      -35.1330   10.1890  147.9870 C.ar   12  TYR12       0.0417
     11  CZ       -36.4640    9.8890  147.6990 C.ar   12  TYR12       0.1957
     12  OH       -36.9850   10.1330  146.4370 O.3    12  TYR12      -0.2866
     13  N        -32.9960    3.9510  150.2850 N.3    15  ILE15      -0.1231
     14  CA       -33.9640    3.6250  149.1910 C.3    15  ILE15       0.1692
     15  C        -33.5200    4.3380  147.9040 C.2    15  ILE15       0.2592
     16  O        -33.5380    3.7310  146.8070 O.2    15  ILE15      -0.2718
     17  CB       -35.3860    4.0670  149.5680 C.3    15  ILE15       0.0266
     18  CG1      -35.9540    3.2560  150.7430 C.3    15  ILE15       0.0019
     19  CG2      -36.3390    4.0110  148.3770 C.3    15  ILE15       0.0020
     20  CD1      -36.2250    1.8160  150.5100 C.3    15  ILE15       0.0001
     21  N        -33.1370    5.5930  148.0490 N.am   16  ASN16      -0.1974
     22  CA       -32.6060    6.4120  146.9010 C.3    16  ASN16       0.1688
     23  C        -31.3860    5.7290  146.2960 C.2    16  ASN16       0.2292
     24  O        -31.2910    5.5360  145.0590 O.2    16  ASN16      -0.2864
     25  CB       -32.2940    7.8540  147.3210 C.3    16  ASN16       0.1181
     26  CG       -31.9310    8.7680  146.1290 C.2    16  ASN16       0.2629
     27  OD1      -30.8760    9.3440  146.1190 O.2    16  ASN16      -0.2716
     28  ND2      -32.7710    8.8290  145.1230 N.am   16  ASN16      -0.0877
     29  N        -30.6120    2.4010  146.3970 N.3    18  ILE18      -0.1231
     30  CA       -31.0720    1.1830  145.7820 C.3    18  ILE18       0.1692
     31  C        -31.6470    1.4770  144.4480 C.2    18  ILE18       0.2591
     32  O        -31.3560    0.7750  143.4800 O.2    18  ILE18      -0.2718
     33  CB       -32.1470    0.5290  146.6720 C.3    18  ILE18       0.0266
     34  CG1      -31.4280   -0.0890  147.8480 C.3    18  ILE18       0.0019
     35  CG2      -32.9720   -0.5450  145.9620 C.3    18  ILE18       0.0020
     36  CD1      -32.3770   -0.5570  148.9040 C.3    18  ILE18       0.0001
     37  N        -32.4690    2.5220  144.3700 N.am   19  VAL19      -0.1980
     38  CA       -33.0590    2.8670  143.0280 C.3    19  VAL19       0.1595
     39  C        -32.0230    3.3220  142.0380 C.2    19  VAL19       0.2287
     40  O        -32.0710    2.9000  140.8710 O.2    19  VAL19      -0.2864
     41  CB       -34.2930    3.7940  143.0790 C.3    19  VAL19       0.0276
     42  CG1      -35.4090    3.1030  143.8960 C.3    19  VAL19       0.0022
     43  CG2      -33.9750    5.1170  143.6290 C.3    19  VAL19       0.0022
     44  N        -30.0880    0.2890  140.9600 N.3    22  GLY22      -0.1210
     45  CA       -30.9330   -0.5200  140.1220 C.3    22  GLY22       0.1956
     46  C        -30.9780   -0.0050  138.6900 C.2    22  GLY22       0.2611
     47  O        -30.9490   -0.8040  137.7180 O.2    22  GLY22      -0.2717
     48  N        -31.1300    1.3100  138.5700 N.am   23  GLU23      -0.1979
     49  CA       -31.2430    1.9540  137.2520 C.3    23  GLU23       0.1602
     50  C        -29.8830    1.7840  136.4770 C.2    23  GLU23       0.2287
     51  O        -29.8550    1.4510  135.2820 O.2    23  GLU23      -0.2864
     52  CB       -31.6550    3.3970  137.4050 C.3    23  GLU23       0.0415
     53  CG       -33.0710    3.6210  137.9570 C.3    23  GLU23       0.1163
     54  CD       -34.2130    3.1140  137.0920 C.2    23  GLU23       0.3649
     55  OE1      -34.0950    2.7520  135.8990 O.co2  23  GLU23      -0.2457
     56  OE2      -35.3500    3.0880  137.6400 O.co2  23  GLU23      -0.2457
     57  N        -29.7000   -1.8430  135.3830 N.3    26  ALA26      -0.1245
     58  CA       -30.5270   -2.0170  134.2380 C.3    26  ALA26       0.1562
     59  C        -29.8940   -1.4920  132.9430 C.2    26  ALA26       0.2260
     60  O        -30.0260   -2.1290  131.8680 O.2    26  ALA26      -0.2867
     61  CB       -31.8440   -1.2830  134.4770 C.3    26  ALA26       0.0290
     62  N        -32.8770    3.9750  130.8630 N.3    51  GLU51      -0.1245
     63  CA       -32.4010    3.6040  132.2120 C.3    51  GLU51       0.1567
     64  C        -31.3850    4.6550  132.6970 C.2    51  GLU51       0.2260
     65  O        -31.4010    5.0620  133.8610 O.2    51  GLU51      -0.2867
     66  CB       -31.8510    2.1710  132.2810 C.3    51  GLU51       0.0388
     67  CG       -32.7590    1.0940  131.7950 C.3    51  GLU51       0.1160
     68  CD       -33.9090    0.8830  132.6950 C.2    51  GLU51       0.3649
     69  OE1      -34.1160    1.7870  133.5110 O.co2  51  GLU51      -0.2457
     70  OE2      -34.5460   -0.1710  132.6610 O.co2  51  GLU51      -0.2457
     71  N        -33.5080    9.9490  139.4890 N.3    58  PHE58      -0.1241
     72  CA       -33.5480    9.6060  140.9000 C.3    58  PHE58       0.1605
     73  C        -32.4040   10.2390  141.6680 C.2    58  PHE58       0.2264
     74  O        -32.5510   10.5620  142.8330 O.2    58  PHE58      -0.2867
     75  CB       -33.6380    8.1290  141.1420 C.3    58  PHE58       0.0534
     76  CG       -34.9250    7.5300  140.7060 C.ar   58  PHE58      -0.0203
     77  CD1      -36.1310    7.9590  141.2030 C.ar   58  PHE58      -0.0042
     78  CD2      -34.9150    6.5470  139.7870 C.ar   58  PHE58      -0.0042
     79  CE1      -37.3220    7.3960  140.8180 C.ar   58  PHE58      -0.0003
     80  CE2      -36.0950    5.9470  139.3780 C.ar   58  PHE58      -0.0003
     81  CZ       -37.3280    6.3830  139.8750 C.ar   58  PHE58      -0.0000
     82  N        -33.8060   13.4420  142.6800 N.3    61  CYS61      -0.1235
     83  CA       -34.7090   13.2510  143.8010 C.3    61  CYS61       0.1677
     84  C        -34.0460   13.2510  145.1620 C.2    61  CYS61       0.2270
     85  O        -34.6300   13.7970  146.1330 O.2    61  CYS61      -0.2867
     86  CB       -35.5300   11.9550  143.6840 C.3    61  CYS61       0.0956
     87  SG       -36.7040   11.8780  142.3130 S.3    61  CYS61      -0.0801
     88  N        -27.0040   -4.9620  148.2720 N.3    77  PHE77      -0.1227
     89  CA       -28.4180   -5.2980  147.9590 C.3    77  PHE77       0.1736
     90  C        -28.6200   -5.9800  146.5940 C.2    77  PHE77       0.2595
     91  O        -29.4100   -6.9340  146.4760 O.2    77  PHE77      -0.2718
     92  CB       -29.2590   -3.9840  148.1500 C.3    77  PHE77       0.0547
     93  CG       -30.7450   -4.1270  147.9860 C.ar   77  PHE77      -0.0202
     94  CD1      -31.5350   -4.5570  149.0440 C.ar   77  PHE77      -0.0042
     95  CD2      -31.3780   -3.8000  146.7740 C.ar   77  PHE77      -0.0042
     96  CE1      -32.9020   -4.6880  148.9030 C.ar   77  PHE77      -0.0003
     97  CE2      -32.7660   -3.9510  146.6340 C.ar   77  PHE77      -0.0003
     98  CZ       -33.5260   -4.3590  147.7120 C.ar   77  PHE77      -0.0000
     99  N        -27.9660   -5.4630  145.5570 N.am   78  PHE78      -0.1976
    100  CA       -28.0710   -5.9820  144.1890 C.3    78  PHE78       0.1639
    101  C        -27.0300   -7.1240  143.8820 C.2    78  PHE78       0.2290
    102  O        -27.0190   -7.6770  142.7770 O.2    78  PHE78      -0.2864
    103  CB       -27.9370   -4.8160  143.1850 C.3    78  PHE78       0.0560
    104  CG       -29.2550   -4.1330  142.9020 C.ar   78  PHE78      -0.0200
    105  CD1      -30.1590   -4.6830  142.0000 C.ar   78  PHE78      -0.0042
    106  CD2      -29.6020   -2.9640  143.5530 C.ar   78  PHE78      -0.0042
    107  CE1      -31.3990   -4.0710  141.7670 C.ar   78  PHE78      -0.0003
    108  CE2      -30.8360   -2.3800  143.3400 C.ar   78  PHE78      -0.0003
    109  CZ       -31.7270   -2.9220  142.4710 C.ar   78  PHE78      -0.0000
    110  N        -33.7390   -9.3990  134.2240 N.3   101  GLN101     -0.1245
    111  CA       -33.8230   -7.9240  134.0790 C.3   101  GLN101      0.1566
    112  C        -35.2790   -7.5200  133.6480 C.2   101  GLN101      0.2260
    113  O        -35.9750   -6.7250  134.3330 O.2   101  GLN101     -0.2867
    114  CB       -32.7320   -7.3270  133.2010 C.3   101  GLN101      0.0367
    115  CG       -32.9430   -5.8350  132.8570 C.3   101  GLN101      0.0905
    116  CD       -32.8830   -4.9560  134.1080 C.2   101  GLN101      0.2608
    117  OE1      -31.9470   -5.0440  134.8890 O.2   101  GLN101     -0.2717
    118  NE2      -33.9050   -4.0840  134.2870 N.am  101  GLN101     -0.0878
    119  N        -37.0110   -7.8810  137.5830 N.3   105  ILE105     -0.1231
    120  CA       -36.6150   -6.6030  138.1310 C.3   105  ILE105      0.1692
    121  C        -37.6120   -5.4740  137.6740 C.2   105  ILE105      0.2591
    122  O        -37.9870   -4.6270  138.5350 O.2   105  ILE105     -0.2718
    123  CB       -35.1610   -6.2990  137.7890 C.3   105  ILE105      0.0266
    124  CG1      -34.1820   -7.2530  138.4840 C.3   105  ILE105      0.0019
    125  CG2      -34.8010   -4.8710  138.0820 C.3   105  ILE105      0.0020
    126  CD1      -32.7300   -7.1100  138.0800 C.3   105  ILE105      0.0001
    127  N        -38.0410   -5.4920  136.4110 N.am  106  GLU106     -0.1979
    128  CA       -38.9930   -4.4390  135.9470 C.3   106  GLU106      0.1602
    129  C        -40.3040   -4.6030  136.7220 C.2   106  GLU106      0.2287
    130  O        -40.9400   -3.6000  137.0850 O.2   106  GLU106     -0.2864
    131  CB       -39.2460   -4.5120  134.4350 C.3   106  GLU106      0.0415
    132  CG       -38.0040   -4.3450  133.5730 C.3   106  GLU106      0.1163
    133  CD       -37.4340   -2.9790  133.4720 C.2   106  GLU106      0.3649
    134  OE1      -38.0930   -1.9610  133.9570 O.co2 106  GLU106     -0.2457
    135  OE2      -36.3220   -2.8840  132.8320 O.co2 106  GLU106     -0.2457
    136  N        -40.7500   -5.6930  139.7350 N.3   108  PHE108     -0.1227
    137  CA       -40.5030   -5.1920  141.0720 C.3   108  PHE108      0.1736
    138  C        -40.4710   -3.6770  141.1350 C.2   108  PHE108      0.2595
    139  O        -41.0090   -3.0660  142.0590 O.2   108  PHE108     -0.2718
    140  CB       -39.2250   -5.7950  141.5470 C.3   108  PHE108      0.0547
    141  CG       -38.9550   -5.5610  142.9880 C.ar  108  PHE108     -0.0202
    142  CD1      -39.8610   -5.9830  143.9480 C.ar  108  PHE108     -0.0042
    143  CD2      -37.8080   -4.9270  143.3680 C.ar  108  PHE108     -0.0042
    144  CE1      -39.5920   -5.7770  145.2890 C.ar  108  PHE108     -0.0003
    145  CE2      -37.5330   -4.7090  144.7050 C.ar  108  PHE108     -0.0003
    146  CZ       -38.4350   -5.1220  145.6580 C.ar  108  PHE108     -0.0000
    147  N        -39.7830   -3.0730  140.1780 N.am  109  ALA109     -0.1980
    148  CA       -39.7080   -1.6060  140.0640 C.3   109  ALA109      0.1597
    149  C        -41.1130   -1.0220  139.7810 C.2   109  ALA109      0.2287
    150  O        -41.4930   -0.0360  140.4010 O.2   109  ALA109     -0.2864
    151  CB       -38.7640   -1.2080  138.9810 C.3   109  ALA109      0.0319
    152  N        -43.1550   -1.2370  142.9810 N.3   112  ALA112     -0.1231
    153  CA       -42.6380   -0.3250  143.9720 C.3   112  ALA112      0.1694
    154  C        -42.8360    1.1520  143.6260 C.2   112  ALA112      0.2592
    155  O        -43.2220    1.9640  144.4710 O.2   112  ALA112     -0.2718
    156  CB       -41.1610   -0.6060  144.2040 C.3   112  ALA112      0.0304
    157  N        -42.5250    1.5020  142.3890 N.am  113  TYR113     -0.1976
    158  CA       -42.7160    2.8670  141.9560 C.3   113  TYR113      0.1639
    159  C        -44.1820    3.3430  142.0620 C.2   113  TYR113      0.2290
    160  O        -44.4120    4.4830  142.4900 O.2   113  TYR113     -0.2864
    161  CB       -42.1200    3.0900  140.5770 C.3   113  TYR113      0.0560
    162  CG       -40.5960    2.9580  140.5080 C.ar  113  TYR113     -0.0198
    163  CD1      -39.7940    2.8430  141.5990 C.ar  113  TYR113     -0.0009
    164  CD2      -39.9640    2.9010  139.2580 C.ar  113  TYR113     -0.0009
    165  CE1      -38.3930    2.6950  141.4740 C.ar  113  TYR113      0.0417
    166  CE2      -38.5800    2.7830  139.1550 C.ar  113  TYR113      0.0417
    167  CZ       -37.8090    2.6930  140.2600 C.ar  113  TYR113      0.1957
    168  OH       -36.4200    2.4900  140.0880 O.3   113  TYR113     -0.2866
    169  N        -44.8980    4.0470  145.5540 N.3   116  TYR116     -0.1241
    170  CA       -44.2700    5.2580  145.9940 C.3   116  TYR116      0.1605
    171  C        -45.0230    6.5030  145.5350 C.2   116  TYR116      0.2264
    172  O        -45.0490    7.5100  146.2680 O.2   116  TYR116     -0.2867
    173  CB       -42.8000    5.3530  145.5190 C.3   116  TYR116      0.0534
    174  CG       -42.0140    6.5940  145.8030 C.ar  116  TYR116     -0.0201
    175  CD1      -41.8090    7.0540  147.1140 C.ar  116  TYR116     -0.0009
    176  CD2      -41.3410    7.2770  144.7720 C.ar  116  TYR116     -0.0009
    177  CE1      -41.0840    8.1820  147.3670 C.ar  116  TYR116      0.0417
    178  CE2      -40.5550    8.4070  144.9980 C.ar  116  TYR116      0.0417
    179  CZ       -40.4210    8.8610  146.3220 C.ar  116  TYR116      0.1957
    180  OH       -39.6700    9.9450  146.5440 O.3   116  TYR116     -0.2866
    181  N        -40.9850    2.0780  132.1590 N.3   135  GLU135     -0.1245
    182  CA       -40.7470    0.7010  132.6030 C.3   135  GLU135      0.1567
    183  C        -41.7700   -0.3280  132.0170 C.2   135  GLU135      0.2260
    184  O        -41.4200   -1.5010  131.8370 O.2   135  GLU135     -0.2867
    185  CB       -40.5760    0.5940  134.1700 C.3   135  GLU135      0.0388
    186  CG       -39.6570    1.6670  134.8490 C.3   135  GLU135      0.1160
    187  CD       -38.0840    1.5150  134.9190 C.2   135  GLU135      0.3649
    188  OE1      -37.4730    2.0180  135.9440 O.co2 135  GLU135     -0.2457
    189  OE2      -37.3690    1.0370  133.9650 O.co2 135  GLU135     -0.2457
    190  N        -35.4960   -4.0310  152.2350 N.3   175  VAL175     -0.1245
    191  CA       -35.9250   -2.6030  152.1020 C.3   175  VAL175      0.1561
    192  C        -37.2240   -2.2410  152.8150 C.2   175  VAL175      0.2260
    193  O        -37.5300   -1.0680  152.8750 O.2   175  VAL175     -0.2867
    194  CB       -36.1380   -2.1380  150.6330 C.3   175  VAL175      0.0252
    195  CG1      -34.8570   -2.1750  149.8760 C.3   175  VAL175      0.0019
    196  CG2      -37.2230   -2.9310  149.9240 C.3   175  VAL175      0.0019
    197  N        -38.8090    1.3040  153.4170 N.3   179  ALA179     -0.1245
    198  CA       -39.9680    1.6340  152.5560 C.3   179  ALA179      0.1562
    199  C        -41.1620    2.0790  153.3960 C.2   179  ALA179      0.2260
    200  O        -41.8540    3.0430  153.0680 O.2   179  ALA179     -0.2867
    201  CB       -40.3200    0.4680  151.6920 C.3   179  ALA179      0.0290
    202  N        -41.1160    5.6870  154.2630 N.3   182  LEU182     -0.1245
    203  CA       -41.5400    6.5880  153.1740 C.3   182  LEU182      0.1561
    204  C        -43.0280    6.5790  152.9600 C.2   182  LEU182      0.2260
    205  O        -43.5070    7.2950  152.0770 O.2   182  LEU182     -0.2867
    206  CB       -40.8690    6.2540  151.8150 C.3   182  LEU182      0.0270
    207  CG       -39.3680    6.0190  151.7700 C.3   182  LEU182      0.0019
    208  CD1      -38.8860    6.1440  150.3110 C.3   182  LEU182      0.0001
    209  CD2      -38.6000    6.9220  152.6810 C.3   182  LEU182      0.0001
    210  N        -44.7870    3.5050  152.4420 N.3   184  MET184     -0.1245
    211  CA       -45.1500    2.3650  151.5800 C.3   184  MET184      0.1570
    212  C        -45.4290    1.0850  152.3530 C.2   184  MET184      0.2261
    213  O        -44.5740    0.6370  153.1000 O.2   184  MET184     -0.2867
    214  CB       -44.0030    2.1000  150.5650 C.3   184  MET184      0.0387
    215  CG       -43.6640    3.3120  149.6640 C.3   184  MET184      0.0595
    216  SD       -42.0810    3.1170  148.7830 S.3   184  MET184     -0.1393
    217  CE       -42.5530    1.7480  147.7920 C.3   184  MET184      0.0692
    218  N        -46.7090   -3.8670  148.3640 N.3   189  LEU189     -0.1245
    219  CA       -45.5360   -4.2670  147.5540 C.3   189  LEU189      0.1561
    220  C        -45.5260   -5.7140  147.1350 C.2   189  LEU189      0.2260
    221  O        -45.3450   -6.0060  145.9670 O.2   189  LEU189     -0.2867
    222  CB       -44.1840   -3.8850  148.2270 C.3   189  LEU189      0.0270
    223  CG       -43.1760   -3.2190  147.2770 C.3   189  LEU189      0.0019
    224  CD1      -43.6010   -1.7640  147.0660 C.3   189  LEU189      0.0001
    225  CD2      -41.7270   -3.2900  147.7870 C.3   189  LEU189      0.0001
@<TRIPOS>BOND
     1    62    63    1
     2    67    66    1
     3    67    68    1
     4   184   183    2
     5    60    59    2
     6   183   182    1
     7   181   182    1
     8    63    66    1
     9    63    64    1
    10   182   185    1
    11    70    68   ar
    12    68    69   ar
    13    64    65    2
    14   135   133   ar
    15   115   114    1
    16   115   116    1
    17    59    58    1
    18   114   111    1
    19   133   132    1
    20   133   134   ar
    21   132   131    1
    22   112   111    1
    23   112   113    2
    24   189   187   ar
    25   111   110    1
    26   116   118   am
    27   116   117    2
    28   185   186    1
    29    58    61    1
    30    58    57    1
    31   131   128    1
    32   186   187    1
    33   187   188   ar
    34    51    50    2
    35    55    54   ar
    36   128   127    1
    37   128   129    1
    38   127   121   am
    39    50    49    1
    40   129   130    2
    41    54    56   ar
    42    54    53    1
    43    49    52    1
    44    49    48    1
    45    52    53    1
    46   119   120    1
    47   121   120    1
    48   121   122    2
    49    47    46    2
    50   123   125    1
    51   123   120    1
    52   123   124    1
    53   126   124    1
    54    48    46   am
    55    46    45    1
    56   151   148    1
    57   166   164   ar
    58   166   167   ar
    59   164   162   ar
    60    80    78   ar
    61    80    81   ar
    62    71    72    1
    63   136   137    1
    64   149   148    1
    65   149   150    2
    66    78    76   ar
    67    81    79   ar
    68   148   147    1
    69   168   167    1
    70    45    44    1
    71   147   138   am
    72   167   165   ar
    73   162   161    1
    74   162   163   ar
    75   161   158    1
    76    76    75    1
    77    76    77   ar
    78    79    77   ar
    79    40    39    2
    80    72    75    1
    81    72    73    1
    82   137   138    1
    83   137   140    1
    84   138   139    2
    85   165   163   ar
    86   140   141    1
    87    73    74    2
    88   107   105   ar
    89   107   109   ar
    90   158   159    1
    91   158   157    1
    92   105   104   ar
    93    39    38    1
    94   159   160    2
    95    87    86    1
    96   157   154   am
    97   109   108   ar
    98    82    83    1
    99   102   101    2
   100   104   103    1
   101   104   106   ar
   102   152   153    1
   103   141   143   ar
   104   141   142   ar
   105    38    41    1
   106    38    37    1
   107    41    43    1
   108    41    42    1
   109   103   100    1
   110   108   106   ar
   111   143   145   ar
   112    32    31    2
   113   154   153    1
   114   154   155    2
   115    86    83    1
   116    83    84    1
   117   101   100    1
   118   142   144   ar
   119   153   156    1
   120   100    99    1
   121    37    31   am
   122    31    30    1
   123   145   146   ar
   124   176   178   ar
   125   176   174   ar
   126   178   179   ar
   127    24    23    2
   128    28    26   am
   129    84    85    2
   130   144   146   ar
   131   173   174    1
   132   173   170    1
   133   171   170    1
   134   171   172    2
   135   169   170    1
   136    99    90   am
   137    30    29    1
   138    30    33    1
   139   174   175   ar
   140    35    33    1
   141   221   220    2
   142    27    26    2
   143    26    25    1
   144    23    22    1
   145   179   180    1
   146   179   177   ar
   147    12    11    1
   148    91    90    2
   149    90    89    1
   150    97    95   ar
   151    97    98   ar
   152    33    34    1
   153    95    93   ar
   154    16    15    2
   155    22    25    1
   156    22    21    1
   157   224   223    1
   158   175   177   ar
   159   220   219    1
   160   223   225    1
   161   223   222    1
   162   219   222    1
   163   219   218    1
   164    11    10   ar
   165    11     9   ar
   166    98    96   ar
   167   217   216    1
   168    34    36    1
   169    15    21   am
   170    15    14    1
   171    89    92    1
   172    89    88    1
   173    93    92    1
   174    93    94   ar
   175    10     8   ar
   176    19    17    1
   177     9     7   ar
   178   216   215    1
   179    96    94   ar
   180    14    17    1
   181    14    13    1
   182     8     6   ar
   183    17    18    1
   184   215   214    1
   185   195   194    1
   186   196   194    1
   187     7     6   ar
   188     4     3    2
   189     6     5    1
   190   208   207    1
   191    20    18    1
   192   214   211    1
   193   194   191    1
   194     3     2    1
   195   211   212    1
   196   211   210    1
   197     5     2    1
   198   201   198    1
   199   207   206    1
   200   207   209    1
   201   206   203    1
   202     2     1    1
   203   205   204    2
   204   191   190    1
   205   191   192    1
   206   212   213    2
   207   198   199    1
   208   198   197    1
   209   192   193    2
   210   204   203    1
   211   200   199    2
   212   203   202    1
