@<TRIPOS>MOLECULE
tmp/5k56A00.pdb
 166 157 0 0 0
SMALL
GASTEIGER

@<TRIPOS>ATOM
      1  N        -20.4130  -24.0830   22.5140 N.3    54  GLU54      -0.1245
      2  CA       -20.3140  -22.6740   22.1940 C.3    54  GLU54       0.1567
      3  C        -21.5240  -21.9000   22.7320 C.2    54  GLU54       0.2260
      4  O        -21.4420  -20.6920   22.9650 O.2    54  GLU54      -0.2867
      5  CB       -20.1910  -22.5010   20.6810 C.3    54  GLU54       0.0388
      6  CG       -20.0540  -21.0620   20.2170 C.3    54  GLU54       0.1160
      7  CD       -21.3990  -20.3920   19.9610 C.2    54  GLU54       0.3649
      8  OE1      -22.4280  -21.1020   19.8320 O.co2  54  GLU54      -0.2457
      9  OE2      -21.4260  -19.1430   19.8930 O.co2  54  GLU54      -0.2457
     10  N        -19.3210  -26.8790   18.6730 N.3    75  ASP75      -0.1239
     11  CA       -20.0310  -25.6980   18.2160 C.3    75  ASP75       0.1674
     12  C        -21.1820  -26.2330   17.3730 C.2    75  ASP75       0.2266
     13  O        -20.9640  -26.6950   16.2610 O.2    75  ASP75      -0.2867
     14  CB       -19.1080  -24.7840   17.4150 C.3    75  ASP75       0.1410
     15  CG       -19.7330  -23.4420   17.0930 C.2    75  ASP75       0.3668
     16  OD1      -20.9630  -23.3130   17.1730 O.co2  75  ASP75      -0.2456
     17  OD2      -18.9840  -22.5100   16.7330 O.co2  75  ASP75      -0.2456
     18  N        -23.6160  -25.0920   15.6900 N.3    77  LEU77      -0.1231
     19  CA       -24.0860  -24.3830   14.5140 C.3    77  LEU77       0.1693
     20  C        -23.2560  -23.1480   14.2650 C.2    77  LEU77       0.2592
     21  O        -23.4060  -22.1340   14.9450 O.2    77  LEU77      -0.2718
     22  CB       -25.5490  -23.9920   14.6760 C.3    77  LEU77       0.0284
     23  CG       -26.2160  -23.5700   13.3810 C.3    77  LEU77       0.0019
     24  CD1      -26.5740  -24.7940   12.5900 C.3    77  LEU77       0.0001
     25  CD2      -27.4450  -22.7280   13.6860 C.3    77  LEU77       0.0001
     26  N        -22.3920  -23.2400   13.2670 N.am   78  ASP78      -0.1960
     27  CA       -21.4210  -22.2000   12.9640 C.3    78  ASP78       0.1840
     28  C        -21.7990  -21.4970   11.6690 C.2    78  ASP78       0.2622
     29  O        -22.1450  -22.1530   10.7020 O.2    78  ASP78      -0.2715
     30  CB       -20.0300  -22.8200   12.8570 C.3    78  ASP78       0.1450
     31  CG       -19.0200  -21.8830   12.2500 C.2    78  ASP78       0.3671
     32  OD1      -18.5460  -20.9920   12.9800 O.co2  78  ASP78      -0.2456
     33  OD2      -18.6940  -22.0490   11.0520 O.co2  78  ASP78      -0.2456
     34  N        -21.7360  -20.1720   11.6450 N.am   79  GLY79      -0.1954
     35  CA       -22.1380  -19.4100   10.4740 C.3    79  GLY79       0.1869
     36  C        -23.5340  -18.8410   10.6430 C.2    79  GLY79       0.2309
     37  O        -24.0680  -18.2170    9.7290 O.2    79  GLY79      -0.2863
     38  N        -10.4270  -12.3600    5.9140 N.3   153  ASN153     -0.1240
     39  CA       -11.1710  -11.1180    5.7960 C.3   153  ASN153      0.1653
     40  C        -10.2430   -9.9100    5.6540 C.2   153  ASN153      0.2266
     41  O         -9.7750   -9.3790    6.6500 O.2   153  ASN153     -0.2867
     42  CB       -12.0540  -10.9410    7.0250 C.3   153  ASN153      0.1155
     43  CG       -13.0830   -9.8330    6.8630 C.2   153  ASN153      0.2627
     44  OD1      -12.9550   -8.9490    6.0140 O.2   153  ASN153     -0.2716
     45  ND2      -14.1080   -9.8770    7.6990 N.am  153  ASN153     -0.0877
     46  N        -10.1000   -6.2040    7.4520 N.3   156  TYR156     -0.1241
     47  CA        -9.4100   -5.9300    8.7040 C.3   156  TYR156      0.1605
     48  C         -7.9770   -5.4740    8.4570 C.2   156  TYR156      0.2264
     49  O         -7.1650   -5.4370    9.3750 O.2   156  TYR156     -0.2867
     50  CB        -9.4120   -7.1820    9.5960 C.3   156  TYR156      0.0534
     51  CG       -10.7880   -7.5880   10.0940 C.ar  156  TYR156     -0.0201
     52  CD1      -11.6410   -6.6600   10.6930 C.ar  156  TYR156     -0.0009
     53  CD2      -11.2370   -8.8990    9.9630 C.ar  156  TYR156     -0.0009
     54  CE1      -12.9030   -7.0290   11.1440 C.ar  156  TYR156      0.0417
     55  CE2      -12.4920   -9.2820   10.4140 C.ar  156  TYR156      0.0417
     56  CZ       -13.3250   -8.3430   10.9990 C.ar  156  TYR156      0.1957
     57  OH       -14.5730   -8.7240   11.4410 O.3   156  TYR156     -0.2866
     58  N        -13.1680  -16.1280    0.3880 N.3   185  TYR185     -0.1241
     59  CA       -13.5330  -15.9850    1.7890 C.3   185  TYR185      0.1605
     60  C        -15.0430  -15.9880    1.9250 C.2   185  TYR185      0.2264
     61  O        -15.7110  -14.9700    1.6520 O.2   185  TYR185     -0.2867
     62  CB       -12.9570  -14.6980    2.3760 C.3   185  TYR185      0.0534
     63  CG       -13.0060  -14.6430    3.8820 C.ar  185  TYR185     -0.0201
     64  CD1      -12.2000  -15.4580    4.6540 C.ar  185  TYR185     -0.0009
     65  CD2      -13.8550  -13.7740    4.5340 C.ar  185  TYR185     -0.0009
     66  CE1      -12.2390  -15.4020    6.0260 C.ar  185  TYR185      0.0417
     67  CE2      -13.8970  -13.7180    5.8930 C.ar  185  TYR185      0.0417
     68  CZ       -13.0860  -14.5270    6.6350 C.ar  185  TYR185      0.1957
     69  OH       -13.1320  -14.4370    8.0010 O.3   185  TYR185     -0.2866
     70  N        -16.6350  -16.5430    4.7500 N.3   187  GLY187     -0.1210
     71  CA       -16.9810  -15.9650    6.0330 C.3   187  GLY187      0.1956
     72  C        -17.6760  -16.9220    6.9770 C.2   187  GLY187      0.2613
     73  O        -18.1750  -16.5210    8.0100 O.2   187  GLY187     -0.2717
     74  N        -17.7370  -18.1920    6.6090 N.am  188  SER188     -0.1938
     75  CA       -18.1750  -19.2510    7.5190 C.3   188  SER188      0.2055
     76  C        -17.0070  -20.1990    7.6520 C.2   188  SER188      0.2642
     77  O        -16.4840  -20.6720    6.6470 O.2   188  SER188     -0.2714
     78  CB       -19.4070  -19.9740    6.9930 C.3   188  SER188      0.2130
     79  OG       -19.5010  -21.2860    7.5410 O.3   188  SER188     -0.2179
     80  N        -16.5780  -20.4620    8.8750 N.am  189  MET189     -0.1976
     81  CA       -15.3170  -21.1670    9.0780 C.3   189  MET189      0.1605
     82  C        -15.2970  -22.5650    8.4870 C.2   189  MET189      0.2287
     83  O        -14.3140  -22.9610    7.8490 O.2   189  MET189     -0.2864
     84  CB       -15.0080  -21.2610   10.5550 C.3   189  MET189      0.0413
     85  CG       -13.7250  -21.9630   10.8930 C.3   189  MET189      0.0598
     86  SD       -13.7650  -22.3340   12.6430 S.3   189  MET189     -0.1393
     87  CE       -12.1720  -23.1050   12.8330 C.3   189  MET189      0.0692
     88  N        -14.9000  -22.2310    4.8030 N.3   192  ASP192     -0.1239
     89  CA       -13.5790  -21.8260    4.3470 C.3   192  ASP192      0.1674
     90  C        -12.5340  -22.9390    4.6140 C.2   192  ASP192      0.2266
     91  O        -11.6880  -23.2090    3.7690 O.2   192  ASP192     -0.2867
     92  CB       -13.1820  -20.4960    4.9910 C.3   192  ASP192      0.1410
     93  CG       -13.9850  -19.3160    4.4290 C.2   192  ASP192      0.3668
     94  OD1      -13.9940  -19.1080    3.1880 O.co2 192  ASP192     -0.2456
     95  OD2      -14.6470  -18.6300    5.2340 O.co2 192  ASP192     -0.2456
     96  N         -5.9210  -20.6620    5.1040 N.3   203  PHE203     -0.1241
     97  CA        -6.9970  -19.9160    5.7600 C.3   203  PHE203      0.1605
     98  C         -6.4750  -19.2500    7.0240 C.2   203  PHE203      0.2264
     99  O         -5.8490  -19.9040    7.8580 O.2   203  PHE203     -0.2867
    100  CB        -8.1650  -20.8410    6.1080 C.3   203  PHE203      0.0534
    101  CG        -9.2130  -20.2180    7.0230 C.ar  203  PHE203     -0.0203
    102  CD1      -10.1960  -19.3800    6.5160 C.ar  203  PHE203     -0.0042
    103  CD2       -9.2360  -20.5180    8.3770 C.ar  203  PHE203     -0.0042
    104  CE1      -11.1670  -18.8350    7.3390 C.ar  203  PHE203     -0.0003
    105  CE2      -10.2050  -19.9720    9.2070 C.ar  203  PHE203     -0.0003
    106  CZ       -11.1770  -19.1290    8.6860 C.ar  203  PHE203     -0.0000
    107  N         -7.4660  -16.5780   10.3120 N.3   205  TYR205     -0.1241
    108  CA        -8.0980  -15.5870   11.1760 C.3   205  TYR205      0.1605
    109  C         -7.0690  -15.2360   12.2270 C.2   205  TYR205      0.2264
    110  O         -7.1030  -15.7640   13.3320 O.2   205  TYR205     -0.2867
    111  CB        -9.4020  -16.0930   11.8310 C.3   205  TYR205      0.0534
    112  CG       -10.3690  -14.9610   12.0980 C.ar  205  TYR205     -0.0201
    113  CD1       -9.9860  -13.8650   12.8540 C.ar  205  TYR205     -0.0009
    114  CD2      -11.6480  -14.9570   11.5370 C.ar  205  TYR205     -0.0009
    115  CE1      -10.8540  -12.7960   13.0680 C.ar  205  TYR205      0.0417
    116  CE2      -12.5240  -13.9190   11.7560 C.ar  205  TYR205      0.0417
    117  CZ       -12.1240  -12.8300   12.5260 C.ar  205  TYR205      0.1957
    118  OH       -12.9870  -11.7740   12.7590 O.3   205  TYR205     -0.2866
    119  N        -10.4410  -14.3840   16.8510 N.3   215  LYS215     -0.1231
    120  CA       -11.8690  -14.4790   17.1080 C.3   215  LYS215      0.1693
    121  C        -12.2990  -15.8950   17.4150 C.2   215  LYS215      0.2592
    122  O        -13.1540  -16.1150   18.2610 O.2   215  LYS215     -0.2718
    123  CB       -12.6620  -13.9680   15.9090 C.3   215  LYS215      0.0285
    124  CG       -14.1780  -14.0570   16.1260 C.3   215  LYS215      0.0035
    125  CD       -14.9200  -13.6670   14.8860 C.3   215  LYS215      0.0206
    126  CE       -16.4060  -13.7930   15.1020 C.3   215  LYS215      0.1093
    127  NZ       -17.0870  -13.5940   13.8110 N.3   215  LYS215     -0.1314
    128  N        -11.7210  -16.8560   16.7030 N.am  216  LEU216     -0.1966
    129  CA       -12.2180  -18.2280   16.7450 C.3   216  LEU216      0.1728
    130  C        -11.8450  -18.9350   18.0500 C.2   216  LEU216      0.2616
    131  O        -10.8020  -18.6630   18.6300 O.2   216  LEU216     -0.2715
    132  CB       -11.6840  -18.9950   15.5460 C.3   216  LEU216      0.0311
    133  CG       -11.9700  -18.3490   14.1910 C.3   216  LEU216      0.0022
    134  CD1      -11.4210  -19.2200   13.0690 C.3   216  LEU216      0.0001
    135  CD2      -13.4460  -18.1350   14.0000 C.3   216  LEU216      0.0001
    136  N        -12.6950  -19.8670   18.4750 N.am  217  ARG217     -0.1977
    137  CA       -12.6010  -20.4720   19.7930 C.3   217  ARG217      0.1597
    138  C        -11.7580  -21.7450   19.8330 C.2   217  ARG217      0.2287
    139  O        -11.9520  -22.6710   19.0410 O.2   217  ARG217     -0.2864
    140  CB       -13.9950  -20.7890   20.2990 C.3   217  ARG217      0.0334
    141  CG       -14.9720  -19.6620   20.1610 C.3   217  ARG217      0.0492
    142  CD       -14.7900  -18.6470   21.2510 C.3   217  ARG217      0.2205
    143  NE       -15.8320  -17.6290   21.1690 N.pl3 217  ARG217     -0.0865
    144  CZ       -16.1590  -16.8020   22.1590 C.cat 217  ARG217      0.5346
    145  NH1      -15.5270  -16.8730   23.3210 N.pl3 217  ARG217      0.1354
    146  NH2      -17.1230  -15.9070   21.9850 N.pl3 217  ARG217      0.1354
    147  N        -13.6940  -24.8340   17.9610 N.3   221  GLU221     -0.1245
    148  CA       -13.5520  -24.3290   16.6040 C.3   221  GLU221      0.1567
    149  C        -12.1520  -24.6140   16.1010 C.2   221  GLU221      0.2260
    150  O        -11.9790  -25.4120   15.1810 O.2   221  GLU221     -0.2867
    151  CB       -13.8570  -22.8320   16.5210 C.3   221  GLU221      0.0388
    152  CG       -15.3200  -22.4980   16.6450 C.3   221  GLU221      0.1160
    153  CD       -15.5980  -21.0050   16.6630 C.2   221  GLU221      0.3649
    154  OE1      -14.7000  -20.2240   17.0100 O.co2 221  GLU221     -0.2457
    155  OE2      -16.7290  -20.6090   16.3340 O.co2 221  GLU221     -0.2457
    156  N        -10.1760  -17.8340   23.0350 N.3   254  ARG254     -0.1245
    157  CA        -9.9700  -17.6490   21.6020 C.3   254  ARG254      0.1563
    158  C         -8.5020  -17.8290   21.2870 C.2   254  ARG254      0.2260
    159  O         -7.6570  -17.6060   22.1430 O.2   254  ARG254     -0.2867
    160  CB       -10.3980  -16.2620   21.1430 C.3   254  ARG254      0.0307
    161  CG       -11.7670  -15.8270   21.5660 C.3   254  ARG254      0.0489
    162  CD       -11.9350  -14.3490   21.2930 C.3   254  ARG254      0.2205
    163  NE       -13.1620  -13.8100   21.8700 N.pl3 254  ARG254     -0.0865
    164  CZ       -14.3350  -13.7760   21.2430 C.cat 254  ARG254      0.5346
    165  NH1      -14.4490  -14.2630   20.0140 N.pl3 254  ARG254      0.1354
    166  NH2      -15.4010  -13.2630   21.8530 N.pl3 254  ARG254      0.1354
@<TRIPOS>BOND
     1    58    59    1
     2    61    60    2
     3    59    60    1
     4    59    62    1
     5    62    63    1
     6    94    93   ar
     7    91    90    2
     8    63    65   ar
     9    63    64   ar
    10    89    90    1
    11    89    88    1
    12    89    92    1
    13    93    92    1
    14    93    95   ar
    15    65    67   ar
    16    64    66   ar
    17    70    71    1
    18    96    97    1
    19    40    39    1
    20    40    41    2
    21    97   100    1
    22    97    98    1
    23    39    38    1
    24    39    42    1
    25    67    68   ar
    26    44    43    2
    27    66    68   ar
    28    71    72    1
    29   100   101    1
    30   102   101   ar
    31   102   104   ar
    32    74    72   am
    33    74    75    1
    34    68    69    1
    35    77    76    2
    36    43    42    1
    37    43    45   am
    38    72    73    2
    39    78    75    1
    40    78    79    1
    41   101   103   ar
    42    98    99    2
    43   104   106   ar
    44    46    47    1
    45    75    76    1
    46    76    80   am
    47    83    82    2
    48   103   105   ar
    49    48    47    1
    50    48    49    2
    51    82    81    1
    52   106   105   ar
    53    47    50    1
    54    80    81    1
    55    81    84    1
    56    50    51    1
    57    37    36    2
    58    53    51   ar
    59    53    55   ar
    60    51    52   ar
    61   107   108    1
    62    55    56   ar
    63    35    36    1
    64    35    34    1
    65    84    85    1
    66    52    54   ar
    67    29    28    2
    68    85    86    1
    69    56    54   ar
    70    56    57    1
    71    33    31   ar
    72   108   111    1
    73   108   109    1
    74   114   116   ar
    75   114   112   ar
    76    34    28   am
    77    28    27    1
    78   116   117   ar
    79   111   112    1
    80   112   113   ar
    81   109   110    2
    82    31    30    1
    83    31    32   ar
    84   117   118    1
    85   117   115   ar
    86    24    23    1
    87    86    87    1
    88   113   115   ar
    89    30    27    1
    90    27    26    1
    91   134   133    1
    92    26    20   am
    93    23    25    1
    94    23    22    1
    95   127   126    1
    96   135   133    1
    97   133   132    1
    98    20    19    1
    99    20    21    2
   100    19    22    1
   101    19    18    1
   102   125   126    1
   103   125   124    1
   104   150   149    2
   105   132   129    1
   106   123   124    1
   107   123   120    1
   108   149   148    1
   109    13    12    2
   110   155   153   ar
   111   151   148    1
   112   151   152    1
   113   148   147    1
   114   152   153    1
   115   153   154   ar
   116   128   129    1
   117   128   121   am
   118    17    15   ar
   119   129   130    1
   120   119   120    1
   121    15    16   ar
   122    15    14    1
   123   120   121    1
   124    12    11    1
   125   121   122    2
   126    14    11    1
   127   130   136   am
   128   130   131    2
   129    11    10    1
   130   136   137    1
   131   139   138    2
   132   137   138    1
   133   137   140    1
   134     8     7   ar
   135     9     7   ar
   136     7     6    1
   137   165   164    1
   138   141   140    1
   139   141   142    1
   140     6     5    1
   141     5     2    1
   142   160   161    1
   143   160   157    1
   144   143   142    1
   145   143   144    2
   146   164   166    1
   147   164   163    2
   148   158   157    1
   149   158   159    2
   150   162   161    1
   151   162   163    1
   152   157   156    1
   153   146   144    1
   154   144   145    1
   155     2     1    1
   156     2     3    1
   157     3     4    2
