@<TRIPOS>MOLECULE
tmp/5k5cA00.pdb
 168 164 0 0 0
SMALL
GASTEIGER

@<TRIPOS>ATOM
      1  N        163.2370  130.1950   47.7160 N.3    74  TYR74      -0.1241
      2  CA       163.7460  129.5030   46.5290 C.3    74  TYR74       0.1605
      3  C        165.2540  129.2820   46.5620 C.2    74  TYR74       0.2264
      4  O        165.7160  128.1490   46.5890 O.2    74  TYR74      -0.2867
      5  CB       163.3580  130.2770   45.2720 C.3    74  TYR74       0.0534
      6  CG       163.7540  129.5850   43.9850 C.ar   74  TYR74      -0.0201
      7  CD1      163.2280  128.3450   43.6490 C.ar   74  TYR74      -0.0009
      8  CD2      164.6500  130.1770   43.1090 C.ar   74  TYR74      -0.0009
      9  CE1      163.5900  127.7070   42.4620 C.ar   74  TYR74       0.0417
     10  CE2      165.0150  129.5530   41.9250 C.ar   74  TYR74       0.0417
     11  CZ       164.4810  128.3200   41.6100 C.ar   74  TYR74       0.1957
     12  OH       164.8440  127.7060   40.4350 O.3    74  TYR74      -0.2866
     13  N        167.4920  120.8540   47.6930 N.3    83  TRP83      -0.1241
     14  CA       168.2240  120.3690   46.5170 C.3    83  TRP83       0.1605
     15  C        169.4480  119.5110   46.9190 C.2    83  TRP83       0.2264
     16  O        169.5620  118.3690   46.4760 O.2    83  TRP83      -0.2867
     17  CB       168.6470  121.5430   45.6190 C.3    83  TRP83       0.0550
     18  CG       169.3450  121.1260   44.3430 C.ar   83  TRP83       0.0003
     19  CD1      170.6910  120.9620   44.1530 C.ar   83  TRP83       0.0946
     20  CD2      168.7210  120.8230   43.0890 C.ar   83  TRP83       0.0152
     21  NE1      170.9410  120.5840   42.8420 N.ar   83  TRP83      -0.2442
     22  CE2      169.7470  120.4900   42.1740 C.ar   83  TRP83       0.0810
     23  CE3      167.3950  120.8140   42.6470 C.ar   83  TRP83       0.0012
     24  CZ2      169.4830  120.1360   40.8400 C.ar   83  TRP83       0.0191
     25  CZ3      167.1350  120.4650   41.3090 C.ar   83  TRP83       0.0001
     26  CH2      168.1730  120.1230   40.4360 C.ar   83  TRP83       0.0015
     27  N        169.6300  115.2170   46.6370 N.3    87  HIS87      -0.1241
     28  CA       170.6440  114.6640   45.7390 C.3    87  HIS87       0.1621
     29  C        171.8340  114.0870   46.5190 C.2    87  HIS87       0.2264
     30  O        172.9850  114.3900   46.2070 O.2    87  HIS87      -0.2867
     31  CB       171.1560  115.7220   44.7350 C.3    87  HIS87       0.0745
     32  CG       170.1350  116.1730   43.7290 C.ar   87  HIS87       0.0817
     33  ND1      169.2320  117.1840   43.9800 N.ar   87  HIS87      -0.2268
     34  CD2      169.9030  115.7690   42.4530 C.ar   87  HIS87       0.1154
     35  CE1      168.4800  117.3790   42.9050 C.ar   87  HIS87       0.1986
     36  NE2      168.8690  116.5300   41.9660 N.ar   87  HIS87      -0.2212
     37  N        156.7490  119.4770   41.7840 N.3   128  ASP128     -0.1225
     38  CA       158.1620  119.5190   42.1850 C.3   128  ASP128      0.1805
     39  C        158.4840  120.0350   43.5820 C.2   128  ASP128      0.2598
     40  O        157.6040  120.4370   44.3620 O.2   128  ASP128     -0.2718
     41  CB       158.9810  120.3340   41.1680 C.3   128  ASP128      0.1424
     42  CG       160.3290  119.6750   40.8550 C.2   128  ASP128      0.3668
     43  OD1      160.6390  118.6370   41.4850 O.co2 128  ASP128     -0.2456
     44  OD2      161.0800  120.1880   39.9950 O.co2 128  ASP128     -0.2456
     45  N        159.7830  120.0180   43.8770 N.am  129  TYR129     -0.1962
     46  CA       160.2790  120.0980   45.2500 C.3   129  TYR129      0.1771
     47  C        160.0550  121.4440   45.9420 C.2   129  TYR129      0.2619
     48  O        160.0960  121.5130   47.1700 O.2   129  TYR129     -0.2715
     49  CB       161.7800  119.7580   45.2720 C.3   129  TYR129      0.0574
     50  CG       162.6620  120.7770   44.5790 C.ar  129  TYR129     -0.0198
     51  CD1      162.7160  120.8580   43.1900 C.ar  129  TYR129     -0.0009
     52  CD2      163.4700  121.6430   45.3230 C.ar  129  TYR129     -0.0009
     53  CE1      163.5350  121.7850   42.5520 C.ar  129  TYR129      0.0417
     54  CE2      164.2920  122.5750   44.6860 C.ar  129  TYR129      0.0417
     55  CZ       164.3130  122.6420   43.3110 C.ar  129  TYR129      0.1957
     56  OH       165.1190  123.5640   42.6820 O.3   129  TYR129     -0.2866
     57  N        159.8160  122.5030   45.1720 N.am  130  GLN130     -0.1977
     58  CA       159.5980  123.8210   45.7790 C.3   130  GLN130      0.1601
     59  C        158.2260  123.9260   46.4400 C.2   130  GLN130      0.2287
     60  O        157.9870  124.8370   47.2270 O.2   130  GLN130     -0.2864
     61  CB       159.7270  124.9380   44.7380 C.3   130  GLN130      0.0394
     62  CG       160.9870  124.8960   43.8930 C.3   130  GLN130      0.0908
     63  CD       160.7770  124.1700   42.5750 C.2   130  GLN130      0.2608
     64  OE1      159.8990  123.3170   42.4550 O.2   130  GLN130     -0.2717
     65  NE2      161.5730  124.5240   41.5740 N.am  130  GLN130     -0.0878
     66  N        160.1470  115.9240   40.5530 N.3   152  HIS152     -0.1226
     67  CA       161.0290  115.8140   39.3820 C.3   152  HIS152      0.1752
     68  C        162.4860  115.4980   39.7370 C.2   152  HIS152      0.2595
     69  O        163.2690  115.1150   38.8630 O.2   152  HIS152     -0.2718
     70  CB       160.9910  117.1030   38.5410 C.3   152  HIS152      0.0759
     71  CG       159.6840  117.3370   37.8450 C.ar  152  HIS152      0.0818
     72  ND1      159.4580  116.9860   36.5340 N.ar  152  HIS152     -0.2268
     73  CD2      158.5240  117.8800   38.2950 C.ar  152  HIS152      0.1154
     74  CE1      158.2210  117.3130   36.1960 C.ar  152  HIS152      0.1986
     75  NE2      157.6340  117.8550   37.2510 N.ar  152  HIS152     -0.2212
     76  N        162.8430  115.6650   41.0100 N.am  153  ILE153     -0.1980
     77  CA       164.1990  115.3740   41.4620 C.3   153  ILE153      0.1595
     78  C        164.1480  114.0750   42.2770 C.2   153  ILE153      0.2287
     79  O        163.0570  113.5900   42.5640 O.2   153  ILE153     -0.2864
     80  CB       164.7910  116.5580   42.2790 C.3   153  ILE153      0.0276
     81  CG1      164.0440  116.7850   43.5970 C.3   153  ILE153      0.0022
     82  CG2      164.8100  117.8260   41.4410 C.3   153  ILE153      0.0022
     83  CD1      164.7790  117.7530   44.5160 C.3   153  ILE153      0.0001
     84  N        159.9140  109.7080   39.4490 N.3   183  HIS183     -0.1241
     85  CA       160.3690  109.0740   38.2070 C.3   183  HIS183      0.1621
     86  C        160.5240  107.5670   38.3590 C.2   183  HIS183      0.2264
     87  O        160.2020  106.8090   37.4430 O.2   183  HIS183     -0.2867
     88  CB       161.7170  109.6250   37.7510 C.3   183  HIS183      0.0745
     89  CG       161.7010  111.0690   37.3780 C.ar  183  HIS183      0.0817
     90  ND1      161.0770  111.5400   36.2400 N.ar  183  HIS183     -0.2268
     91  CD2      162.2730  112.1440   37.9700 C.ar  183  HIS183      0.1154
     92  CE1      161.2470  112.8470   36.1610 C.ar  183  HIS183      0.1986
     93  NE2      161.9810  113.2380   37.1870 N.ar  183  HIS183     -0.2212
     94  N        159.6170  110.5590   33.4390 N.3   231  ILE231     -0.1245
     95  CA       159.3710  111.6120   32.4550 C.3   231  ILE231      0.1561
     96  C        160.1790  111.3730   31.1710 C.2   231  ILE231      0.2260
     97  O        161.1770  110.6470   31.1590 O.2   231  ILE231     -0.2867
     98  CB       159.7020  113.0160   33.0250 C.3   231  ILE231      0.0252
     99  CG1      158.8910  114.1050   32.3080 C.3   231  ILE231      0.0019
    100  CG2      161.2130  113.3090   32.9670 C.3   231  ILE231      0.0019
    101  CD1      158.7870  115.4100   33.1140 C.3   231  ILE231      0.0001
    102  N        173.2430  122.4000   32.8820 N.3   270  ARG270     -0.1245
    103  CA       173.3180  123.5390   33.7890 C.3   270  ARG270      0.1563
    104  C        174.4840  123.2840   34.7360 C.2   270  ARG270      0.2260
    105  O        174.7750  122.1340   35.0910 O.2   270  ARG270     -0.2867
    106  CB       172.0070  123.7390   34.5580 C.3   270  ARG270      0.0307
    107  CG       170.8310  124.0330   33.6430 C.3   270  ARG270      0.0489
    108  CD       169.5870  124.5110   34.3870 C.3   270  ARG270      0.2205
    109  NE       168.4190  124.4440   33.5100 N.pl3 270  ARG270     -0.0865
    110  CZ       168.1140  125.3500   32.5830 C.cat 270  ARG270      0.5346
    111  NH1      167.0380  125.1860   31.8250 N.pl3 270  ARG270      0.1354
    112  NH2      168.8780  126.4220   32.4150 N.pl3 270  ARG270      0.1354
    113  N        175.9370  117.3180   38.4370 N.3   275  LYS275     -0.1245
    114  CA       176.0390  116.8910   37.0310 C.3   275  LYS275      0.1561
    115  C        177.3150  116.1380   36.6670 C.2   275  LYS275      0.2260
    116  O        177.4180  115.6120   35.5600 O.2   275  LYS275     -0.2867
    117  CB       175.8900  118.1040   36.0990 C.3   275  LYS275      0.0271
    118  CG       174.5430  118.8100   36.2430 C.3   275  LYS275      0.0035
    119  CD       173.3810  117.9010   35.8350 C.3   275  LYS275      0.0206
    120  CE       172.0290  118.5670   36.0920 C.3   275  LYS275      0.1093
    121  NZ       170.8800  117.8200   35.4900 N.3   275  LYS275     -0.1314
    122  N        172.1880  129.5780   39.2890 N.3   308  ARG308     -0.1245
    123  CA       172.1780  129.8250   40.7340 C.3   308  ARG308      0.1563
    124  C        173.4400  130.5190   41.2380 C.2   308  ARG308      0.2260
    125  O        174.0350  130.1100   42.2390 O.2   308  ARG308     -0.2867
    126  CB       171.9590  128.4980   41.4790 C.3   308  ARG308      0.0307
    127  CG       170.6920  127.7900   41.0330 C.3   308  ARG308      0.0489
    128  CD       170.4740  126.4440   41.6960 C.3   308  ARG308      0.2205
    129  NE       169.2370  125.8360   41.2080 N.pl3 308  ARG308     -0.0865
    130  CZ       168.8020  124.6260   41.5440 C.cat 308  ARG308      0.5346
    131  NH1      169.5040  123.8720   42.3790 N.pl3 308  ARG308      0.1354
    132  NH2      167.6600  124.1720   41.0470 N.pl3 308  ARG308      0.1354
    133  N        170.8590  112.3380   39.5050 N.3   369  ASP369     -0.1225
    134  CA       169.9410  113.1390   38.6890 C.3   369  ASP369      0.1805
    135  C        168.5670  112.4760   38.6470 C.2   369  ASP369      0.2598
    136  O        168.4770  111.2580   38.4850 O.2   369  ASP369     -0.2718
    137  CB       170.4880  113.3060   37.2560 C.3   369  ASP369      0.1424
    138  CG       170.1050  114.6400   36.6280 C.2   369  ASP369      0.3668
    139  OD1      169.2320  115.3550   37.1730 O.co2 369  ASP369     -0.2456
    140  OD2      170.7000  114.9850   35.5860 O.co2 369  ASP369     -0.2456
    141  N        167.5040  113.2690   38.7730 N.am  370  GLY370     -0.1942
    142  CA       166.1440  112.7350   38.7630 C.3   370  GLY370      0.2014
    143  C        165.8710  111.9050   37.5160 C.2   370  GLY370      0.2639
    144  O        165.4910  110.7330   37.5870 O.2   370  GLY370     -0.2714
    145  N        166.0660  112.5100   36.3550 N.am  371  MET371     -0.1963
    146  CA       165.9150  111.7550   35.1190 C.3   371  MET371      0.1736
    147  C        167.1010  112.0220   34.2110 C.2   371  MET371      0.2616
    148  O        167.8780  111.1140   33.9210 O.2   371  MET371     -0.2715
    149  CB       164.6060  112.1130   34.4070 C.3   371  MET371      0.0427
    150  CG       164.4630  111.4350   33.0030 C.3   371  MET371      0.0599
    151  SD       164.4970  109.6150   33.0880 S.3   371  MET371     -0.1393
    152  CE       163.1050  109.3010   34.1590 C.3   371  MET371      0.0692
    153  N        167.2200  113.2920   33.8160 N.am  372  ASN372     -0.1958
    154  CA       168.1510  113.8230   32.8180 C.3   372  ASN372      0.1819
    155  C        167.6120  113.6180   31.3970 C.2   372  ASN372      0.2621
    156  O        167.7090  112.5380   30.8050 O.2   372  ASN372     -0.2715
    157  CB       169.5600  113.2390   32.9130 C.3   372  ASN372      0.1195
    158  CG       170.5620  114.0440   32.0930 C.2   372  ASN372      0.2630
    159  OD1      170.4930  114.0790   30.8620 O.2   372  ASN372     -0.2716
    160  ND2      171.4770  114.7170   32.7740 N.am  372  ASN372     -0.0877
    161  N        167.0440  114.6870   30.8630 N.am  373  LEU373     -0.1977
    162  CA       166.4300  114.6420   29.5440 C.3   373  LEU373      0.1596
    163  C        167.4370  114.9160   28.4250 C.2   373  LEU373      0.2287
    164  O        167.1760  114.6130   27.2640 O.2   373  LEU373     -0.2864
    165  CB       165.2700  115.6360   29.4880 C.3   373  LEU373      0.0297
    166  CG       164.1080  115.2240   30.4010 C.3   373  LEU373      0.0022
    167  CD1      162.9550  116.2010   30.2960 C.3   373  LEU373      0.0001
    168  CD2      163.6540  113.7900   30.0510 C.3   373  LEU373      0.0001
@<TRIPOS>BOND
     1   164   163    2
     2   163   162    1
     3   165   162    1
     4   165   166    1
     5   162   161    1
     6   168   166    1
     7   167   166    1
     8   156   155    2
     9   159   158    2
    10   161   155   am
    11    97    96    2
    12    96    95    1
    13   155   154    1
    14   111   110    1
    15   158   160   am
    16   158   157    1
    17    99    98    1
    18    99   101    1
    19   112   110    1
    20    95    98    1
    21    95    94    1
    22   110   109    2
    23   154   157    1
    24   154   153    1
    25   102   103    1
    26   100    98    1
    27   150   151    1
    28   150   149    1
    29   151   152    1
    30   109   108    1
    31   107   108    1
    32   107   106    1
    33   103   106    1
    34   103   104    1
    35   153   147   am
    36   148   147    2
    37   147   146    1
    38   149   146    1
    39   104   105    2
    40   146   145    1
    41   121   120    1
    42   116   115    2
    43   140   138   ar
    44   119   120    1
    45   119   118    1
    46   117   118    1
    47   117   114    1
    48    92    90   ar
    49    92    93   ar
    50    74    72   ar
    51    74    75   ar
    52    90    89   ar
    53   145   143   am
    54    72    71   ar
    55   138   139   ar
    56   138   137    1
    57   115   114    1
    58   114   113    1
    59    93    91   ar
    60    75    73   ar
    61   137   134    1
    62    89    88    1
    63    89    91   ar
    64    87    86    2
    65   143   144    2
    66   143   142    1
    67    88    85    1
    68    71    73   ar
    69    71    70    1
    70    85    86    1
    71    85    84    1
    72   136   135    2
    73    70    67    1
    74   135   134    1
    75   135   141   am
    76   134   133    1
    77   142   141    1
    78    69    68    2
    79   122   123    1
    80    67    68    1
    81    67    66    1
    82    68    76   am
    83    44    42   ar
    84    12    11    1
    85    26    24   ar
    86    26    25   ar
    87   123   124    1
    88   123   126    1
    89    24    22   ar
    90    42    41    1
    91    42    43   ar
    92    76    77    1
    93   127   126    1
    94   127   128    1
    95   132   130    1
    96    41    38    1
    97   129   130    2
    98   129   128    1
    99   124   125    2
   100    25    23   ar
   101    82    80    1
   102    77    78    1
   103    77    80    1
   104   130   131    1
   105    65    63   am
   106    11    10   ar
   107    11     9   ar
   108    37    38    1
   109    10     8   ar
   110    36    34   ar
   111    36    35   ar
   112    22    21   ar
   113    22    20   ar
   114    38    39    1
   115    78    79    2
   116    80    81    1
   117    34    32   ar
   118    64    63    2
   119     9     7   ar
   120    53    51   ar
   121    53    55   ar
   122    63    62    1
   123    23    20   ar
   124    56    55    1
   125    21    19   ar
   126    35    33   ar
   127    20    18   ar
   128     8     6   ar
   129    51    50   ar
   130    55    54   ar
   131    39    45   am
   132    39    40    2
   133    81    83    1
   134     7     6   ar
   135    32    33   ar
   136    32    31    1
   137    45    46    1
   138    62    61    1
   139     6     5    1
   140    19    18   ar
   141    18    17    1
   142    50    49    1
   143    50    52   ar
   144    54    52   ar
   145    31    28    1
   146    61    58    1
   147    57    58    1
   148    57    47   am
   149    46    49    1
   150    46    47    1
   151     5     2    1
   152    17    14    1
   153    28    29    1
   154    28    27    1
   155    58    59    1
   156    47    48    2
   157    30    29    2
   158    59    60    2
   159    16    15    2
   160    14    15    1
   161    14    13    1
   162     2     3    1
   163     2     1    1
   164     3     4    2
