@<TRIPOS>MOLECULE
tmp/5k5dB00.pdb
 126 119 0 0 0
SMALL
GASTEIGER

@<TRIPOS>ATOM
      1  N        -16.8300  -27.0980   59.6930 N.3    21  PHE21      -0.1227
      2  CA       -15.6520  -26.3720   59.2360 C.3    21  PHE21       0.1736
      3  C        -14.4780  -27.3260   59.1410 C.2    21  PHE21       0.2595
      4  O        -13.6070  -27.1800   58.2820 O.2    21  PHE21      -0.2718
      5  CB       -15.3190  -25.2250   60.1870 C.3    21  PHE21       0.0547
      6  CG       -16.4310  -24.2310   60.3450 C.ar   21  PHE21      -0.0202
      7  CD1      -16.5560  -23.4840   61.5080 C.ar   21  PHE21      -0.0042
      8  CD2      -17.3600  -24.0450   59.3310 C.ar   21  PHE21      -0.0042
      9  CE1      -17.5850  -22.5700   61.6550 C.ar   21  PHE21      -0.0003
     10  CE2      -18.3910  -23.1320   59.4720 C.ar   21  PHE21      -0.0003
     11  CZ       -18.5050  -22.3950   60.6350 C.ar   21  PHE21      -0.0000
     12  N        -14.4740  -28.3130   60.0280 N.am   22  LYS22      -0.1980
     13  CA       -13.4040  -29.3000   60.0890 C.3    22  LYS22       0.1596
     14  C        -13.3060  -30.1050   58.8010 C.2    22  LYS22       0.2287
     15  O        -12.2330  -30.5870   58.4450 O.2    22  LYS22      -0.2864
     16  CB       -13.6240  -30.2430   61.2690 C.3    22  LYS22       0.0298
     17  CG       -12.5950  -31.3540   61.3830 C.3    22  LYS22       0.0038
     18  CD       -12.8740  -32.2140   62.6060 C.3    22  LYS22       0.0206
     19  CE       -11.7490  -33.2010   62.8600 C.3    22  LYS22       0.1093
     20  NZ       -11.9880  -33.9910   64.1000 N.3    22  LYS22      -0.1314
     21  N        -12.7520  -28.2560   53.7930 N.3    24  VAL24      -0.1245
     22  CA       -11.7000  -28.3800   52.7950 C.3    24  VAL24       0.1561
     23  C        -11.4130  -29.8370   52.4720 C.2    24  VAL24       0.2260
     24  O        -11.1720  -30.6420   53.3750 O.2    24  VAL24      -0.2867
     25  CB       -10.4030  -27.6760   53.2380 C.3    24  VAL24       0.0252
     26  CG1       -9.2850  -27.9670   52.2560 C.3    24  VAL24       0.0019
     27  CG2      -10.6350  -26.1700   53.3670 C.3    24  VAL24       0.0019
     28  N         -6.1460  -33.3490   51.2980 N.3    27  ASN27      -0.1240
     29  CA        -5.0670  -33.1690   50.3400 C.3    27  ASN27       0.1653
     30  C         -3.7350  -33.6730   50.8870 C.2    27  ASN27       0.2266
     31  O         -3.6950  -34.3330   51.9280 O.2    27  ASN27      -0.2867
     32  CB        -4.9630  -31.6990   49.9330 C.3    27  ASN27       0.1155
     33  CG        -4.9810  -30.7670   51.1230 C.2    27  ASN27       0.2627
     34  OD1       -3.9480  -30.5170   51.7390 O.2    27  ASN27      -0.2716
     35  ND2       -6.1600  -30.2530   51.4580 N.am   27  ASN27      -0.0877
     36  N         -1.0260  -31.8210   51.8090 N.3    29  SER29      -0.1217
     37  CA        -0.2650  -30.6790   52.3010 C.3    29  SER29       0.1889
     38  C          0.1460  -30.8170   53.7630 C.2    29  SER29       0.2288
     39  O          0.7880  -29.9200   54.3120 O.2    29  SER29      -0.2866
     40  CB        -1.0550  -29.3850   52.1050 C.3    29  SER29       0.2089
     41  OG        -2.1730  -29.3290   52.9750 O.3    29  SER29      -0.2183
     42  N          2.9370  -28.2430   55.8590 N.3    33  LEU33      -0.1245
     43  CA         2.8160  -27.3740   57.0300 C.3    33  LEU33       0.1561
     44  C          3.1040  -28.1190   58.3320 C.2    33  LEU33       0.2260
     45  O          2.7510  -27.6610   59.4190 O.2    33  LEU33      -0.2867
     46  CB         1.4640  -26.6450   57.0860 C.3    33  LEU33       0.0270
     47  CG         0.1200  -27.3420   56.8470 C.3    33  LEU33       0.0019
     48  CD1       -0.3450  -27.1720   55.4040 C.3    33  LEU33       0.0001
     49  CD2        0.1560  -28.8040   57.2490 C.3    33  LEU33       0.0001
     50  N        -12.2070  -21.7810   62.7380 N.3    55  ILE55      -0.1231
     51  CA       -12.8260  -21.6400   61.4290 C.3    55  ILE55       0.1692
     52  C        -11.9250  -22.2480   60.3740 C.2    55  ILE55       0.2592
     53  O        -12.3620  -23.0440   59.5440 O.2    55  ILE55      -0.2718
     54  CB       -13.0890  -20.1600   61.0910 C.3    55  ILE55       0.0266
     55  CG1      -14.1760  -19.6000   62.0070 C.3    55  ILE55       0.0019
     56  CG2      -13.4880  -20.0010   59.6300 C.3    55  ILE55       0.0020
     57  CD1      -14.4710  -18.1390   61.7630 C.3    55  ILE55       0.0001
     58  N        -10.6570  -21.8650   60.4300 N.am   56  ASP56      -0.1960
     59  CA        -9.6570  -22.3440   59.4940 C.3    56  ASP56       0.1840
     60  C         -8.3710  -22.7280   60.2210 C.2    56  ASP56       0.2623
     61  O         -7.8600  -21.9630   61.0380 O.2    56  ASP56      -0.2715
     62  CB        -9.3380  -21.2590   58.4730 C.3    56  ASP56       0.1450
     63  CG        -8.4460  -21.7560   57.3710 C.2    56  ASP56       0.3671
     64  OD1       -8.8000  -22.7800   56.7510 O.co2  56  ASP56      -0.2456
     65  OD2       -7.3900  -21.1340   57.1290 O.co2  56  ASP56      -0.2456
     66  N         -7.8510  -23.9130   59.9200 N.am   57  GLY57      -0.1940
     67  CA        -6.5650  -24.3280   60.4500 C.3    57  GLY57       0.2014
     68  C         -6.6230  -25.6190   61.2380 C.2    57  GLY57       0.2639
     69  O         -5.8840  -25.7930   62.2060 O.2    57  GLY57      -0.2714
     70  N         -7.4900  -26.5330   60.8170 N.am   58  TYR58      -0.1959
     71  CA        -7.7120  -27.7660   61.5660 C.3    58  TYR58       0.1771
     72  C         -6.5320  -28.7320   61.5180 C.2    58  TYR58       0.2620
     73  O         -6.1720  -29.3350   62.5250 O.2    58  TYR58      -0.2715
     74  CB        -9.0100  -28.4450   61.1200 C.3    58  TYR58       0.0574
     75  CG       -10.2290  -27.7850   61.7190 C.ar   58  TYR58      -0.0198
     76  CD1      -10.8200  -26.6810   61.1130 C.ar   58  TYR58      -0.0009
     77  CD2      -10.7690  -28.2460   62.9090 C.ar   58  TYR58      -0.0009
     78  CE1      -11.9230  -26.0650   61.6720 C.ar   58  TYR58       0.0417
     79  CE2      -11.8710  -27.6420   63.4730 C.ar   58  TYR58       0.0417
     80  CZ       -12.4450  -26.5510   62.8530 C.ar   58  TYR58       0.1957
     81  OH       -13.5460  -25.9530   63.4210 O.3    58  TYR58      -0.2866
     82  N         -5.9270  -28.8800   60.3510 N.am   59  THR59      -0.1937
     83  CA        -4.7450  -29.7190   60.2500 C.3    59  THR59       0.2028
     84  C         -3.6080  -29.1100   61.0740 C.2    59  THR59       0.2642
     85  O         -3.0370  -29.7740   61.9400 O.2    59  THR59      -0.2714
     86  CB        -4.3270  -29.9370   58.7840 C.3    59  THR59       0.1808
     87  OG1       -5.3700  -30.6430   58.0970 O.3    59  THR59      -0.2208
     88  CG2       -3.0430  -30.7460   58.7030 C.3    59  THR59       0.0379
     89  N         -3.3040  -27.8410   60.8170 N.am   60  ARG60      -0.1977
     90  CA        -2.2780  -27.1240   61.5660 C.3    60  ARG60       0.1597
     91  C         -2.4440  -27.2640   63.0780 C.2    60  ARG60       0.2287
     92  O         -1.4750  -27.5110   63.7920 O.2    60  ARG60      -0.2864
     93  CB        -2.2610  -25.6470   61.1740 C.3    60  ARG60       0.0334
     94  CG        -1.7690  -25.3920   59.7630 C.3    60  ARG60       0.0492
     95  CD        -1.8770  -23.9230   59.3950 C.3    60  ARG60       0.2205
     96  NE        -3.2580  -23.5190   59.1590 N.pl3  60  ARG60      -0.0865
     97  CZ        -3.6320  -22.2880   58.8280 C.cat  60  ARG60       0.5346
     98  NH1       -2.7240  -21.3290   58.6980 N.pl3  60  ARG60       0.1354
     99  NH2       -4.9140  -22.0120   58.6270 N.pl3  60  ARG60       0.1354
    100  N        -13.1180  -19.2450   55.1750 N.3    91  ILE91      -0.1245
    101  CA       -12.5930  -20.5310   54.7400 C.3    91  ILE91       0.1561
    102  C        -12.2480  -20.5070   53.2570 C.2    91  ILE91       0.2260
    103  O        -11.2780  -21.1320   52.8280 O.2    91  ILE91      -0.2867
    104  CB       -13.5820  -21.6800   55.0110 C.3    91  ILE91       0.0252
    105  CG1      -13.7220  -21.9330   56.5160 C.3    91  ILE91       0.0019
    106  CG2      -13.1180  -22.9550   54.3120 C.3    91  ILE91       0.0019
    107  CD1      -14.8670  -22.8690   56.8720 C.3    91  ILE91       0.0001
    108  N         -8.3380  -20.5440   51.4910 N.3    95  ASN95      -0.1240
    109  CA        -8.1290  -21.8440   50.8610 C.3    95  ASN95       0.1653
    110  C         -8.2580  -21.8750   49.3340 C.2    95  ASN95       0.2266
    111  O         -7.5570  -22.6350   48.6690 O.2    95  ASN95      -0.2867
    112  CB        -9.0260  -22.9020   51.5020 C.3    95  ASN95       0.1155
    113  CG        -8.6260  -23.2120   52.9270 C.2    95  ASN95       0.2627
    114  OD1       -7.7360  -24.0290   53.1690 O.2    95  ASN95      -0.2716
    115  ND2       -9.2790  -22.5560   53.8830 N.am   95  ASN95      -0.0877
    116  N         -5.0580  -21.2820   47.6140 N.3    98  ARG98      -0.1245
    117  CA        -3.9960  -22.1700   48.0850 C.3    98  ARG98       0.1563
    118  C         -3.4480  -23.0950   46.9910 C.2    98  ARG98       0.2260
    119  O         -4.2050  -23.6970   46.2320 O.2    98  ARG98      -0.2867
    120  CB        -4.4820  -22.9810   49.2890 C.3    98  ARG98       0.0307
    121  CG        -3.3720  -23.5060   50.1780 C.3    98  ARG98       0.0489
    122  CD        -3.7960  -23.5180   51.6380 C.3    98  ARG98       0.2205
    123  NE        -4.8820  -24.4570   51.8830 N.pl3  98  ARG98      -0.0865
    124  CZ        -4.7150  -25.6740   52.3880 C.cat  98  ARG98       0.5346
    125  NH1       -3.5010  -26.0980   52.7050 N.pl3  98  ARG98       0.1354
    126  NH2       -5.7610  -26.4680   52.5760 N.pl3  98  ARG98       0.1354
@<TRIPOS>BOND
     1   119   118    2
     2   118   117    1
     3   116   117    1
     4   117   120    1
     5   111   110    2
     6   120   121    1
     7   110   109    1
     8    32    29    1
     9    32    33    1
    10   121   122    1
    11    29    30    1
    12    29    28    1
    13   109   108    1
    14   109   112    1
    15    30    31    2
    16    33    35   am
    17    33    34    2
    18   112   113    1
    19   122   123    1
    20    36    37    1
    21   123   124    2
    22    40    37    1
    23    40    41    1
    24    26    25    1
    25    37    38    1
    26   124   126    1
    27   124   125    1
    28    23    22    1
    29    23    24    2
    30    22    25    1
    31    22    21    1
    32   103   102    2
    33   113   114    2
    34   113   115   am
    35    25    27    1
    36   102   101    1
    37    38    39    2
    38   106   104    1
    39   101   104    1
    40   101   100    1
    41   104   105    1
    42    48    47    1
    43    42    43    1
    44   105   107    1
    45    64    63   ar
    46    47    46    1
    47    47    49    1
    48    43    46    1
    49    43    44    1
    50    65    63   ar
    51    63    62    1
    52    87    86    1
    53     4     3    2
    54    44    45    2
    55    15    14    2
    56    62    59    1
    57    99    97    1
    58    98    97    1
    59    88    86    1
    60    86    83    1
    61    14    13    1
    62    97    96    2
    63     3     2    1
    64     3    12   am
    65    96    95    1
    66     2     1    1
    67     2     5    1
    68     8    10   ar
    69     8     6   ar
    70    95    94    1
    71    10    11   ar
    72    59    60    1
    73    59    58    1
    74    53    52    2
    75    56    54    1
    76    94    93    1
    77    66    60   am
    78    66    67    1
    79    12    13    1
    80    13    16    1
    81     5     6    1
    82    60    61    2
    83    83    82    1
    84    83    84    1
    85     6     7   ar
    86    82    72   am
    87    52    58   am
    88    52    51    1
    89    67    68    1
    90    11     9   ar
    91    89    84   am
    92    89    90    1
    93    70    68   am
    94    70    71    1
    95    84    85    2
    96    54    51    1
    97    54    55    1
    98    76    78   ar
    99    76    75   ar
   100    74    71    1
   101    74    75    1
   102    93    90    1
   103    68    69    2
   104    16    17    1
   105    17    18    1
   106    51    50    1
   107     7     9   ar
   108    72    71    1
   109    72    73    2
   110    90    91    1
   111    78    80   ar
   112    75    77   ar
   113    57    55    1
   114    18    19    1
   115    80    81    1
   116    80    79   ar
   117    19    20    1
   118    77    79   ar
   119    91    92    2
