@<TRIPOS>MOLECULE
tmp/5k5eB08.pdb
 224 222 0 0 0
SMALL
GASTEIGER

@<TRIPOS>ATOM
      1  N        -15.0650  -21.4040   35.3100 N.3    67  ASP67      -0.1239
      2  CA       -13.7580  -21.6080   35.9250 C.3    67  ASP67       0.1674
      3  C        -12.7220  -21.8940   34.8490 C.2    67  ASP67       0.2266
      4  O        -12.8760  -22.8330   34.0620 O.2    67  ASP67      -0.2867
      5  CB       -13.8200  -22.7650   36.9190 C.3    67  ASP67       0.1410
      6  CG       -12.4310  -23.2850   37.3160 C.2    67  ASP67       0.3668
      7  OD1      -11.4790  -22.4730   37.4970 O.co2  67  ASP67      -0.2456
      8  OD2      -12.2940  -24.5270   37.4320 O.co2  67  ASP67      -0.2456
      9  N        -11.2380  -29.7560   35.7750 N.3    76  SER76      -0.1217
     10  CA       -12.0130  -28.5340   35.9430 C.3    76  SER76       0.1889
     11  C        -12.9940  -28.3020   34.7990 C.2    76  SER76       0.2288
     12  O        -14.0990  -27.8000   35.0310 O.2    76  SER76      -0.2866
     13  CB       -11.0700  -27.3290   36.0860 C.3    76  SER76       0.2089
     14  OG       -10.3650  -27.0790   34.8810 O.3    76  SER76      -0.2183
     15  N        -16.7970  -29.7590   34.5380 N.3    79  TRP79      -0.1241
     16  CA       -17.9170  -29.1050   35.1880 C.3    79  TRP79       0.1605
     17  C        -18.3370  -27.8470   34.4680 C.2    79  TRP79       0.2264
     18  O        -19.3700  -27.2710   34.8200 O.2    79  TRP79      -0.2867
     19  CB       -17.5930  -28.7870   36.6460 C.3    79  TRP79       0.0550
     20  CG       -17.1650  -30.0000   37.4240 C.ar   79  TRP79       0.0003
     21  CD1      -15.9160  -30.2620   37.8970 C.ar   79  TRP79       0.0946
     22  CD2      -17.9770  -31.1280   37.7900 C.ar   79  TRP79       0.0152
     23  NE1      -15.8970  -31.4670   38.5550 N.ar   79  TRP79      -0.2442
     24  CE2      -17.1460  -32.0270   38.4980 C.ar   79  TRP79       0.0810
     25  CE3      -19.3210  -31.4660   37.5900 C.ar   79  TRP79       0.0012
     26  CZ2      -17.6150  -33.2450   39.0090 C.ar   79  TRP79       0.0191
     27  CZ3      -19.7890  -32.6750   38.1050 C.ar   79  TRP79       0.0001
     28  CH2      -18.9370  -33.5450   38.8070 C.ar   79  TRP79       0.0015
     29  N        -25.6130  -29.2250   41.0120 N.3   112  GLY112     -0.1210
     30  CA       -24.9460  -28.3390   41.9240 C.3   112  GLY112      0.1956
     31  C        -23.9370  -27.4550   41.2460 C.2   112  GLY112      0.2612
     32  O        -23.7980  -27.5030   40.0620 O.2   112  GLY112     -0.2717
     33  N        -23.2270  -26.6410   42.0020 N.am  113  GLY113     -0.1942
     34  CA       -22.4480  -25.5910   41.4140 C.3   113  GLY113      0.2014
     35  C        -22.3840  -24.3770   42.2890 C.2   113  GLY113      0.2639
     36  O        -22.0480  -23.3170   41.8430 O.2   113  GLY113     -0.2714
     37  N        -22.7300  -24.5330   43.5460 N.am  114  GLY114     -0.1954
     38  CA       -22.7280  -23.4190   44.4580 C.3   114  GLY114      0.1869
     39  C        -23.6880  -22.3450   44.0610 C.2   114  GLY114      0.2309
     40  O        -23.4330  -21.1870   44.2110 O.2   114  GLY114     -0.2863
     41  N        -24.0920  -20.9360   41.6360 N.3   116  GLN116     -0.1231
     42  CA       -23.5060  -19.9630   40.7290 C.3   116  GLN116      0.1698
     43  C        -23.2250  -20.5290   39.3510 C.2   116  GLN116      0.2593
     44  O        -23.1150  -19.7540   38.3910 O.2   116  GLN116     -0.2718
     45  CB       -22.2010  -19.3880   41.3090 C.3   116  GLN116      0.0381
     46  CG       -22.2830  -18.9630   42.7800 C.3   116  GLN116      0.0905
     47  CD       -23.3530  -17.9050   43.0760 C.2   116  GLN116      0.2608
     48  OE1      -23.2300  -16.7610   42.6600 O.2   116  GLN116     -0.2717
     49  NE2      -24.3880  -18.2860   43.8070 N.am  116  GLN116     -0.0878
     50  N        -23.1220  -21.8470   39.2190 N.am  117  THR117     -0.1939
     51  CA       -22.7490  -22.4720   37.9660 C.3   117  THR117      0.2028
     52  C        -23.5840  -23.7360   37.7760 C.2   117  THR117      0.2642
     53  O        -24.3700  -24.1270   38.6460 O.2   117  THR117     -0.2714
     54  CB       -21.2460  -22.8000   37.9280 C.3   117  THR117      0.1808
     55  OG1      -20.9400  -23.7900   38.9230 O.3   117  THR117     -0.2208
     56  CG2      -20.4060  -21.5670   38.1530 C.3   117  THR117      0.0379
     57  N        -23.4240  -24.3730   36.6170 N.am  118  GLY118     -0.1954
     58  CA       -24.0370  -25.6700   36.4380 C.3   118  GLY118      0.1869
     59  C        -25.0740  -25.7870   35.3380 C.2   118  GLY118      0.2309
     60  O        -25.7820  -24.8230   35.0210 O.2   118  GLY118     -0.2863
     61  N        -24.4070  -31.7570   31.2630 N.3   122  LEU122     -0.1245
     62  CA       -23.0900  -32.3370   31.4870 C.3   122  LEU122      0.1561
     63  C        -23.1510  -33.8410   31.2700 C.2   122  LEU122      0.2260
     64  O        -24.1390  -34.4930   31.6250 O.2   122  LEU122     -0.2867
     65  CB       -22.5960  -32.0420   32.9040 C.3   122  LEU122      0.0270
     66  CG       -22.3590  -30.6090   33.4030 C.3   122  LEU122      0.0019
     67  CD1      -21.4860  -30.6420   34.6420 C.3   122  LEU122      0.0001
     68  CD2      -21.7440  -29.7140   32.3380 C.3   122  LEU122      0.0001
     69  N        -24.3300  -36.2940   33.9470 N.3   125  TYR125     -0.1241
     70  CA       -25.7540  -36.3170   34.2670 C.3   125  TYR125      0.1605
     71  C        -26.5760  -36.9800   33.1590 C.2   125  TYR125      0.2264
     72  O        -27.7900  -36.7710   33.0690 O.2   125  TYR125     -0.2867
     73  CB       -26.2820  -34.9060   34.5000 C.3   125  TYR125      0.0534
     74  CG       -25.4680  -34.0240   35.4150 C.ar  125  TYR125     -0.0201
     75  CD1      -24.7310  -34.5540   36.4690 C.ar  125  TYR125     -0.0009
     76  CD2      -25.4720  -32.6440   35.2490 C.ar  125  TYR125     -0.0009
     77  CE1      -24.0170  -33.7380   37.3190 C.ar  125  TYR125      0.0417
     78  CE2      -24.7600  -31.8270   36.0900 C.ar  125  TYR125      0.0417
     79  CZ       -24.0290  -32.3780   37.1220 C.ar  125  TYR125      0.1957
     80  OH       -23.3010  -31.5600   37.9590 O.3   125  TYR125     -0.2866
     81  N        -27.0540  -33.0750   43.7090 N.3   194  GLU194     -0.1231
     82  CA       -25.8030  -33.0950   44.4220 C.3   194  GLU194      0.1699
     83  C        -25.2890  -31.7050   44.7170 C.2   194  GLU194      0.2592
     84  O        -25.5890  -30.7790   44.0180 O.2   194  GLU194     -0.2718
     85  CB       -24.7840  -33.8530   43.6140 C.3   194  GLU194      0.0402
     86  CG       -23.5030  -34.1470   44.3420 C.3   194  GLU194      0.1161
     87  CD       -22.4010  -33.2060   43.9890 C.2   194  GLU194      0.3649
     88  OE1      -21.3030  -33.4070   44.4670 O.co2 194  GLU194     -0.2457
     89  OE2      -22.6230  -32.2740   43.2330 O.co2 194  GLU194     -0.2457
     90  N        -24.5260  -31.5640   45.7840 N.am  195  SER195     -0.1952
     91  CA       -23.9540  -30.2860   46.1420 C.3   195  SER195      0.1924
     92  C        -25.0710  -29.3030   46.3590 C.2   195  SER195      0.2314
     93  O        -25.9120  -29.5290   47.1720 O.2   195  SER195     -0.2863
     94  CB       -22.9700  -29.8350   45.0840 C.3   195  SER195      0.2116
     95  OG       -22.2350  -28.7240   45.5180 O.3   195  SER195     -0.2180
     96  N        -22.4450  -22.9200   53.5560 N.3   228  TRP228     -0.1241
     97  CA       -22.5590  -22.1850   52.3090 C.3   228  TRP228      0.1605
     98  C        -23.9850  -22.0970   51.7660 C.2   228  TRP228      0.2264
     99  O        -24.2260  -21.3330   50.8260 O.2   228  TRP228     -0.2867
    100  CB       -21.6740  -22.8490   51.2690 C.3   228  TRP228      0.0550
    101  CG       -21.8160  -24.3500   51.2410 C.ar  228  TRP228      0.0003
    102  CD1      -21.0750  -25.2420   51.9350 C.ar  228  TRP228      0.0946
    103  CD2      -22.7580  -25.1120   50.4810 C.ar  228  TRP228      0.0152
    104  NE1      -21.4760  -26.5240   51.6510 N.ar  228  TRP228     -0.2442
    105  CE2      -22.5110  -26.4750   50.7600 C.ar  228  TRP228      0.0810
    106  CE3      -23.7800  -24.7770   49.5900 C.ar  228  TRP228      0.0012
    107  CZ2      -23.2520  -27.5090   50.1850 C.ar  228  TRP228      0.0191
    108  CZ3      -24.5110  -25.7930   49.0160 C.ar  228  TRP228      0.0001
    109  CH2      -24.2460  -27.1530   49.3170 C.ar  228  TRP228      0.0015
    110  N        -12.9490  -19.8130   48.8650 N.3   282  PRO282     -0.2102
    111  CA       -13.1520  -20.7120   47.7240 C.3   282  PRO282      0.1504
    112  C        -14.5530  -21.2970   47.6460 C.2   282  PRO282      0.2576
    113  O        -14.9790  -21.7100   46.5660 O.2   282  PRO282     -0.2718
    114  CB       -12.0970  -21.7960   47.9600 C.3   282  PRO282      0.0282
    115  CG       -10.9660  -21.0440   48.5800 C.3   282  PRO282      0.0208
    116  CD       -11.6070  -19.9850   49.4560 C.3   282  PRO282      0.0893
    117  N        -15.2880  -21.3130   48.7620 N.am  283  LEU283     -0.1966
    118  CA       -16.6550  -21.8200   48.7990 C.3   283  LEU283      0.1728
    119  C        -17.7020  -20.7380   49.0070 C.2   283  LEU283      0.2617
    120  O        -18.8610  -21.0650   49.2780 O.2   283  LEU283     -0.2715
    121  CB       -16.8120  -22.8810   49.8900 C.3   283  LEU283      0.0311
    122  CG       -15.8130  -24.0370   49.9020 C.3   283  LEU283      0.0022
    123  CD1      -14.9360  -23.9300   51.1120 C.3   283  LEU283      0.0001
    124  CD2      -16.5380  -25.3790   49.8430 C.3   283  LEU283      0.0001
    125  N        -17.3340  -19.4660   48.9100 N.am  284  SER284     -0.1936
    126  CA       -18.3290  -18.4140   49.0450 C.3   284  SER284      0.2055
    127  C        -19.3930  -18.5580   47.9630 C.2   284  SER284      0.2642
    128  O        -19.0820  -18.7230   46.7790 O.2   284  SER284     -0.2714
    129  CB       -17.6620  -17.0400   48.9640 C.3   284  SER284      0.2130
    130  OG       -16.9240  -16.7660   50.1480 O.3   284  SER284     -0.2179
    131  N        -20.6490  -18.5260   48.3790 N.am  285  VAL285     -0.1977
    132  CA       -21.7860  -18.5360   47.4710 C.3   285  VAL285      0.1596
    133  C        -22.2790  -17.0980   47.3690 C.2   285  VAL285      0.2287
    134  O        -22.9750  -16.6100   48.2590 O.2   285  VAL285     -0.2864
    135  CB       -22.8850  -19.4820   47.9580 C.3   285  VAL285      0.0276
    136  CG1      -24.1150  -19.3320   47.1130 C.3   285  VAL285      0.0022
    137  CG2      -22.4010  -20.9350   47.9370 C.3   285  VAL285      0.0022
    138  N        -11.1520  -30.7970   47.0500 N.3   325  ALA325     -0.1231
    139  CA       -11.3190  -30.1090   45.7750 C.3   325  ALA325      0.1694
    140  C        -10.9830  -28.6330   45.8940 C.2   325  ALA325      0.2592
    141  O        -10.3000  -28.0690   45.0350 O.2   325  ALA325     -0.2718
    142  CB       -12.7440  -30.2790   45.2720 C.3   325  ALA325      0.0304
    143  N        -11.4220  -28.0010   46.9690 N.am  326  PHE326     -0.1976
    144  CA       -11.3160  -26.5600   47.1010 C.3   326  PHE326      0.1639
    145  C         -9.9520  -26.0930   47.5950 C.2   326  PHE326      0.2290
    146  O         -9.6480  -24.9020   47.5050 O.2   326  PHE326     -0.2864
    147  CB       -12.4350  -26.1070   48.0270 C.3   326  PHE326      0.0560
    148  CG       -13.7470  -26.7540   47.7070 C.ar  326  PHE326     -0.0200
    149  CD1      -14.5660  -26.2360   46.7060 C.ar  326  PHE326     -0.0042
    150  CD2      -14.1540  -27.9090   48.3690 C.ar  326  PHE326     -0.0042
    151  CE1      -15.7900  -26.8410   46.3820 C.ar  326  PHE326     -0.0003
    152  CE2      -15.3830  -28.5170   48.0540 C.ar  326  PHE326     -0.0003
    153  CZ       -16.1990  -27.9760   47.0590 C.ar  326  PHE326     -0.0000
    154  N         -7.7350  -23.9530   45.1040 N.3   329  TYR329     -0.1241
    155  CA        -8.2620  -22.6940   44.6600 C.3   329  TYR329      0.1605
    156  C         -7.8260  -21.5510   45.5260 C.2   329  TYR329      0.2264
    157  O         -8.4750  -20.5320   45.6070 O.2   329  TYR329     -0.2867
    158  CB        -9.7560  -22.7700   44.4880 C.3   329  TYR329      0.0534
    159  CG       -10.0970  -23.5850   43.2830 C.ar  329  TYR329     -0.0201
    160  CD1      -10.0740  -23.0340   42.0370 C.ar  329  TYR329     -0.0009
    161  CD2      -10.3850  -24.9130   43.3920 C.ar  329  TYR329     -0.0009
    162  CE1      -10.3660  -23.7760   40.9380 C.ar  329  TYR329      0.0417
    163  CE2      -10.6760  -25.6580   42.2940 C.ar  329  TYR329      0.0417
    164  CZ       -10.6670  -25.0840   41.0810 C.ar  329  TYR329      0.1957
    165  OH       -10.9600  -25.8230   39.9890 O.3   329  TYR329     -0.2866
    166  N        -19.4470  -30.1110   54.5060 N.3   395  PHE395     -0.1241
    167  CA       -20.3720  -31.0850   53.9390 C.3   395  PHE395      0.1605
    168  C        -20.7720  -32.1940   54.9000 C.2   395  PHE395      0.2264
    169  O        -21.9610  -32.3910   55.1720 O.2   395  PHE395     -0.2867
    170  CB       -19.7640  -31.6930   52.6820 C.3   395  PHE395      0.0534
    171  CG       -19.4390  -30.6840   51.6240 C.ar  395  PHE395     -0.0203
    172  CD1      -20.4300  -30.2020   50.7850 C.ar  395  PHE395     -0.0042
    173  CD2      -18.1460  -30.2130   51.4790 C.ar  395  PHE395     -0.0042
    174  CE1      -20.1430  -29.2660   49.8170 C.ar  395  PHE395     -0.0003
    175  CE2      -17.8530  -29.2840   50.5140 C.ar  395  PHE395     -0.0003
    176  CZ       -18.8540  -28.8100   49.6720 C.ar  395  PHE395     -0.0000
    177  N         -7.6110  -35.8030   38.7240 N.3   427  TRP427     -0.1241
    178  CA        -6.9080  -35.0530   39.7630 C.3   427  TRP427      0.1605
    179  C         -5.8750  -35.9450   40.4470 C.2   427  TRP427      0.2264
    180  O         -5.8700  -37.1660   40.2530 O.2   427  TRP427     -0.2867
    181  CB        -7.9180  -34.5270   40.7780 C.3   427  TRP427      0.0550
    182  CG        -8.9850  -33.6070   40.2560 C.ar  427  TRP427      0.0003
    183  CD1      -10.2160  -33.9640   39.7860 C.ar  427  TRP427      0.0946
    184  CD2       -8.9420  -32.1690   40.2130 C.ar  427  TRP427      0.0152
    185  NE1      -10.9330  -32.8400   39.4310 N.ar  427  TRP427     -0.2442
    186  CE2      -10.1740  -31.7290   39.6870 C.ar  427  TRP427      0.0810
    187  CE3       -7.9790  -31.2150   40.5620 C.ar  427  TRP427      0.0012
    188  CZ2      -10.4680  -30.3800   39.5060 C.ar  427  TRP427      0.0191
    189  CZ3       -8.2740  -29.8770   40.3810 C.ar  427  TRP427      0.0001
    190  CH2       -9.5070  -29.4720   39.8570 C.ar  427  TRP427      0.0015
    191  N        -13.1480  -37.2540   45.6140 N.3   434  MET434     -0.1230
    192  CA       -13.4830  -35.8370   45.6410 C.3   434  MET434      0.1702
    193  C        -14.9800  -35.5870   45.5960 C.2   434  MET434      0.2592
    194  O        -15.7700  -36.4140   45.1260 O.2   434  MET434     -0.2718
    195  CB       -12.8190  -35.1120   44.4800 C.3   434  MET434      0.0401
    196  CG       -11.3370  -35.0220   44.6720 C.3   434  MET434      0.0596
    197  SD       -10.5570  -34.3300   43.2260 S.3   434  MET434     -0.1393
    198  CE       -11.2540  -32.6870   43.2210 C.3   434  MET434      0.0692
    199  N        -15.3540  -34.4360   46.1350 N.am  435  HIS435     -0.1962
    200  CA       -16.6620  -33.8400   45.9380 C.3   435  HIS435      0.1787
    201  C        -17.1040  -33.9570   44.4830 C.2   435  HIS435      0.2621
    202  O        -16.3750  -33.5810   43.5620 O.2   435  HIS435     -0.2715
    203  CB       -16.5870  -32.3650   46.3610 C.3   435  HIS435      0.0785
    204  CG       -17.9050  -31.6630   46.3640 C.ar  435  HIS435      0.0821
    205  ND1      -18.8830  -31.9200   47.2990 N.ar  435  HIS435     -0.2267
    206  CD2      -18.4040  -30.7050   45.5550 C.ar  435  HIS435      0.1154
    207  CE1      -19.9360  -31.1630   47.0560 C.ar  435  HIS435      0.1986
    208  NE2      -19.6660  -30.4080   46.0100 N.ar  435  HIS435     -0.2212
    209  N        -18.2940  -34.4890   44.2750 N.am  436  GLY436     -0.1940
    210  CA       -18.8250  -34.6270   42.9420 C.3   436  GLY436      0.2014
    211  C        -18.4470  -35.8920   42.1880 C.2   436  GLY436      0.2638
    212  O        -19.0040  -36.1350   41.1210 O.2   436  GLY436     -0.2714
    213  N        -17.5350  -36.7180   42.6880 N.am  437  TYR437     -0.1973
    214  CA       -17.0500  -37.8340   41.8880 C.3   437  TYR437      0.1639
    215  C        -17.6770  -39.1680   42.2740 C.2   437  TYR437      0.2290
    216  O        -17.0920  -40.2270   42.0290 O.2   437  TYR437     -0.2864
    217  CB       -15.5300  -37.8860   41.9410 C.3   437  TYR437      0.0560
    218  CG       -14.9720  -36.7940   41.0820 C.ar  437  TYR437     -0.0198
    219  CD1      -14.8190  -35.5100   41.5810 C.ar  437  TYR437     -0.0009
    220  CD2      -14.6600  -37.0300   39.7530 C.ar  437  TYR437     -0.0009
    221  CE1      -14.3380  -34.5010   40.7980 C.ar  437  TYR437      0.0417
    222  CE2      -14.1820  -36.0270   38.9560 C.ar  437  TYR437      0.0417
    223  CZ       -14.0230  -34.7560   39.4830 C.ar  437  TYR437      0.1957
    224  OH       -13.5370  -33.7430   38.6830 O.3   437  TYR437     -0.2866
@<TRIPOS>BOND
     1    61    62    1
     2    63    62    1
     3    63    64    2
     4    62    65    1
     5    68    66    1
     6    65    66    1
     7    72    71    2
     8    71    70    1
     9    66    67    1
    10    69    70    1
    11     4     3    2
    12    70    73    1
    13    17    18    2
    14    17    16    1
    15    73    74    1
    16    15    16    1
    17    11    12    2
    18    11    10    1
    19     3     2    1
    20    14    13    1
    21    60    59    2
    22    16    19    1
    23    76    74   ar
    24    76    78   ar
    25     1     2    1
    26    59    58    1
    27    74    75   ar
    28     9    10    1
    29     2     5    1
    30    10    13    1
    31    78    79   ar
    32    58    57    1
    33    75    77   ar
    34    57    52   am
    35    19    20    1
    36     5     6    1
    37    79    77   ar
    38    79    80    1
    39     6     8   ar
    40     6     7   ar
    41    20    22   ar
    42    20    21   ar
    43    25    22   ar
    44    25    27   ar
    45    52    51    1
    46    52    53    2
    47    22    24   ar
    48    21    23   ar
    49    54    51    1
    50    54    56    1
    51    54    55    1
    52    51    50    1
    53    27    28   ar
    54    44    43    2
    55    24    23   ar
    56    24    26   ar
    57   224   223    1
    58   177   178    1
    59    28    26   ar
    60   222   223   ar
    61   222   220   ar
    62    50    43   am
    63    43    42    1
    64   185   186   ar
    65   185   183   ar
    66   223   221   ar
    67   188   186   ar
    68   188   190   ar
    69   186   184   ar
    70   220   218   ar
    71   178   179    1
    72   178   181    1
    73   183   182   ar
    74   190   189   ar
    75   165   164    1
    76    32    31    2
    77   184   182   ar
    78   184   187   ar
    79   180   179    2
    80   182   181    1
    81   189   187   ar
    82    42    45    1
    83    42    41    1
    84   221   219   ar
    85   162   164   ar
    86   162   160   ar
    87    29    30    1
    88   164   163   ar
    89   218   219   ar
    90   218   217    1
    91   212   211    2
    92    31    30    1
    93    31    33   am
    94    45    46    1
    95    34    33    1
    96    34    35    1
    97    36    35    2
    98   214   217    1
    99   214   215    1
   100   214   213    1
   101   216   215    2
   102   160   159   ar
   103   211   213   am
   104   211   210    1
   105    35    37   am
   106   163   161   ar
   107    48    47    2
   108    46    47    1
   109   210   209    1
   110    47    49   am
   111   198   197    1
   112   197   196    1
   113    89    87   ar
   114   159   161   ar
   115   159   158    1
   116    37    38    1
   117   202   201    2
   118    85    86    1
   119    85    82    1
   120    81    82    1
   121    87    86    1
   122    87    88   ar
   123    84    83    2
   124    39    40    2
   125    39    38    1
   126   209   201   am
   127    82    83    1
   128   195   196    1
   129   195   192    1
   130   201   200    1
   131   158   155    1
   132   155   154    1
   133   155   156    1
   134    83    90   am
   135   141   140    2
   136    94    95    1
   137    94    91    1
   138   194   193    2
   139   142   139    1
   140   156   157    2
   141   206   208   ar
   142   206   204   ar
   143   193   192    1
   144   193   199   am
   145   191   192    1
   146   139   140    1
   147   139   138    1
   148    90    91    1
   149   140   143   am
   150   200   199    1
   151   200   203    1
   152   208   207   ar
   153    91    92    1
   154    92    93    2
   155   203   204    1
   156   204   205   ar
   157   151   149   ar
   158   151   153   ar
   159   113   112    2
   160   149   148   ar
   161   128   127    2
   162   143   144    1
   163   207   205   ar
   164   153   152   ar
   165   144   145    1
   166   144   147    1
   167   136   135    1
   168   133   132    1
   169   133   134    2
   170   132   135    1
   171   132   131    1
   172   146   145    2
   173   112   111    1
   174   112   117   am
   175   148   147    1
   176   148   150   ar
   177   111   114    1
   178   111   110    1
   179   137   135    1
   180   114   115    1
   181   127   131   am
   182   127   126    1
   183   152   150   ar
   184   115   116    1
   185   117   118    1
   186   118   119    1
   187   118   121    1
   188   110   116    1
   189   125   119   am
   190   125   126    1
   191   129   126    1
   192   129   130    1
   193   119   120    2
   194   108   109   ar
   195   108   106   ar
   196   109   107   ar
   197   106   103   ar
   198   176   174   ar
   199   176   175   ar
   200   174   172   ar
   201   124   122    1
   202   121   122    1
   203   122   123    1
   204   107   105   ar
   205   103   105   ar
   206   103   101   ar
   207   175   173   ar
   208   105   104   ar
   209   172   171   ar
   210    99    98    2
   211   101   100    1
   212   101   102   ar
   213   100    97    1
   214   173   171   ar
   215   171   170    1
   216   104   102   ar
   217    98    97    1
   218    97    96    1
   219   170   167    1
   220   167   166    1
   221   167   168    1
   222   168   169    2
