@<TRIPOS>MOLECULE
tmp/5k5mA00.pdb
 197 196 0 0 0
SMALL
GASTEIGER

@<TRIPOS>ATOM
      1  N        -17.6010  -44.9370  -27.5540 N.3   194  LEU194     -0.1231
      2  CA       -16.3890  -45.7000  -27.2570 C.3   194  LEU194      0.1693
      3  C        -16.0750  -46.7170  -28.3370 C.2   194  LEU194      0.2592
      4  O        -14.9250  -46.8230  -28.7440 O.2   194  LEU194     -0.2718
      5  CB       -16.5200  -46.3860  -25.8850 C.3   194  LEU194      0.0284
      6  CG       -15.3160  -47.2070  -25.3810 C.3   194  LEU194      0.0019
      7  CD1      -14.0900  -46.3370  -25.2000 C.3   194  LEU194      0.0001
      8  CD2      -15.6850  -48.0240  -24.1280 C.3   194  LEU194      0.0001
      9  N        -17.1080  -47.4360  -28.8210 N.am  195  HIS195     -0.1976
     10  CA       -16.9900  -48.4670  -29.8650 C.3   195  HIS195      0.1656
     11  C        -16.5550  -47.9500  -31.2670 C.2   195  HIS195      0.2291
     12  O        -16.2990  -48.7730  -32.1430 O.2   195  HIS195     -0.2864
     13  CB       -18.2980  -49.2350  -29.9690 C.3   195  HIS195      0.0771
     14  CG       -19.4360  -48.4190  -30.4750 C.ar  195  HIS195      0.0820
     15  ND1      -20.0580  -47.4890  -29.6820 N.ar  195  HIS195     -0.2267
     16  CD2      -20.0690  -48.4690  -31.6690 C.ar  195  HIS195      0.1154
     17  CE1      -21.0350  -46.9830  -30.4130 C.ar  195  HIS195      0.1986
     18  NE2      -21.0700  -47.5370  -31.6210 N.ar  195  HIS195     -0.2212
     19  N        -14.2370  -45.1500  -31.2850 N.3   197  LEU197     -0.1245
     20  CA       -12.9140  -44.5350  -31.0320 C.3   197  LEU197      0.1561
     21  C        -11.7620  -45.3560  -31.5680 C.2   197  LEU197      0.2260
     22  O        -10.8100  -44.7980  -32.1270 O.2   197  LEU197     -0.2867
     23  CB       -12.7170  -44.1890  -29.5580 C.3   197  LEU197      0.0270
     24  CG       -13.7720  -43.2150  -28.9240 C.3   197  LEU197      0.0019
     25  CD1      -13.3920  -42.8960  -27.5060 C.3   197  LEU197      0.0001
     26  CD2      -13.8460  -41.8810  -29.6870 C.3   197  LEU197      0.0001
     27  N         -7.8850  -34.8240  -23.8220 N.3   338  ASP338     -0.1239
     28  CA        -7.3810  -36.0880  -24.3660 C.3   338  ASP338      0.1674
     29  C         -7.0540  -35.9030  -25.8380 C.2   338  ASP338      0.2266
     30  O         -7.9350  -35.4940  -26.5980 O.2   338  ASP338     -0.2867
     31  CB        -8.4470  -37.2180  -24.2160 C.3   338  ASP338      0.1410
     32  CG        -8.7320  -37.6110  -22.7670 C.2   338  ASP338      0.3668
     33  OD1       -7.7700  -37.9220  -22.0390 O.co2 338  ASP338     -0.2456
     34  OD2       -9.9260  -37.5800  -22.3580 O.co2 338  ASP338     -0.2456
     35  N         -8.5810  -41.7800  -23.9220 N.3   383  CYS383     -0.1221
     36  CA        -9.7290  -41.7420  -22.9900 C.3   383  CYS383      0.1808
     37  C         -9.7410  -42.9760  -22.0290 C.2   383  CYS383      0.2602
     38  O        -10.7690  -43.6540  -21.9130 O.2   383  CYS383     -0.2717
     39  CB       -11.0400  -41.6100  -23.7630 C.3   383  CYS383      0.0970
     40  SG       -11.1100  -40.1900  -24.8920 S.3   383  CYS383     -0.0800
     41  N         -8.5580  -43.3020  -21.4370 N.am  384  SER384     -0.1938
     42  CA        -8.3270  -44.4020  -20.4680 C.3   384  SER384      0.2055
     43  C         -8.4490  -45.8060  -21.0790 C.2   384  SER384      0.2643
     44  O         -8.4990  -46.7880  -20.3550 O.2   384  SER384     -0.2714
     45  CB        -9.2780  -44.2640  -19.2670 C.3   384  SER384      0.2130
     46  OG        -9.0120  -43.0660  -18.5550 O.3   384  SER384     -0.2179
     47  N         -8.4850  -45.9010  -22.4010 N.am  385  HIS385     -0.1973
     48  CA        -8.5950  -47.1540  -23.1320 C.3   385  HIS385      0.1656
     49  C         -7.4610  -47.3190  -24.1120 C.2   385  HIS385      0.2291
     50  O         -6.7240  -46.3810  -24.3990 O.2   385  HIS385     -0.2864
     51  CB        -9.9410  -47.1990  -23.9020 C.3   385  HIS385      0.0771
     52  CG       -11.1430  -47.3840  -23.0160 C.ar  385  HIS385      0.0820
     53  ND1      -11.6560  -46.3320  -22.2490 N.ar  385  HIS385     -0.2267
     54  CD2      -11.8650  -48.5080  -22.7560 C.ar  385  HIS385      0.1154
     55  CE1      -12.6920  -46.8470  -21.5790 C.ar  385  HIS385      0.1986
     56  NE2      -12.8540  -48.1520  -21.8480 N.ar  385  HIS385     -0.2212
     57  N         -9.4660  -51.9330  -21.3200 N.3   403  ARG403     -0.1245
     58  CA        -8.6970  -51.3220  -20.2480 C.3   403  ARG403      0.1563
     59  C         -8.3530  -52.4180  -19.2550 C.2   403  ARG403      0.2260
     60  O         -8.9120  -53.5160  -19.3610 O.2   403  ARG403     -0.2867
     61  CB        -9.4090  -50.0990  -19.6240 C.3   403  ARG403      0.0307
     62  CG       -10.7000  -50.4150  -18.9040 C.3   403  ARG403      0.0489
     63  CD       -11.5160  -49.1620  -18.6220 C.3   403  ARG403      0.2205
     64  NE       -10.8390  -48.3160  -17.6420 N.pl3 403  ARG403     -0.0865
     65  CZ       -11.3090  -47.1700  -17.1780 C.cat 403  ARG403      0.5346
     66  NH1      -12.4780  -46.7040  -17.6050 N.pl3 403  ARG403      0.1354
     67  NH2      -10.6180  -46.4780  -16.2890 N.pl3 403  ARG403      0.1354
     68  N        -14.8020  -50.7480  -10.5750 N.3   411  ARG411     -0.1245
     69  CA       -15.8430  -49.7090  -10.8160 C.3   411  ARG411      0.1563
     70  C        -17.2800  -50.2770  -10.7010 C.2   411  ARG411      0.2260
     71  O        -18.1200  -49.6710  -10.0490 O.2   411  ARG411     -0.2867
     72  CB       -15.6390  -49.0160  -12.1970 C.3   411  ARG411      0.0307
     73  CG       -16.6700  -47.9090  -12.5210 C.3   411  ARG411      0.0489
     74  CD       -16.7190  -46.7780  -11.4790 C.3   411  ARG411      0.2205
     75  NE       -15.3860  -46.1860  -11.3150 N.pl3 411  ARG411     -0.0865
     76  CZ       -14.9650  -45.5660  -10.2190 C.cat 411  ARG411      0.5346
     77  NH1      -15.7800  -45.4130   -9.1780 N.pl3 411  ARG411      0.1354
     78  NH2      -13.7360  -45.0650  -10.1650 N.pl3 411  ARG411      0.1354
     79  N        -23.4380  -53.3390  -20.0970 N.3   435  MET435     -0.1245
     80  CA       -22.3510  -52.5160  -20.6590 C.3   435  MET435      0.1570
     81  C        -21.1760  -53.4350  -21.0280 C.2   435  MET435      0.2261
     82  O        -20.5970  -53.2960  -22.1080 O.2   435  MET435     -0.2867
     83  CB       -21.8740  -51.4440  -19.6660 C.3   435  MET435      0.0387
     84  CG       -20.7030  -50.6160  -20.2430 C.3   435  MET435      0.0595
     85  SD       -20.0920  -49.3390  -19.1430 S.3   435  MET435     -0.1393
     86  CE       -19.1710  -50.3320  -17.9610 C.3   435  MET435      0.0692
     87  N        -19.5670  -53.6890  -24.7280 N.3   439  MET439     -0.1230
     88  CA       -18.2450  -53.1100  -24.9770 C.3   439  MET439      0.1702
     89  C        -17.0680  -54.0050  -24.6980 C.2   439  MET439      0.2592
     90  O        -16.0480  -53.8760  -25.3750 O.2   439  MET439     -0.2718
     91  CB       -18.0860  -51.8010  -24.1720 C.3   439  MET439      0.0401
     92  CG       -19.0870  -50.7270  -24.5580 C.3   439  MET439      0.0596
     93  SD       -18.7700  -50.0530  -26.2230 S.3   439  MET439     -0.1393
     94  CE       -20.1660  -50.5420  -26.9420 C.3   439  MET439      0.0692
     95  N        -17.1940  -54.9060  -23.7130 N.am  440  TYR440     -0.1976
     96  CA       -16.0810  -55.7130  -23.2430 C.3   440  TYR440      0.1639
     97  C        -16.3460  -57.1900  -23.2860 C.2   440  TYR440      0.2290
     98  O        -15.8010  -57.9290  -22.4720 O.2   440  TYR440     -0.2864
     99  CB       -15.6800  -55.2810  -21.8110 C.3   440  TYR440      0.0560
    100  CG       -15.5120  -53.7750  -21.6490 C.ar  440  TYR440     -0.0198
    101  CD1      -14.3790  -53.1200  -22.1360 C.ar  440  TYR440     -0.0009
    102  CD2      -16.4750  -53.0140  -20.9880 C.ar  440  TYR440     -0.0009
    103  CE1      -14.2200  -51.7310  -21.9850 C.ar  440  TYR440      0.0417
    104  CE2      -16.3190  -51.6340  -20.8180 C.ar  440  TYR440      0.0417
    105  CZ       -15.1740  -51.0020  -21.2920 C.ar  440  TYR440      0.1957
    106  OH       -15.0380  -49.6410  -21.1360 O.3   440  TYR440     -0.2866
    107  N        -23.6620  -46.2130  -15.6090 N.3   467  THR467     -0.1203
    108  CA       -22.4040  -46.9150  -15.3180 C.3   467  THR467      0.1994
    109  C        -21.1960  -45.9740  -15.3810 C.2   467  THR467      0.2619
    110  O        -20.1310  -46.2880  -14.8420 O.2   467  THR467     -0.2717
    111  CB       -22.2170  -48.0280  -16.3070 C.3   467  THR467      0.1784
    112  OG1      -22.2230  -47.4340  -17.6000 O.3   467  THR467     -0.2211
    113  CG2      -23.3080  -49.0790  -16.2030 C.3   467  THR467      0.0376
    114  N        -21.3740  -44.8260  -16.0380 N.am  468  THR468     -0.1938
    115  CA       -20.3430  -43.8160  -16.2840 C.3   468  THR468      0.2028
    116  C        -20.9740  -42.4610  -16.6240 C.2   468  THR468      0.2642
    117  O        -22.1130  -42.4160  -17.0840 O.2   468  THR468     -0.2714
    118  CB       -19.4510  -44.2940  -17.4590 C.3   468  THR468      0.1808
    119  OG1      -18.5030  -43.2780  -17.7870 O.3   468  THR468     -0.2208
    120  CG2      -20.2510  -44.6850  -18.7010 C.3   468  THR468      0.0379
    121  N        -20.2060  -41.3860  -16.4550 N.am  469  TRP469     -0.1959
    122  CA       -20.5980  -40.0190  -16.8070 C.3   469  TRP469      0.1771
    123  C        -19.8540  -39.5880  -18.0920 C.2   469  TRP469      0.2620
    124  O        -20.0370  -38.4700  -18.5740 O.2   469  TRP469     -0.2715
    125  CB       -20.3480  -39.0430  -15.6280 C.3   469  TRP469      0.0590
    126  CG       -21.3890  -39.0920  -14.5310 C.ar  469  TRP469      0.0006
    127  CD1      -22.5250  -39.8580  -14.4970 C.ar  469  TRP469      0.0946
    128  CD2      -21.3970  -38.3160  -13.3190 C.ar  469  TRP469      0.0152
    129  NE1      -23.2320  -39.6140  -13.3390 N.ar  469  TRP469     -0.2442
    130  CE2      -22.5690  -38.6670  -12.6020 C.ar  469  TRP469      0.0810
    131  CE3      -20.5290  -37.3410  -12.7730 C.ar  469  TRP469      0.0012
    132  CZ2      -22.8950  -38.0850  -11.3680 C.ar  469  TRP469      0.0191
    133  CZ3      -20.8460  -36.7780  -11.5410 C.ar  469  TRP469      0.0001
    134  CH2      -22.0050  -37.1640  -10.8440 C.ar  469  TRP469      0.0015
    135  N        -19.0550  -40.5120  -18.6730 N.am  470  SER470     -0.1950
    136  CA       -18.2980  -40.2450  -19.8830 C.3   470  SER470      0.1924
    137  C        -19.1870  -39.7830  -21.0190 C.2   470  SER470      0.2314
    138  O        -20.2170  -40.3970  -21.3050 O.2   470  SER470     -0.2863
    139  CB       -17.4620  -41.4510  -20.3100 C.3   470  SER470      0.2116
    140  OG       -16.9040  -41.2520  -21.6030 O.3   470  SER470     -0.2180
    141  N        -18.4520  -40.1720  -23.9420 N.3   472  HIS472     -0.1226
    142  CA       -18.2650  -41.2130  -24.9630 C.3   472  HIS472      0.1752
    143  C        -19.2680  -42.3600  -24.7940 C.2   472  HIS472      0.2596
    144  O        -19.2770  -43.2930  -25.5980 O.2   472  HIS472     -0.2718
    145  CB       -16.8240  -41.7600  -24.9340 C.3   472  HIS472      0.0759
    146  CG       -15.8070  -40.6880  -25.1770 C.ar  472  HIS472      0.0818
    147  ND1      -15.5820  -40.1910  -26.4400 N.ar  472  HIS472     -0.2268
    148  CD2      -15.0760  -39.9760  -24.2930 C.ar  472  HIS472      0.1154
    149  CE1      -14.6790  -39.2380  -26.2990 C.ar  472  HIS472      0.1986
    150  NE2      -14.3390  -39.0780  -25.0270 N.ar  472  HIS472     -0.2212
    151  N        -20.1060  -42.2950  -23.7630 N.am  473  ALA473     -0.1966
    152  CA       -21.0760  -43.3690  -23.5030 C.3   473  ALA473      0.1728
    153  C        -22.4190  -42.9770  -24.0770 C.2   473  ALA473      0.2616
    154  O        -22.9050  -41.8780  -23.8120 O.2   473  ALA473     -0.2715
    155  CB       -21.1850  -43.6170  -21.9950 C.3   473  ALA473      0.0334
    156  N        -23.0110  -43.8710  -24.8610 N.am  474  LYS474     -0.1963
    157  CA       -24.3340  -43.6750  -25.4680 C.3   474  LYS474      0.1728
    158  C        -25.3630  -44.5270  -24.7590 C.2   474  LYS474      0.2616
    159  O        -26.5600  -44.4110  -25.0320 O.2   474  LYS474     -0.2715
    160  CB       -24.3210  -43.8900  -26.9990 C.3   474  LYS474      0.0311
    161  CG       -23.3840  -42.9010  -27.7040 C.3   474  LYS474      0.0038
    162  CD       -23.3920  -43.0580  -29.2120 C.3   474  LYS474      0.0206
    163  CE       -23.8430  -41.7820  -29.8730 C.3   474  LYS474      0.1093
    164  NZ       -24.1050  -41.9760  -31.3210 N.3   474  LYS474     -0.1314
    165  N        -24.9040  -45.3510  -23.7880 N.am  475  HIS475     -0.1959
    166  CA       -25.8070  -46.1060  -22.9130 C.3   475  HIS475      0.1787
    167  C        -26.7570  -47.0490  -23.6340 C.2   475  HIS475      0.2620
    168  O        -27.8600  -47.2450  -23.1560 O.2   475  HIS475     -0.2715
    169  CB       -26.5880  -45.1230  -22.0020 C.3   475  HIS475      0.0785
    170  CG       -25.6560  -44.2870  -21.1850 C.ar  475  HIS475      0.0821
    171  ND1      -25.1030  -44.7700  -20.0110 N.ar  475  HIS475     -0.2267
    172  CD2      -25.1180  -43.0710  -21.4600 C.ar  475  HIS475      0.1154
    173  CE1      -24.2710  -43.8270  -19.5960 C.ar  475  HIS475      0.1986
    174  NE2      -24.2520  -42.7810  -20.4300 N.ar  475  HIS475     -0.2212
    175  N        -26.3050  -47.6980  -24.7300 N.am  476  GLU476     -0.1963
    176  CA       -27.1390  -48.6780  -25.4520 C.3   476  GLU476      0.1733
    177  C        -27.5270  -49.8660  -24.5950 C.2   476  GLU476      0.2616
    178  O        -28.5160  -50.5300  -24.8820 O.2   476  GLU476     -0.2715
    179  CB       -26.4820  -49.1540  -26.7470 C.3   476  GLU476      0.0429
    180  CG       -26.2200  -48.0270  -27.7360 C.3   476  GLU476      0.1163
    181  CD       -24.8080  -47.4780  -27.6750 C.2   476  GLU476      0.3649
    182  OE1      -24.3200  -46.9950  -28.7190 O.co2 476  GLU476     -0.2457
    183  OE2      -24.1770  -47.5490  -26.5960 O.co2 476  GLU476     -0.2457
    184  N        -26.7830  -50.1120  -23.5140 N.am  477  TRP477     -0.1974
    185  CA       -27.0360  -51.2110  -22.5920 C.3   477  TRP477      0.1640
    186  C        -28.1630  -50.8680  -21.6070 C.2   477  TRP477      0.2290
    187  O        -28.5640  -51.7330  -20.8460 O.2   477  TRP477     -0.2864
    188  CB       -25.7240  -51.5360  -21.8310 C.3   477  TRP477      0.0576
    189  CG       -25.1090  -50.3400  -21.1480 C.ar  477  TRP477      0.0006
    190  CD1      -25.3900  -49.8720  -19.8980 C.ar  477  TRP477      0.0946
    191  CD2      -24.1240  -49.4540  -21.6980 C.ar  477  TRP477      0.0152
    192  NE1      -24.5970  -48.7830  -19.6110 N.ar  477  TRP477     -0.2442
    193  CE2      -23.8160  -48.4980  -20.6990 C.ar  477  TRP477      0.0810
    194  CE3      -23.4060  -49.4230  -22.9060 C.ar  477  TRP477      0.0012
    195  CZ2      -22.9030  -47.4530  -20.9140 C.ar  477  TRP477      0.0191
    196  CZ3      -22.4870  -48.3990  -23.1100 C.ar  477  TRP477      0.0001
    197  CH2      -22.2390  -47.4340  -22.1230 C.ar  477  TRP477      0.0015
@<TRIPOS>BOND
     1    12    11    2
     2    22    21    2
     3    16    18   ar
     4    16    14   ar
     5    18    17   ar
     6    21    20    1
     7   164   163    1
     8    19    20    1
     9    11    10    1
    10    20    23    1
    11    14    13    1
    12    14    15   ar
    13    17    15   ar
    14    13    10    1
    15   163   162    1
    16    10     9    1
    17    26    24    1
    18    23    24    1
    19   162   161    1
    20    24    25    1
    21     9     3   am
    22     4     3    2
    23   182   181   ar
    24     3     2    1
    25   180   181    1
    26   180   179    1
    27   161   160    1
    28   181   183   ar
    29     1     2    1
    30     2     5    1
    31   160   157    1
    32    94    93    1
    33   179   176    1
    34    30    29    2
    35   147   149   ar
    36   147   146   ar
    37   149   150   ar
    38    93    92    1
    39     5     6    1
    40    29    28    1
    41   144   143    2
    42   157   156    1
    43   157   158    1
    44   176   175    1
    45   176   177    1
    46     6     7    1
    47     6     8    1
    48    90    89    2
    49   146   145    1
    50   146   148   ar
    51   159   158    2
    52   150   148   ar
    53    88    87    1
    54    88    89    1
    55    88    91    1
    56   142   145    1
    57   142   143    1
    58   142   141    1
    59    40    39    1
    60   178   177    2
    61   156   153   am
    62   143   151   am
    63   158   165   am
    64   175   167   am
    65    89    95   am
    66   177   184   am
    67    92    91    1
    68    50    49    2
    69    28    31    1
    70    28    27    1
    71    31    32    1
    72    49    48    1
    73   153   154    2
    74   153   152    1
    75    35    36    1
    76    51    48    1
    77    51    52    1
    78   165   166    1
    79    39    36    1
    80   151   152    1
    81    95    96    1
    82   167   168    2
    83   167   166    1
    84   184   185    1
    85   152   155    1
    86    97    96    1
    87    97    98    2
    88    96    99    1
    89    48    47    1
    90   196   194   ar
    91   196   197   ar
    92    52    54   ar
    93    52    53   ar
    94    36    37    1
    95   166   169    1
    96   194   191   ar
    97    32    34   ar
    98    32    33   ar
    99    54    56   ar
   100   185   188    1
   101   185   186    1
   102    47    43   am
   103    53    55   ar
   104   101   103   ar
   105   101   100   ar
   106   197   195   ar
   107    82    81    2
   108    37    38    2
   109    37    41   am
   110   169   170    1
   111   103   105   ar
   112    56    55   ar
   113   188   189    1
   114    99   100    1
   115   191   189   ar
   116   191   193   ar
   117   100   102   ar
   118   186   187    2
   119   140   139    1
   120   172   170   ar
   121   172   174   ar
   122    41    42    1
   123    57    58    1
   124   138   137    2
   125   105   106    1
   126   105   104   ar
   127   170   171   ar
   128   189   190   ar
   129    43    42    1
   130    43    44    2
   131    81    80    1
   132   137   136    1
   133   102   104   ar
   134   195   193   ar
   135   193   192   ar
   136    80    79    1
   137    80    83    1
   138    42    45    1
   139   174   173   ar
   140   139   136    1
   141    58    61    1
   142    58    59    1
   143    84    83    1
   144    84    85    1
   145   171   173   ar
   146   190   192   ar
   147   136   135    1
   148    61    62    1
   149    60    59    2
   150    45    46    1
   151    85    86    1
   152    62    63    1
   153   120   118    1
   154   135   123   am
   155    63    64    1
   156   124   123    2
   157   123   122    1
   158   119   118    1
   159    64    65    2
   160    66    65    1
   161   112   111    1
   162   118   115    1
   163    65    67    1
   164   117   116    2
   165   122   121    1
   166   122   125    1
   167   116   121   am
   168   116   115    1
   169   111   113    1
   170   111   108    1
   171   115   114    1
   172   114   109   am
   173   125   126    1
   174   107   108    1
   175   109   108    1
   176   109   110    2
   177   126   127   ar
   178   126   128   ar
   179   127   129   ar
   180   129   130   ar
   181   128   131   ar
   182   128   130   ar
   183   131   133   ar
   184   130   132   ar
   185    73    72    1
   186    73    74    1
   187    72    69    1
   188   133   134   ar
   189    74    75    1
   190   132   134   ar
   191    75    76    2
   192    69    70    1
   193    69    68    1
   194    70    71    2
   195    76    78    1
   196    76    77    1
