@<TRIPOS>MOLECULE
tmp/5k5nB00.pdb
 182 172 0 0 0
SMALL
GASTEIGER

@<TRIPOS>ATOM
      1  N         28.0110   13.8460    7.8430 N.3    24  ILE24      -0.1245
      2  CA        27.8360   15.0620    8.6530 C.3    24  ILE24       0.1561
      3  C         26.4360   15.1480    9.2970 C.2    24  ILE24       0.2260
      4  O         26.2130   16.0040   10.1510 O.2    24  ILE24      -0.2867
      5  CB        28.2030   16.3690    7.8980 C.3    24  ILE24       0.0252
      6  CG1       27.3500   16.5650    6.6180 C.3    24  ILE24       0.0019
      7  CG2       29.7140   16.4460    7.6210 C.3    24  ILE24       0.0019
      8  CD1       27.2970   18.0100    6.0990 C.3    24  ILE24       0.0001
      9  N         14.7340   10.6190    6.6280 N.3    29  PHE29      -0.1241
     10  CA        14.9530   10.6910    5.1740 C.3    29  PHE29       0.1605
     11  C         16.1030    9.7850    4.7230 C.2    29  PHE29       0.2264
     12  O         15.9770    9.0890    3.7150 O.2    29  PHE29      -0.2867
     13  CB        15.2330   12.1560    4.7500 C.3    29  PHE29       0.0534
     14  CG        16.3380   12.8560    5.5200 C.ar   29  PHE29      -0.0203
     15  CD1       16.0560   13.5760    6.6750 C.ar   29  PHE29      -0.0042
     16  CD2       17.6590   12.8010    5.0830 C.ar   29  PHE29      -0.0042
     17  CE1       17.0750   14.2050    7.3940 C.ar   29  PHE29      -0.0003
     18  CE2       18.6810   13.4190    5.8120 C.ar   29  PHE29      -0.0003
     19  CZ        18.3820   14.1190    6.9600 C.ar   29  PHE29      -0.0000
     20  N         23.2540   12.5590    5.2660 N.3    32  VAL32      -0.1245
     21  CA        23.8590   13.7710    4.7000 C.3    32  VAL32       0.1561
     22  C         25.3840   13.6050    4.7520 C.2    32  VAL32       0.2260
     23  O         25.9410   13.3490    5.8200 O.2    32  VAL32      -0.2867
     24  CB        23.4110   15.0970    5.3730 C.3    32  VAL32       0.0252
     25  CG1       24.0290   16.3080    4.6690 C.3    32  VAL32       0.0019
     26  CG2       21.8930   15.2200    5.4020 C.3    32  VAL32       0.0019
     27  N         27.3910   19.2380   -0.0130 N.3    45  ALA45      -0.1245
     28  CA        26.6600   18.3910    0.9100 C.3    45  ALA45       0.1562
     29  C         25.8660   17.4590   -0.0040 C.2    45  ALA45       0.2260
     30  O         25.3830   17.9000   -1.0450 O.2    45  ALA45      -0.2867
     31  CB        25.7140   19.2120    1.7700 C.3    45  ALA45       0.0290
     32  N         22.7540   14.9150    0.1720 N.3    47  LYS47      -0.1245
     33  CA        21.6230   14.3990    0.9210 C.3    47  LYS47       0.1561
     34  C         21.1230   13.1630    0.1780 C.2    47  LYS47       0.2260
     35  O         20.6820   13.2680   -0.9670 O.2    47  LYS47      -0.2867
     36  CB        20.5340   15.4760    1.0740 C.3    47  LYS47       0.0271
     37  CG        19.3310   15.0350    1.9020 C.3    47  LYS47       0.0035
     38  CD        18.2250   16.0710    1.8570 C.3    47  LYS47       0.0206
     39  CE        17.0670   15.6810    2.7350 C.3    47  LYS47       0.1093
     40  NZ        15.9610   16.6620    2.6450 N.3    47  LYS47      -0.1314
     41  N         10.2810   16.2910   -3.3830 N.3    54  GLU54      -0.1245
     42  CA        11.3800   17.1680   -2.9780 C.3    54  GLU54       0.1567
     43  C         12.2280   17.5880   -4.1780 C.2    54  GLU54       0.2260
     44  O         12.5070   18.7800   -4.3330 O.2    54  GLU54      -0.2867
     45  CB        12.2370   16.5050   -1.8860 C.3    54  GLU54       0.0388
     46  CG        13.4330   17.3360   -1.4530 C.3    54  GLU54       0.1160
     47  CD        14.3270   16.7490   -0.3840 C.2    54  GLU54       0.3649
     48  OE1       14.1210   15.5750    0.0030 O.co2  54  GLU54      -0.2457
     49  OE2       15.2420   17.4740    0.0690 O.co2  54  GLU54      -0.2457
     50  N         12.9750   21.3440   -5.6270 N.3    58  MET58      -0.1245
     51  CA        14.3790   21.7820   -5.6920 C.3    58  MET58       0.1570
     52  C         14.8160   22.2520   -7.0700 C.2    58  MET58       0.2261
     53  O         15.5850   23.2070   -7.1610 O.2    58  MET58      -0.2867
     54  CB        15.3380   20.6660   -5.2170 C.3    58  MET58       0.0387
     55  CG        15.2080   20.2990   -3.7440 C.3    58  MET58       0.0595
     56  SD        15.5590   21.6740   -2.6390 S.3    58  MET58      -0.1393
     57  CE        17.3290   21.7080   -2.7350 C.3    58  MET58       0.0692
     58  N         19.4690   27.0740   -0.4760 N.3    67  VAL67      -0.1245
     59  CA        20.6030   26.1740   -0.7040 C.3    67  VAL67       0.1561
     60  C         20.6020   25.7560   -2.1760 C.2    67  VAL67       0.2260
     61  O         19.5560   25.3490   -2.6870 O.2    67  VAL67      -0.2867
     62  CB        20.6380   24.9620    0.2880 C.3    67  VAL67       0.0252
     63  CG1       19.4470   24.0230    0.0980 C.3    67  VAL67       0.0019
     64  CG2       21.9460   24.1880    0.1780 C.3    67  VAL67       0.0019
     65  N         20.9510   14.2640   -3.5790 N.3    87  LEU87      -0.1245
     66  CA        20.8930   15.6830   -3.9020 C.3    87  LEU87       0.1561
     67  C         22.2290   16.3010   -3.5270 C.2    87  LEU87       0.2260
     68  O         22.6540   16.2000   -2.3750 O.2    87  LEU87      -0.2867
     69  CB        19.7300   16.3680   -3.1500 C.3    87  LEU87       0.0270
     70  CG        18.3200   15.7980   -3.4170 C.3    87  LEU87       0.0019
     71  CD1       17.3790   16.1140   -2.2600 C.3    87  LEU87       0.0001
     72  CD2       17.7410   16.3180   -4.7210 C.3    87  LEU87       0.0001
     73  N         24.2510   19.5340   -2.9660 N.3    89  LEU89      -0.1231
     74  CA        24.0440   20.9440   -2.6390 C.3    89  LEU89       0.1693
     75  C         25.3410   21.6460   -2.3450 C.2    89  LEU89       0.2592
     76  O         26.2640   20.9930   -1.8750 O.2    89  LEU89      -0.2718
     77  CB        23.1300   21.0310   -1.4080 C.3    89  LEU89       0.0284
     78  CG        21.8950   20.1580   -1.4960 C.3    89  LEU89       0.0019
     79  CD1       21.6480   19.4220   -0.2400 C.3    89  LEU89       0.0001
     80  CD2       20.7210   20.8970   -2.0950 C.3    89  LEU89       0.0001
     81  N         25.4170   22.9800   -2.5740 N.am   90  ASP90      -0.1960
     82  CA        26.6140   23.7510   -2.2080 C.3    90  ASP90       0.1840
     83  C         26.7590   23.6930   -0.6950 C.2    90  ASP90       0.2622
     84  O         25.7690   23.8700    0.0120 O.2    90  ASP90      -0.2715
     85  CB        26.5200   25.2110   -2.6640 C.3    90  ASP90       0.1450
     86  CG        26.9060   25.4420   -4.1150 C.2    90  ASP90       0.3671
     87  OD1       27.8460   24.7690   -4.5980 O.co2  90  ASP90      -0.2456
     88  OD2       26.3190   26.3470   -4.7450 O.co2  90  ASP90      -0.2456
     89  N         27.9590   23.3610   -0.2010 N.am   91  TYR91      -0.1960
     90  CA        28.1630   23.2400    1.2390 C.3    91  TYR91       0.1771
     91  C         28.1690   24.5980    1.9200 C.2    91  TYR91       0.2619
     92  O         28.7940   25.5310    1.4250 O.2    91  TYR91      -0.2715
     93  CB        29.4410   22.4520    1.5640 C.3    91  TYR91       0.0574
     94  CG        29.6680   22.2380    3.0410 C.ar   91  TYR91      -0.0198
     95  CD1       28.9190   21.3050    3.7520 C.ar   91  TYR91      -0.0009
     96  CD2       30.6270   22.9730    3.7330 C.ar   91  TYR91      -0.0009
     97  CE1       29.1390   21.0870    5.1090 C.ar   91  TYR91       0.0417
     98  CE2       30.8430   22.7760    5.0980 C.ar   91  TYR91       0.0417
     99  CZ        30.0850   21.8400    5.7830 C.ar   91  TYR91       0.1957
    100  OH        30.2930   21.6270    7.1220 O.3    91  TYR91      -0.2866
    101  N         27.4180   24.7080    3.0220 N.am   92  VAL92      -0.1964
    102  CA        27.3330   25.9180    3.8550 C.3    92  VAL92       0.1712
    103  C         27.8140   25.4770    5.2510 C.2    92  VAL92       0.2458
    104  O         27.3060   24.4760    5.7410 O.2    92  VAL92      -0.2730
    105  CB        25.9400   26.6090    3.8200 C.3    92  VAL92       0.0289
    106  CG1       25.9760   27.9340    4.5640 C.3    92  VAL92       0.0023
    107  CG2       25.4860   26.8500    2.3820 C.3    92  VAL92       0.0023
    108  N         28.8600   26.1140    5.8440 N.am   93  PRO93      -0.2716
    109  CA        29.4700   25.5550    7.0740 C.3    93  PRO93       0.1536
    110  C         28.6960   25.6460    8.3930 C.2    93  PRO93       0.2598
    111  O         28.9920   24.8730    9.3140 O.2    93  PRO93      -0.2715
    112  CB        30.7990   26.3160    7.1910 C.3    93  PRO93       0.0310
    113  CG        30.5660   27.5990    6.4740 C.3    93  PRO93       0.0237
    114  CD        29.6260   27.2800    5.3450 C.3    93  PRO93       0.0939
    115  N         27.7620   26.5900    8.5210 N.am   94  GLU94      -0.1964
    116  CA        27.0390   26.7530    9.7780 C.3    94  GLU94       0.1733
    117  C         25.5320   26.8000    9.6080 C.2    94  GLU94       0.2617
    118  O         25.0230   26.7420    8.4870 O.2    94  GLU94      -0.2715
    119  CB        27.5340   28.0220   10.5150 C.3    94  GLU94       0.0429
    120  CG        28.8780   27.8860   11.2230 C.3    94  GLU94       0.1163
    121  CD        28.9870   26.8570   12.3340 C.2    94  GLU94       0.3649
    122  OE1       27.9470   26.4980   12.9300 O.co2  94  GLU94      -0.2457
    123  OE2       30.1240   26.4100   12.6100 O.co2  94  GLU94      -0.2457
    124  N         24.8170   26.8780   10.7410 N.am   95  THR95      -0.1951
    125  CA        23.3650   27.0310   10.7960 C.3    95  THR95       0.1897
    126  C         23.0790   28.1090   11.8330 C.2    95  THR95       0.2313
    127  O         23.9270   28.3580   12.7010 O.2    95  THR95      -0.2863
    128  CB        22.6400   25.7320   11.1930 C.3    95  THR95       0.1794
    129  OG1       22.9360   25.4150   12.5550 O.3    95  THR95      -0.2208
    130  CG2       22.9220   24.5480   10.2460 C.3    95  THR95       0.0378
    131  N         23.2900   26.5340   15.5430 N.3    98  ARG98      -0.1245
    132  CA        24.6410   26.4010   16.0970 C.3    98  ARG98       0.1563
    133  C         25.2380   27.7390   16.5100 C.2    98  ARG98       0.2260
    134  O         25.8570   27.8230   17.5710 O.2    98  ARG98      -0.2867
    135  CB        25.5590   25.6880   15.1000 C.3    98  ARG98       0.0307
    136  CG        25.2370   24.2040   14.9360 C.3    98  ARG98       0.0489
    137  CD        25.6570   23.6880   13.5740 C.3    98  ARG98       0.2205
    138  NE        27.0860   23.8810   13.3140 N.pl3  98  ARG98      -0.0865
    139  CZ        28.0270   22.9840   13.5840 C.cat  98  ARG98       0.5346
    140  NH1       27.7050   21.8180   14.1320 N.pl3  98  ARG98       0.1354
    141  NH2       29.2970   23.2430   13.3060 N.pl3  98  ARG98       0.1354
    142  N         17.4010   24.3980   10.0040 N.3   143  ASN143     -0.1240
    143  CA        17.2110   24.3970    8.5480 C.3   143  ASN143      0.1653
    144  C         17.5830   25.7370    7.9010 C.2   143  ASN143      0.2266
    145  O         17.2640   25.9860    6.7410 O.2   143  ASN143     -0.2867
    146  CB        15.7860   23.9400    8.1830 C.3   143  ASN143      0.1155
    147  CG        15.5590   22.4720    8.4780 C.2   143  ASN143      0.2627
    148  OD1       16.4990   21.6830    8.5680 O.2   143  ASN143     -0.2716
    149  ND2       14.3080   22.0560    8.5750 N.am  143  ASN143     -0.0877
    150  N         20.8260   27.5810    6.9790 N.3   145  LEU145     -0.1245
    151  CA        22.2690   27.5080    6.7900 C.3   145  LEU145      0.1561
    152  C         22.8740   28.9030    6.7860 C.2   145  LEU145      0.2260
    153  O         22.2480   29.8410    6.2870 O.2   145  LEU145     -0.2867
    154  CB        22.6330   26.7700    5.4870 C.3   145  LEU145      0.0270
    155  CG        22.1730   25.3100    5.2980 C.3   145  LEU145      0.0019
    156  CD1       22.3870   24.8810    3.8480 C.3   145  LEU145      0.0001
    157  CD2       22.9100   24.3520    6.2230 C.3   145  LEU145      0.0001
    158  N         17.2540   25.5630    3.8390 N.3   156  CYS156     -0.1221
    159  CA        17.5040   24.2010    3.3620 C.3   156  CYS156      0.1808
    160  C         16.4530   23.2080    3.8510 C.2   156  CYS156      0.2601
    161  O         15.5410   23.5780    4.5980 O.2   156  CYS156     -0.2717
    162  CB        18.9210   23.7400    3.7100 C.3   156  CYS156      0.0970
    163  SG        19.1250   23.1890    5.4220 S.3   156  CYS156     -0.0800
    164  N         16.6410   21.9270    3.4750 N.am  157  ASP157     -0.1959
    165  CA        15.8070   20.7850    3.8180 C.3   157  ASP157      0.1840
    166  C         14.3750   20.9700    3.3480 C.2   157  ASP157      0.2622
    167  O         13.4880   21.3540    4.1220 O.2   157  ASP157     -0.2715
    168  CB        15.8940   20.4030    5.3160 C.3   157  ASP157      0.1450
    169  CG        15.2390   19.0670    5.6420 C.2   157  ASP157      0.3671
    170  OD1       14.9740   18.2840    4.6990 O.co2 157  ASP157     -0.2456
    171  OD2       14.9960   18.8040    6.8310 O.co2 157  ASP157     -0.2456
    172  N         14.1610   20.6450    2.0770 N.am  158  PHE158     -0.1974
    173  CA        12.8530   20.7030    1.4330 C.3   158  PHE158      0.1639
    174  C         12.1460   19.3320    1.4770 C.2   158  PHE158      0.2290
    175  O         11.1810   19.1140    0.7420 O.2   158  PHE158     -0.2864
    176  CB        12.9670   21.3070    0.0100 C.3   158  PHE158      0.0560
    177  CG        13.2120   22.8000    0.0220 C.ar  158  PHE158     -0.0200
    178  CD1       14.4900   23.3120    0.2310 C.ar  158  PHE158     -0.0042
    179  CD2       12.1570   23.6960   -0.1180 C.ar  158  PHE158     -0.0042
    180  CE1       14.7120   24.6940    0.2540 C.ar  158  PHE158     -0.0003
    181  CE2       12.3770   25.0780   -0.0700 C.ar  158  PHE158     -0.0003
    182  CZ        13.6510   25.5670    0.1130 C.ar  158  PHE158     -0.0000
@<TRIPOS>BOND
     1    53    52    2
     2    52    51    1
     3    51    50    1
     4    51    54    1
     5    54    55    1
     6    88    86   ar
     7    72    70    1
     8    87    86   ar
     9    44    43    2
    10    43    42    1
    11    86    85    1
    12    66    65    1
    13    66    67    1
    14    66    69    1
    15    55    56    1
    16    67    68    2
    17    70    69    1
    18    70    71    1
    19    41    42    1
    20    42    45    1
    21    73    74    1
    22    57    56    1
    23    61    60    2
    24    85    82    1
    25    74    75    1
    26    74    77    1
    27    81    75   am
    28    81    82    1
    29    75    76    2
    30    82    83    1
    31    60    59    1
    32    80    78    1
    33    45    46    1
    34    78    77    1
    35    78    79    1
    36    46    47    1
    37    30    29    2
    38    35    34    2
    39    59    58    1
    40    59    62    1
    41    83    89   am
    42    83    84    2
    43    47    48   ar
    44    47    49   ar
    45    89    90    1
    46   179   181   ar
    47   179   177   ar
    48   181   182   ar
    49    27    28    1
    50    29    28    1
    51   176   177    1
    52   176   173    1
    53   177   178   ar
    54    63    62    1
    55   182   180   ar
    56    32    33    1
    57    34    33    1
    58    64    62    1
    59   178   180   ar
    60   175   174    2
    61    28    31    1
    62    33    36    1
    63    36    37    1
    64    90    93    1
    65    90    91    1
    66    92    91    2
    67   173   174    1
    68   173   172    1
    69    93    94    1
    70    38    37    1
    71    38    39    1
    72    91   101   am
    73   172   166   am
    74   107   105    1
    75    40    39    1
    76   101   102    1
    77    94    96   ar
    78    94    95   ar
    79   166   165    1
    80   166   167    2
    81   159   162    1
    82   159   158    1
    83   159   160    1
    84   164   165    1
    85   164   160   am
    86   162   163    1
    87    12    11    2
    88    96    98   ar
    89    95    97   ar
    90   165   168    1
    91   105   102    1
    92   105   106    1
    93   156   155    1
    94   160   161    2
    95   102   103    1
    96    25    24    1
    97   170   169   ar
    98    21    22    1
    99    21    20    1
   100    21    24    1
   101    11    10    1
   102    13    10    1
   103    13    14    1
   104    22    23    2
   105    16    14   ar
   106    16    18   ar
   107    98    99   ar
   108    97    99   ar
   109    10     9    1
   110   103   104    2
   111   103   108   am
   112   155   154    1
   113   155   157    1
   114   168   169    1
   115   114   108    1
   116   114   113    1
   117    24    26    1
   118   154   151    1
   119    14    15   ar
   120   169   171   ar
   121    99   100    1
   122    18    19   ar
   123   108   109    1
   124     8     6    1
   125   153   152    2
   126   113   112    1
   127     6     5    1
   128    15    17   ar
   129   145   144    2
   130   152   151    1
   131   151   150    1
   132    19    17   ar
   133   109   112    1
   134   109   110    1
   135     7     5    1
   136     1     2    1
   137     5     2    1
   138   144   143    1
   139   146   147    1
   140   146   143    1
   141   110   115   am
   142   110   111    2
   143   147   148    2
   144   147   149   am
   145   118   117    2
   146   115   116    1
   147   143   142    1
   148     2     3    1
   149     3     4    2
   150   117   116    1
   151   117   124   am
   152   116   119    1
   153   130   128    1
   154   119   120    1
   155   124   125    1
   156   125   128    1
   157   125   126    1
   158   128   129    1
   159   120   121    1
   160   126   127    2
   161   121   123   ar
   162   121   122   ar
   163   141   139    1
   164   138   137    1
   165   138   139    2
   166   137   136    1
   167   139   140    1
   168   136   135    1
   169   135   132    1
   170   131   132    1
   171   132   133    1
   172   133   134    2
