@<TRIPOS>MOLECULE
tmp/5k5sB01.pdb
 113 108 0 0 0
SMALL
GASTEIGER

@<TRIPOS>ATOM
      1  N        189.6690   18.7560  198.4320 N.3   171  ARG171     -0.1231
      2  CA       191.0220   19.0240  197.9440 C.3   171  ARG171      0.1694
      3  C        191.2770   18.4940  196.5360 C.2   171  ARG171      0.2592
      4  O        192.1550   17.6430  196.3340 O.2   171  ARG171     -0.2718
      5  CB       192.0970   18.5330  198.9360 C.3   171  ARG171      0.0321
      6  CG       192.1230   19.3290  200.2280 C.3   171  ARG171      0.0489
      7  CD       193.1850   18.8410  201.1770 C.3   171  ARG171      0.2205
      8  NE       193.1440   19.6090  202.4180 N.pl3 171  ARG171     -0.0865
      9  CZ       193.9980   19.4550  203.4260 C.cat 171  ARG171      0.5346
     10  NH1      194.9690   18.5530  203.3520 N.pl3 171  ARG171      0.1354
     11  NH2      193.8830   20.2010  204.5160 N.pl3 171  ARG171      0.1354
     12  N        190.4910   18.9930  195.5650 N.am  172  TRP172     -0.1962
     13  CA       190.6400   18.6830  194.1460 C.3   172  TRP172      0.1771
     14  C        191.0970   19.9620  193.4640 C.2   172  TRP172      0.2619
     15  O        190.6220   21.0390  193.8170 O.2   172  TRP172     -0.2715
     16  CB       189.3110   18.2500  193.5100 C.3   172  TRP172      0.0590
     17  CG       188.6210   17.0500  194.0970 C.ar  172  TRP172      0.0006
     18  CD1      189.1390   15.7950  194.2510 C.ar  172  TRP172      0.0946
     19  CD2      187.2220   16.9470  194.4060 C.ar  172  TRP172      0.0152
     20  NE1      188.1700   14.9400  194.7200 N.ar  172  TRP172     -0.2442
     21  CE2      186.9770   15.6140  194.8010 C.ar  172  TRP172      0.0810
     22  CE3      186.1490   17.8540  194.3820 C.ar  172  TRP172      0.0012
     23  CZ2      185.7090   15.1760  195.1900 C.ar  172  TRP172      0.0191
     24  CZ3      184.8910   17.4200  194.7750 C.ar  172  TRP172      0.0001
     25  CH2      184.6830   16.0970  195.1810 C.ar  172  TRP172      0.0015
     26  N        192.0120   19.8700  192.5010 N.am  173  ASN173     -0.1972
     27  CA       192.4750   21.0690  191.8030 C.3   173  ASN173      0.1688
     28  C        192.2700   20.9960  190.2840 C.2   173  ASN173      0.2292
     29  O        192.5840   21.9480  189.5770 O.2   173  ASN173     -0.2864
     30  CB       193.9330   21.4080  192.1690 C.3   173  ASN173      0.1181
     31  CG       195.0030   20.5110  191.6130 C.2   173  ASN173      0.2629
     32  OD1      194.9650   20.0580  190.4620 O.2   173  ASN173     -0.2716
     33  ND2      196.0510   20.3600  192.3940 N.am  173  ASN173     -0.0877
     34  N        192.4200   28.5300  193.9220 N.3   200  ASP200     -0.1239
     35  CA       193.4990   27.8840  193.1720 C.3   200  ASP200      0.1674
     36  C        193.1170   26.5030  192.5990 C.2   200  ASP200      0.2266
     37  O        193.8810   25.5400  192.7170 O.2   200  ASP200     -0.2867
     38  CB       194.8000   27.8330  194.0070 C.3   200  ASP200      0.1410
     39  CG       195.3090   29.1940  194.4690 C.2   200  ASP200      0.3668
     40  OD1      195.1030   30.1930  193.7320 O.co2 200  ASP200     -0.2456
     41  OD2      195.9210   29.2600  195.5630 O.co2 200  ASP200     -0.2456
     42  N        190.5970   10.8880  193.4960 N.3   474  PHE474     -0.1241
     43  CA       191.7120   11.7510  193.1500 C.3   474  PHE474      0.1605
     44  C        191.3240   12.5370  191.8860 C.2   474  PHE474      0.2264
     45  O        190.8880   11.9400  190.8990 O.2   474  PHE474     -0.2867
     46  CB       192.9950   10.9210  192.9170 C.3   474  PHE474      0.0534
     47  CG       194.1450   11.7020  192.3240 C.ar  474  PHE474     -0.0203
     48  CD1      194.9580   12.4930  193.1280 C.ar  474  PHE474     -0.0042
     49  CD2      194.4090   11.6510  190.9580 C.ar  474  PHE474     -0.0042
     50  CE1      196.0070   13.2250  192.5780 C.ar  474  PHE474     -0.0003
     51  CE2      195.4610   12.3850  190.4080 C.ar  474  PHE474     -0.0003
     52  CZ       196.2460   13.1740  191.2210 C.ar  474  PHE474     -0.0000
     53  N        193.3410   15.7710  190.8920 N.3   476  ASN476     -0.1240
     54  CA       194.3660   16.8050  190.7860 C.3   476  ASN476      0.1653
     55  C        195.0360   16.5380  189.4300 C.2   476  ASN476      0.2266
     56  O        194.9130   15.4330  188.8990 O.2   476  ASN476     -0.2867
     57  CB       195.3880   16.7480  191.9520 C.3   476  ASN476      0.1155
     58  CG       194.8670   17.1030  193.3330 C.2   476  ASN476      0.2627
     59  OD1      193.6790   16.9500  193.6320 O.2   476  ASN476     -0.2716
     60  ND2      195.7650   17.5610  194.2250 N.am  476  ASN476     -0.0877
     61  N        200.2100   14.2370  190.5990 N.3   479  ARG479     -0.1231
     62  CA       200.3100   13.6270  191.9400 C.3   479  ARG479      0.1694
     63  C        201.2610   14.5050  192.7480 C.2   479  ARG479      0.2592
     64  O        202.2200   15.0290  192.1730 O.2   479  ARG479     -0.2718
     65  CB       200.8940   12.1920  191.8930 C.3   479  ARG479      0.0321
     66  CG       200.0950   11.1260  191.1140 C.3   479  ARG479      0.0489
     67  CD       198.7070   10.7940  191.6660 C.3   479  ARG479      0.2205
     68  NE       198.7090   10.3240  193.0530 N.pl3 479  ARG479     -0.0865
     69  CZ       198.2490    9.1390  193.4480 C.cat 479  ARG479      0.5346
     70  NH1      198.2830    8.8010  194.7290 N.pl3 479  ARG479      0.1354
     71  NH2      197.7510    8.2840  192.5610 N.pl3 479  ARG479      0.1354
     72  N        200.9970   14.6780  194.0590 N.am  480  ASP480     -0.1974
     73  CA       201.8180   15.5000  194.9510 C.3   480  ASP480      0.1709
     74  C        203.2850   15.1010  194.9880 C.2   480  ASP480      0.2293
     75  O        203.6030   13.9110  194.9270 O.2   480  ASP480     -0.2864
     76  CB       201.2370   15.5300  196.3680 C.3   480  ASP480      0.1436
     77  CG       200.0470   16.4320  196.5170 C.2   480  ASP480      0.3671
     78  OD1      199.4780   16.8430  195.4760 O.co2 480  ASP480     -0.2456
     79  OD2      199.6680   16.7300  197.6820 O.co2 480  ASP480     -0.2456
     80  N        208.6740   20.9010  193.2010 N.3   487  LYS487     -0.1245
     81  CA       207.7520   21.2220  192.1150 C.3   487  LYS487      0.1561
     82  C        208.4760   21.9540  190.9900 C.2   487  LYS487      0.2260
     83  O        209.1850   22.9360  191.2430 O.2   487  LYS487     -0.2867
     84  CB       206.6060   22.0940  192.6270 C.3   487  LYS487      0.0271
     85  CG       205.4040   21.3540  193.1680 C.3   487  LYS487      0.0035
     86  CD       204.3190   22.3810  193.5000 C.3   487  LYS487      0.0206
     87  CE       203.1720   21.7460  194.2360 C.3   487  LYS487      0.1093
     88  NZ       202.0670   22.6880  194.5320 N.3   487  LYS487     -0.1314
     89  N        198.4250   24.0260  188.3570 N.3   496  CYS496     -0.1235
     90  CA       198.0430   22.7540  189.0010 C.3   496  CYS496      0.1677
     91  C        198.8040   21.5670  188.4190 C.2   496  CYS496      0.2270
     92  O        198.8300   20.4970  189.0240 O.2   496  CYS496     -0.2867
     93  CB       196.5400   22.5220  188.9050 C.3   496  CYS496      0.0956
     94  SG       195.5330   23.8320  189.6370 S.3   496  CYS496     -0.0801
     95  N        202.2760   20.1480  187.4570 N.3   498  PHE498     -0.1241
     96  CA       203.6980   20.2280  187.7910 C.3   498  PHE498      0.1605
     97  C        204.4730   18.9150  187.6530 C.2   498  PHE498      0.2264
     98  O        203.9020   17.8230  187.7010 O.2   498  PHE498     -0.2867
     99  CB       203.8860   20.7980  189.2120 C.3   498  PHE498      0.0534
    100  CG       203.0800   20.0950  190.2830 C.ar  498  PHE498     -0.0203
    101  CD1      203.5200   18.8940  190.8380 C.ar  498  PHE498     -0.0042
    102  CD2      201.8990   20.6410  190.7580 C.ar  498  PHE498     -0.0042
    103  CE1      202.7740   18.2410  191.8260 C.ar  498  PHE498     -0.0003
    104  CE2      201.1560   19.9880  191.7510 C.ar  498  PHE498     -0.0003
    105  CZ       201.6000   18.7930  192.2780 C.ar  498  PHE498     -0.0000
    106  N        205.1300   18.7340  198.4530 N.3   513  ASP513     -0.1239
    107  CA       204.7410   19.8370  197.5490 C.3   513  ASP513      0.1674
    108  C        205.6150   21.0970  197.7470 C.2   513  ASP513      0.2266
    109  O        205.1060   22.2200  197.7880 O.2   513  ASP513     -0.2867
    110  CB       203.2300   20.1510  197.6210 C.3   513  ASP513      0.1410
    111  CG       202.3610   19.3040  196.7130 C.2   513  ASP513      0.3668
    112  OD1      202.9180   18.5720  195.8700 O.co2 513  ASP513     -0.2456
    113  OD2      201.1250   19.3950  196.8300 O.co2 513  ASP513     -0.2456
@<TRIPOS>BOND
     1    95    96    1
     2    97    98    2
     3    97    96    1
     4    96    99    1
     5    89    90    1
     6    91    90    1
     7    91    92    2
     8    56    55    2
     9    93    90    1
    10    93    94    1
    11    99   100    1
    12    55    54    1
    13    29    28    2
    14   100   102   ar
    15   100   101   ar
    16    28    27    1
    17    51    49   ar
    18    51    52   ar
    19    32    31    2
    20    61    62    1
    21   102   104   ar
    22    54    53    1
    23    54    57    1
    24   101   103   ar
    25    45    44    2
    26    49    47   ar
    27    82    83    2
    28    82    81    1
    29    66    67    1
    30    66    65    1
    31    52    50   ar
    32    31    30    1
    33    31    33   am
    34    67    68    1
    35   104   105   ar
    36    27    30    1
    37    27    26    1
    38   103   105   ar
    39    44    43    1
    40    65    62    1
    41    62    63    1
    42    57    58    1
    43    81    84    1
    44    81    80    1
    45    64    63    2
    46    47    46    1
    47    47    48   ar
    48    26    14   am
    49    71    69    1
    50    50    48   ar
    51    36    37    2
    52    36    35    1
    53    84    85    1
    54    63    72   am
    55    46    43    1
    56    68    69    2
    57    43    42    1
    58    85    86    1
    59    35    34    1
    60    35    38    1
    61    58    59    2
    62    58    60   am
    63    69    70    1
    64    14    15    2
    65    14    13    1
    66    86    87    1
    67    16    17    1
    68    16    13    1
    69    40    39   ar
    70    38    39    1
    71    72    73    1
    72    17    18   ar
    73    17    19   ar
    74    13    12    1
    75    87    88    1
    76    18    20   ar
    77    22    19   ar
    78    22    24   ar
    79    19    21   ar
    80    39    41   ar
    81    20    21   ar
    82    24    25   ar
    83    21    23   ar
    84    75    74    2
    85    73    74    1
    86    73    76    1
    87    25    23   ar
    88    78    77   ar
    89    12     3   am
    90   112   111   ar
    91     4     3    2
    92    76    77    1
    93    77    79   ar
    94     3     2    1
    95   111   113   ar
    96   111   110    1
    97   107   110    1
    98   107   108    1
    99   107   106    1
   100   108   109    2
   101     2     1    1
   102     2     5    1
   103     5     6    1
   104     6     7    1
   105     7     8    1
   106     8     9    2
   107    10     9    1
   108     9    11    1
