@<TRIPOS>MOLECULE
tmp/5k5sB00.pdb
 142 136 0 0 0
SMALL
GASTEIGER

@<TRIPOS>ATOM
      1  N        156.1830   25.0590  182.2240 N.3    18  PRO18      -0.2116
      2  CA       156.6170   24.1480  181.1710 C.3    18  PRO18       0.1372
      3  C        155.8320   22.8340  181.2950 C.2    18  PRO18       0.2244
      4  O        156.2800   21.8890  181.9490 O.2    18  PRO18      -0.2868
      5  CB       158.1230   23.9940  181.4400 C.3    18  PRO18       0.0268
      6  CG       158.3130   24.3500  182.8820 C.3    18  PRO18       0.0207
      7  CD       157.0360   24.9150  183.4240 C.3    18  PRO18       0.0892
      8  N        158.3860   19.6630  177.8120 N.3    21  PHE21      -0.1241
      9  CA       159.8160   19.9060  177.9420 C.3    21  PHE21       0.1605
     10  C        160.4150   20.6880  176.7730 C.2    21  PHE21       0.2264
     11  O        161.4270   21.3570  176.9530 O.2    21  PHE21      -0.2867
     12  CB       160.5800   18.5880  178.1700 C.3    21  PHE21       0.0534
     13  CG       160.4370   18.0000  179.5550 C.ar   21  PHE21      -0.0203
     14  CD1      161.0470   18.5970  180.6470 C.ar   21  PHE21      -0.0042
     15  CD2      159.7210   16.8340  179.7590 C.ar   21  PHE21      -0.0042
     16  CE1      160.9150   18.0590  181.9310 C.ar   21  PHE21      -0.0003
     17  CE2      159.6100   16.2800  181.0390 C.ar   21  PHE21      -0.0003
     18  CZ       160.2200   16.8910  182.1130 C.ar   21  PHE21      -0.0000
     19  N        155.8550   17.0100  186.4630 N.3    45  ARG45      -0.1245
     20  CA       156.3610   17.9140  187.5020 C.3    45  ARG45       0.1563
     21  C        155.9030   19.3490  187.1860 C.2    45  ARG45       0.2260
     22  O        155.3990   20.0400  188.0720 O.2    45  ARG45      -0.2867
     23  CB       157.8900   17.8320  187.5850 C.3    45  ARG45       0.0307
     24  CG       158.4870   18.5650  188.7790 C.3    45  ARG45       0.0489
     25  CD       159.9890   18.3680  188.8460 C.3    45  ARG45       0.2205
     26  NE       160.5990   19.1690  189.9080 N.pl3  45  ARG45      -0.0865
     27  CZ       161.9050   19.3640  190.0340 C.cat  45  ARG45       0.5346
     28  NH1      162.7530   18.8490  189.1620 N.pl3  45  ARG45       0.1354
     29  NH2      162.3720   20.1160  191.0280 N.pl3  45  ARG45       0.1354
     30  N        153.3600   21.9250  189.2310 N.3    49  TRP49      -0.1241
     31  CA       153.6480   23.3270  189.5720 C.3    49  TRP49       0.1605
     32  C        152.4850   24.2050  189.1650 C.2    49  TRP49       0.2264
     33  O        152.1500   25.1330  189.8930 O.2    49  TRP49      -0.2867
     34  CB       154.9320   23.8380  188.9020 C.3    49  TRP49       0.0550
     35  CG       156.1870   23.0870  189.2280 C.ar   49  TRP49       0.0003
     36  CD1      156.3910   22.1940  190.2470 C.ar   49  TRP49       0.0946
     37  CD2      157.4370   23.2100  188.5440 C.ar   49  TRP49       0.0152
     38  NE1      157.6750   21.7090  190.1960 N.ar   49  TRP49      -0.2442
     39  CE2      158.3440   22.3240  189.1660 C.ar   49  TRP49       0.0810
     40  CE3      157.8680   23.9590  187.4370 C.ar   49  TRP49       0.0012
     41  CZ2      159.6670   22.1910  188.7320 C.ar   49  TRP49       0.0191
     42  CZ3      159.1680   23.8120  187.0000 C.ar   49  TRP49       0.0001
     43  CH2      160.0610   22.9550  187.6550 C.ar   49  TRP49       0.0015
     44  N        159.1000   25.1720  177.6230 N.3    81  ASN81      -0.1240
     45  CA       160.4900   25.5880  177.8570 C.3    81  ASN81       0.1653
     46  C        161.0650   26.3830  176.6650 C.2    81  ASN81       0.2266
     47  O        162.2580   26.2870  176.3730 O.2    81  ASN81      -0.2867
     48  CB       161.4050   24.4030  178.2330 C.3    81  ASN81       0.1155
     49  CG       161.4500   24.0810  179.6980 C.2    81  ASN81       0.2627
     50  OD1      161.6090   24.9560  180.5580 O.2    81  ASN81      -0.2716
     51  ND2      161.3950   22.7970  180.0080 N.am   81  ASN81      -0.0877
     52  N        160.0790   29.4220  184.2080 N.3   111  THR111     -0.1203
     53  CA       161.0380   28.5000  184.8060 C.3   111  THR111      0.1994
     54  C        162.4700   28.8360  184.3680 C.2   111  THR111      0.2618
     55  O        163.3060   29.1870  185.2020 O.2   111  THR111     -0.2717
     56  CB       160.6380   27.0540  184.4950 C.3   111  THR111      0.1784
     57  OG1      159.2560   26.9090  184.7930 O.3   111  THR111     -0.2211
     58  CG2      161.4210   26.0420  185.2990 C.3   111  THR111      0.0376
     59  N        162.7340   28.6990  183.0730 N.am  112  GLY112     -0.1942
     60  CA       164.0450   28.9750  182.4930 C.3   112  GLY112      0.2014
     61  C        164.3200   30.4550  182.4240 C.2   112  GLY112      0.2639
     62  O        163.4550   31.2450  182.0020 O.2   112  GLY112     -0.2714
     63  N        165.5450   30.8410  182.8490 N.am  113  SER113     -0.1949
     64  CA       166.0100   32.2300  182.8810 C.3   113  SER113      0.1924
     65  C        165.9360   32.8960  181.5020 C.2   113  SER113      0.2314
     66  O        165.5070   34.0490  181.4130 O.2   113  SER113     -0.2863
     67  CB       167.4010   32.3140  183.4590 C.3   113  SER113      0.2116
     68  OG       167.4040   31.9480  184.8420 O.3   113  SER113     -0.2180
     69  N        161.2970   29.8560  189.5940 N.3   134  ALA134     -0.1231
     70  CA       162.4680   29.0190  189.2750 C.3   134  ALA134      0.1694
     71  C        163.6400   29.7060  188.5280 C.2   134  ALA134      0.2593
     72  O        164.7390   29.1230  188.4950 O.2   134  ALA134     -0.2718
     73  CB       162.0290   27.7810  188.5110 C.3   134  ALA134      0.0304
     74  N        163.4340   30.9050  187.9270 N.am  135  SER135     -0.1938
     75  CA       164.5180   31.5820  187.1970 C.3   135  SER135      0.2055
     76  C        165.5120   32.2010  188.1760 C.2   135  SER135      0.2643
     77  O        165.1780   33.1530  188.8600 O.2   135  SER135     -0.2714
     78  CB       163.9800   32.5810  186.1810 C.3   135  SER135      0.2130
     79  OG       163.2490   31.9000  185.1780 O.3   135  SER135     -0.2179
     80  N        166.7110   31.6090  188.2640 N.am  136  SER136     -0.1949
     81  CA       167.7670   31.9390  189.2230 C.3   136  SER136      0.1924
     82  C        168.9960   32.6910  188.6630 C.2   136  SER136      0.2314
     83  O        169.9380   32.9480  189.4270 O.2   136  SER136     -0.2863
     84  CB       168.2230   30.6630  189.9300 C.3   136  SER136      0.2116
     85  OG       168.7480   29.7400  188.9930 O.3   136  SER136     -0.2180
     86  N        171.1440   30.9220  181.9920 N.3   184  TYR184     -0.1241
     87  CA       171.2540   30.2230  183.2680 C.3   184  TYR184      0.1605
     88  C        172.6480   29.5970  183.4370 C.2   184  TYR184      0.2264
     89  O        173.3630   29.9350  184.3700 O.2   184  TYR184     -0.2867
     90  CB       170.1350   29.1830  183.4210 C.3   184  TYR184      0.0534
     91  CG       170.3240   28.1890  184.5530 C.ar  184  TYR184     -0.0201
     92  CD1      170.2680   28.5940  185.8830 C.ar  184  TYR184     -0.0009
     93  CD2      170.5280   26.8390  184.2950 C.ar  184  TYR184     -0.0009
     94  CE1      170.4170   27.6810  186.9260 C.ar  184  TYR184      0.0417
     95  CE2      170.6930   25.9180  185.3300 C.ar  184  TYR184      0.0417
     96  CZ       170.6260   26.3430  186.6450 C.ar  184  TYR184      0.1957
     97  OH       170.7770   25.4380  187.6730 O.3   184  TYR184     -0.2866
     98  N        169.9220   22.6760  183.0380 N.3   238  SER238     -0.1202
     99  CA       168.6250   22.0910  183.3720 C.3   238  SER238      0.2020
    100  C        168.6700   20.6400  182.8610 C.2   238  SER238      0.2619
    101  O        169.5810   20.2760  182.1010 O.2   238  SER238     -0.2717
    102  CB       167.4990   22.8490  182.6710 C.3   238  SER238      0.2103
    103  OG       167.6440   22.8020  181.2610 O.3   238  SER238     -0.2182
    104  N        167.6940   19.8320  183.2790 N.am  239  GLY239     -0.1942
    105  CA       167.5540   18.4470  182.8420 C.3   239  GLY239      0.1998
    106  C        167.4240   18.3370  181.3340 C.2   239  GLY239      0.2480
    107  O        168.2390   17.6430  180.7140 O.2   239  GLY239     -0.2729
    108  N        166.4760   19.0750  180.6880 N.am  240  PRO240     -0.2726
    109  CA       166.3530   18.9700  179.2230 C.3   240  PRO240      0.1402
    110  C        167.6130   19.3200  178.4430 C.2   240  PRO240      0.2269
    111  O        167.9020   18.6370  177.4640 O.2   240  PRO240     -0.2865
    112  CB       165.2100   19.9210  178.8930 C.3   240  PRO240      0.0296
    113  CG       164.4370   20.0500  180.1610 C.3   240  PRO240      0.0237
    114  CD       165.4340   19.9640  181.2500 C.3   240  PRO240      0.0939
    115  N        171.3220   23.1250  190.8570 N.3   263  GLU263     -0.1231
    116  CA       169.9920   22.8980  191.4220 C.3   263  GLU263      0.1699
    117  C        168.9530   22.4770  190.3620 C.2   263  GLU263      0.2592
    118  O        168.1140   21.6300  190.6570 O.2   263  GLU263     -0.2718
    119  CB       169.5270   24.1180  192.2350 C.3   263  GLU263      0.0402
    120  CG       168.1870   23.9730  192.9370 C.3   263  GLU263      0.1161
    121  CD       167.0220   24.4640  192.0970 C.2   263  GLU263      0.3649
    122  OE1      167.1410   25.5460  191.4760 O.co2 263  GLU263     -0.2457
    123  OE2      166.0140   23.7260  192.0000 O.co2 263  GLU263     -0.2457
    124  N        169.0460   23.0050  189.1290 N.am  264  ALA264     -0.1980
    125  CA       168.1050   22.6640  188.0660 C.3   264  ALA264      0.1597
    126  C        168.0830   21.1900  187.6760 C.2   264  ALA264      0.2287
    127  O        167.0090   20.6780  187.3850 O.2   264  ALA264     -0.2864
    128  CB       168.3410   23.5320  186.8460 C.3   264  ALA264      0.0319
    129  N        166.3350   16.2960  188.6890 N.3   268  SER268     -0.1217
    130  CA       165.6620   16.1030  187.4140 C.3   268  SER268      0.1889
    131  C        165.3890   14.6490  187.1200 C.2   268  SER268      0.2288
    132  O        166.3080   13.8320  187.1080 O.2   268  SER268     -0.2866
    133  CB       166.4800   16.7130  186.2850 C.3   268  SER268      0.2089
    134  OG       165.8120   16.5790  185.0460 O.3   268  SER268     -0.2183
    135  N        160.1890   23.7170  194.2700 N.3   351  ILE351     -0.1245
    136  CA       159.7670   24.6440  193.2090 C.3   351  ILE351      0.1561
    137  C        158.2550   24.8090  193.3070 C.2   351  ILE351      0.2260
    138  O        157.7700   25.9370  193.1660 O.2   351  ILE351     -0.2867
    139  CB       160.2270   24.2250  191.7780 C.3   351  ILE351      0.0252
    140  CG1      161.7730   23.9920  191.6790 C.3   351  ILE351      0.0019
    141  CG2      159.7290   25.2100  190.6980 C.3   351  ILE351      0.0019
    142  CD1      162.7150   25.2420  191.7810 C.3   351  ILE351      0.0001
@<TRIPOS>BOND
     1    47    46    2
     2    46    45    1
     3    10    11    2
     4    10     9    1
     5   111   110    2
     6    44    45    1
     7     8     9    1
     8    45    48    1
     9     9    12    1
    10    12    13    1
    11    48    49    1
    12   110   109    1
    13   112   109    1
    14   112   113    1
    15   109   108    1
    16    13    15   ar
    17    13    14   ar
    18    49    51   am
    19    49    50    2
    20    15    17   ar
    21   113   114    1
    22    14    16   ar
    23   108   114    1
    24   108   106   am
    25   107   106    2
    26    17    18   ar
    27     2     3    1
    28     2     5    1
    29     2     1    1
    30   103   102    1
    31     3     4    2
    32   106   105    1
    33    66    65    2
    34     5     6    1
    35    65    64    1
    36    16    18   ar
    37    86    87    1
    38    62    61    2
    39   101   100    2
    40     1     7    1
    41    61    60    1
    42    61    63   am
    43    60    59    1
    44   102    99    1
    45   105   104    1
    46    63    64    1
    47   100   104   am
    48   100    99    1
    49    64    67    1
    50     6     7    1
    51    98    99    1
    52    59    54   am
    53    87    90    1
    54    87    88    1
    55    90    91    1
    56    88    89    2
    57    67    68    1
    58    52    53    1
    59    93    91   ar
    60    93    95   ar
    61    54    53    1
    62    54    55    2
    63    56    57    1
    64    56    53    1
    65    56    58    1
    66    91    92   ar
    67   134   133    1
    68    79    78    1
    69    95    96   ar
    70    92    94   ar
    71    78    75    1
    72   133   130    1
    73    19    20    1
    74    96    94   ar
    75    96    97    1
    76   128   125    1
    77    42    40   ar
    78    42    43   ar
    79   132   131    2
    80   131   130    1
    81    21    20    1
    82    21    22    2
    83    75    74    1
    84    75    76    1
    85   127   126    2
    86   130   129    1
    87    40    37   ar
    88    20    23    1
    89    23    24    1
    90    43    41   ar
    91   126   125    1
    92    74    71   am
    93   125   124    1
    94    76    80   am
    95    76    77    2
    96    80    81    1
    97    72    71    2
    98    73    70    1
    99    71    70    1
   100    37    39   ar
   101    37    35   ar
   102    82    81    1
   103    82    83    2
   104    41    39   ar
   105    24    25    1
   106    25    26    1
   107    34    35    1
   108    34    31    1
   109    85    84    1
   110   124   117   am
   111    28    27    1
   112    32    31    1
   113    32    33    2
   114    39    38   ar
   115    81    84    1
   116    35    36   ar
   117    30    31    1
   118    70    69    1
   119    26    27    2
   120    27    29    1
   121    38    36   ar
   122   117   118    2
   123   117   116    1
   124   141   139    1
   125   115   116    1
   126   116   119    1
   127   122   121   ar
   128   140   139    1
   129   140   142    1
   130   139   136    1
   131   123   121   ar
   132   121   120    1
   133   119   120    1
   134   138   137    2
   135   136   137    1
   136   136   135    1
