@<TRIPOS>MOLECULE
tmp/5k5tA00.pdb
 96 92 0 0 0
SMALL
GASTEIGER

@<TRIPOS>ATOM
      1  N          3.1360  -26.6780  -44.3850 N.3   298  LYS298     -0.1245
      2  CA         3.4150  -28.1030  -44.5990 C.3   298  LYS298      0.1561
      3  C          4.6420  -28.3260  -45.4980 C.2   298  LYS298      0.2260
      4  O          4.7350  -27.7590  -46.5920 O.2   298  LYS298     -0.2867
      5  CB         2.1770  -28.8810  -45.0820 C.3   298  LYS298      0.0271
      6  CG         1.4490  -28.2480  -46.2640 C.3   298  LYS298      0.0035
      7  CD         0.5960  -29.2590  -46.9990 C.3   298  LYS298      0.0206
      8  CE         0.1210  -28.7010  -48.3120 C.3   298  LYS298      0.1093
      9  NZ        -0.7070  -29.6850  -49.0410 N.3   298  LYS298     -0.1314
     10  N         -1.5980  -36.2740  -52.2850 N.3   449  GLY449     -0.1210
     11  CA        -2.8770  -36.8660  -51.9100 C.3   449  GLY449      0.1956
     12  C         -3.6910  -36.0270  -50.9550 C.2   449  GLY449      0.2612
     13  O         -4.5210  -36.5560  -50.2090 O.2   449  GLY449     -0.2717
     14  N         -3.4670  -34.7140  -50.9840 N.am  450  GLU450     -0.1965
     15  CA        -4.1620  -33.7910  -50.0980 C.3   450  GLU450      0.1733
     16  C         -5.1400  -32.9050  -50.8700 C.2   450  GLU450      0.2616
     17  O         -4.7950  -32.3990  -51.9330 O.2   450  GLU450     -0.2715
     18  CB        -3.1430  -32.9870  -49.2880 C.3   450  GLU450      0.0429
     19  CG        -2.3400  -33.8410  -48.3160 C.3   450  GLU450      0.1163
     20  CD        -1.2370  -33.1180  -47.5640 C.2   450  GLU450      0.3649
     21  OE1       -0.2420  -32.7130  -48.2080 O.co2 450  GLU450     -0.2457
     22  OE2       -1.3520  -32.9920  -46.3240 O.co2 450  GLU450     -0.2457
     23  N         -6.3830  -32.7710  -50.3750 N.am  451  GLN451     -0.1963
     24  CA        -7.4030  -31.9690  -51.0500 C.3   451  GLN451      0.1733
     25  C         -7.0700  -30.4770  -51.0220 C.2   451  GLN451      0.2616
     26  O         -6.8650  -29.9000  -49.9520 O.2   451  GLN451     -0.2715
     27  CB        -8.8100  -32.2580  -50.4960 C.3   451  GLN451      0.0408
     28  CG        -9.9310  -32.1160  -51.5440 C.3   451  GLN451      0.0908
     29  CD        -9.9660  -33.2040  -52.6040 C.2   451  GLN451      0.2608
     30  OE1       -9.4260  -34.3080  -52.4460 O.2   451  GLN451     -0.2717
     31  NE2      -10.6430  -32.9220  -53.7040 N.am  451  GLN451     -0.0878
     32  N         -6.9630  -29.8730  -52.2140 N.am  452  VAL452     -0.1977
     33  CA        -6.6360  -28.4580  -52.3830 C.3   452  VAL452      0.1596
     34  C         -7.8270  -27.7050  -52.9840 C.2   452  VAL452      0.2287
     35  O         -8.1240  -27.8290  -54.1780 O.2   452  VAL452     -0.2864
     36  CB        -5.3050  -28.2440  -53.1550 C.3   452  VAL452      0.0276
     37  CG1       -5.0680  -26.7710  -53.4660 C.3   452  VAL452      0.0022
     38  CG2       -4.1260  -28.8150  -52.3740 C.3   452  VAL452      0.0022
     39  N         -5.9900  -20.5660  -49.1910 N.3   460  LEU460     -0.1231
     40  CA        -5.9490  -22.0200  -49.3110 C.3   460  LEU460      0.1693
     41  C         -6.5220  -22.6100  -48.0200 C.2   460  LEU460      0.2592
     42  O         -5.9770  -22.3230  -46.9430 O.2   460  LEU460     -0.2718
     43  CB        -4.4890  -22.4940  -49.5210 C.3   460  LEU460      0.0284
     44  CG        -4.1680  -23.9560  -49.1980 C.3   460  LEU460      0.0019
     45  CD1       -4.5020  -24.8540  -50.3570 C.3   460  LEU460      0.0001
     46  CD2       -2.7240  -24.1170  -48.7840 C.3   460  LEU460      0.0001
     47  N         -7.6220  -23.4120  -48.1120 N.am  461  VAL461     -0.1966
     48  CA        -8.1560  -24.0740  -46.9120 C.3   461  VAL461      0.1727
     49  C         -7.2040  -25.2480  -46.6290 C.2   461  VAL461      0.2617
     50  O         -7.3600  -26.3560  -47.1690 O.2   461  VAL461     -0.2715
     51  CB        -9.6850  -24.4030  -46.8580 C.3   461  VAL461      0.0290
     52  CG1      -10.5210  -23.1360  -46.7610 C.3   461  VAL461      0.0023
     53  CG2      -10.1450  -25.2610  -48.0260 C.3   461  VAL461      0.0023
     54  N         -6.1330  -24.9160  -45.8990 N.am  462  GLY462     -0.1940
     55  CA        -5.0460  -25.8330  -45.6050 C.3   462  GLY462      0.2014
     56  C         -4.5620  -25.9150  -44.1780 C.2   462  GLY462      0.2638
     57  O         -4.9300  -25.0980  -43.3310 O.2   462  GLY462     -0.2714
     58  N         -3.7170  -26.9190  -43.9240 N.am  463  ASN463     -0.1972
     59  CA        -3.1520  -27.2030  -42.6130 C.3   463  ASN463      0.1688
     60  C         -1.9470  -26.3640  -42.2970 C.2   463  ASN463      0.2292
     61  O         -1.2670  -25.8440  -43.1850 O.2   463  ASN463     -0.2864
     62  CB        -2.8130  -28.7120  -42.4490 C.3   463  ASN463      0.1181
     63  CG        -3.9350  -29.5940  -42.9030 C.2   463  ASN463      0.2629
     64  OD1       -5.0590  -29.5050  -42.4050 O.2   463  ASN463     -0.2716
     65  ND2       -3.6610  -30.4350  -43.8810 N.am  463  ASN463     -0.0877
     66  N         -0.8560  -31.2690  -36.7180 N.3   485  TYR485     -0.1241
     67  CA        -1.4660  -30.4840  -37.7960 C.3   485  TYR485      0.1605
     68  C         -2.6280  -29.6320  -37.2740 C.2   485  TYR485      0.2264
     69  O         -3.2710  -30.0050  -36.2910 O.2   485  TYR485     -0.2867
     70  CB        -2.0470  -31.4120  -38.8810 C.3   485  TYR485      0.0534
     71  CG        -1.0530  -32.0920  -39.8000 C.ar  485  TYR485     -0.0201
     72  CD1       -0.6320  -31.4810  -40.9800 C.ar  485  TYR485     -0.0009
     73  CD2       -0.6330  -33.3980  -39.5620 C.ar  485  TYR485     -0.0009
     74  CE1        0.2450  -32.1230  -41.8590 C.ar  485  TYR485      0.0417
     75  CE2        0.2460  -34.0500  -40.4290 C.ar  485  TYR485      0.0417
     76  CZ         0.6790  -33.4100  -41.5800 C.ar  485  TYR485      0.1957
     77  OH         1.5380  -34.0560  -42.4410 O.3   485  TYR485     -0.2866
     78  N         -6.0380  -28.1720  -39.0130 N.3   487  ASN487     -0.1240
     79  CA        -6.9910  -28.1120  -40.1240 C.3   487  ASN487      0.1653
     80  C         -8.0240  -27.0070  -39.8660 C.2   487  ASN487      0.2266
     81  O         -8.9060  -27.1630  -39.0170 O.2   487  ASN487     -0.2867
     82  CB        -7.6710  -29.4850  -40.3090 C.3   487  ASN487      0.1155
     83  CG        -8.1960  -29.7780  -41.6960 C.2   487  ASN487      0.2627
     84  OD1       -8.8760  -28.9610  -42.3290 O.2   487  ASN487     -0.2716
     85  ND2       -7.9440  -30.9930  -42.1740 N.am  487  ASN487     -0.0877
     86  N         -4.9740  -31.7290  -33.9140 N.3   497  PHE497     -0.1241
     87  CA        -4.5160  -33.0930  -33.6310 C.3   497  PHE497      0.1605
     88  C         -2.9810  -33.1350  -33.4560 C.2   497  PHE497      0.2264
     89  O         -2.2360  -32.9150  -34.4100 O.2   497  PHE497     -0.2867
     90  CB        -5.0490  -34.1960  -34.5870 C.3   497  PHE497      0.0534
     91  CG        -5.1250  -33.9960  -36.0850 C.ar  497  PHE497     -0.0203
     92  CD1       -4.0040  -34.1920  -36.8870 C.ar  497  PHE497     -0.0042
     93  CD2       -6.3480  -33.7910  -36.7130 C.ar  497  PHE497     -0.0042
     94  CE1       -4.0900  -34.0940  -38.2830 C.ar  497  PHE497     -0.0003
     95  CE2       -6.4320  -33.6840  -38.1060 C.ar  497  PHE497     -0.0003
     96  CZ        -5.3010  -33.8300  -38.8810 C.ar  497  PHE497     -0.0000
@<TRIPOS>BOND
     1    35    34    2
     2    31    29   am
     3    37    36    1
     4    36    33    1
     5    36    38    1
     6    34    33    1
     7    29    30    2
     8    29    28    1
     9    33    32    1
    10    10    11    1
    11    32    25   am
    12    17    16    2
    13    11    12    1
    14    28    27    1
    15    24    25    1
    16    24    27    1
    17    24    23    1
    18    25    26    2
    19    14    12   am
    20    14    15    1
    21    12    13    2
    22    16    23   am
    23    16    15    1
    24    45    44    1
    25    15    18    1
    26    43    40    1
    27    43    44    1
    28    40    39    1
    29    40    41    1
    30    18    19    1
    31    44    46    1
    32     9     8    1
    33    19    20    1
    34     8     7    1
    35    21    20   ar
    36    47    41   am
    37    47    48    1
    38    53    51    1
    39    41    42    2
    40    20    22   ar
    41    50    49    2
    42     7     6    1
    43    48    51    1
    44    48    49    1
    45    51    52    1
    46    49    54   am
    47     4     3    2
    48     6     5    1
    49    54    55    1
    50    55    56    1
    51     3     2    1
    52     5     2    1
    53     2     1    1
    54    56    58   am
    55    56    57    2
    56    58    59    1
    57    65    63   am
    58    61    60    2
    59    63    62    1
    60    63    64    2
    61    59    62    1
    62    59    60    1
    63    77    76    1
    64    84    83    2
    65    85    83   am
    66    74    76   ar
    67    74    72   ar
    68    83    82    1
    69    76    75   ar
    70    72    71   ar
    71    75    73   ar
    72    82    79    1
    73    79    80    1
    74    79    78    1
    75    80    81    2
    76    71    73   ar
    77    71    70    1
    78    96    94   ar
    79    96    95   ar
    80    70    67    1
    81    94    92   ar
    82    95    93   ar
    83    67    68    1
    84    67    66    1
    85    68    69    2
    86    92    91   ar
    87    93    91   ar
    88    91    90    1
    89    90    87    1
    90    89    88    2
    91    86    87    1
    92    87    88    1
