@<TRIPOS>MOLECULE
tmp/5k61A00.pdb
 100 97 0 0 0
SMALL
GASTEIGER

@<TRIPOS>ATOM
      1  N          8.0070  -19.6090  -28.8580 N.3    51  GLU51      -0.1245
      2  CA         8.5720  -20.4430  -29.9090 C.3    51  GLU51       0.1567
      3  C          9.2040  -19.5430  -30.9460 C.2    51  GLU51       0.2260
      4  O          8.6170  -18.5290  -31.3080 O.2    51  GLU51      -0.2867
      5  CB         7.4660  -21.3160  -30.5180 C.3    51  GLU51       0.0388
      6  CG         7.8460  -22.1530  -31.7420 C.3    51  GLU51       0.1160
      7  CD         6.7350  -23.1300  -32.1090 C.2    51  GLU51       0.3649
      8  OE1        5.6520  -23.0600  -31.4930 O.co2  51  GLU51      -0.2457
      9  OE2        6.9440  -23.9810  -33.0030 O.co2  51  GLU51      -0.2457
     10  N          8.5490  -17.0950  -37.6280 N.3    57  TYR57      -0.1241
     11  CA         8.0960  -18.4830  -37.5760 C.3    57  TYR57       0.1605
     12  C          7.8680  -19.1290  -38.9410 C.2    57  TYR57       0.2264
     13  O          8.2330  -20.2880  -39.1450 O.2    57  TYR57      -0.2867
     14  CB         6.8000  -18.6050  -36.7520 C.3    57  TYR57       0.0534
     15  CG         6.3140  -20.0360  -36.7010 C.ar   57  TYR57      -0.0201
     16  CD1        6.9430  -20.9620  -35.8790 C.ar   57  TYR57      -0.0009
     17  CD2        5.2670  -20.4810  -37.5180 C.ar   57  TYR57      -0.0009
     18  CE1        6.5440  -22.2800  -35.8420 C.ar   57  TYR57       0.0417
     19  CE2        4.8540  -21.8130  -37.4810 C.ar   57  TYR57       0.0417
     20  CZ         5.5040  -22.7010  -36.6400 C.ar   57  TYR57       0.1957
     21  OH         5.1340  -24.0230  -36.5850 O.3    57  TYR57      -0.2866
     22  N         11.0610  -29.8400  -30.2930 N.3   124  LYS124     -0.1245
     23  CA         9.6310  -30.0310  -30.5410 C.3   124  LYS124      0.1561
     24  C          9.3640  -31.4800  -30.9990 C.2   124  LYS124      0.2260
     25  O         10.1460  -32.0680  -31.7660 O.2   124  LYS124     -0.2867
     26  CB         9.1410  -29.0100  -31.5740 C.3   124  LYS124      0.0271
     27  CG         7.6130  -28.8850  -31.7180 C.3   124  LYS124      0.0035
     28  CD         7.3020  -27.8040  -32.7870 C.3   124  LYS124      0.0206
     29  CE         5.8070  -27.4740  -32.8260 C.3   124  LYS124      0.1093
     30  NZ         5.5510  -26.2420  -33.6570 N.3   124  LYS124     -0.1314
     31  N          4.1560  -29.0990  -36.6610 N.3   128  TYR128     -0.1241
     32  CA         3.0660  -28.4590  -37.3790 C.3   128  TYR128      0.1605
     33  C          3.4360  -28.4220  -38.8710 C.2   128  TYR128      0.2264
     34  O          4.5950  -28.6270  -39.2250 O.2   128  TYR128     -0.2867
     35  CB         2.8200  -27.0490  -36.8090 C.3   128  TYR128      0.0534
     36  CG         1.6970  -26.2710  -37.4630 C.ar  128  TYR128     -0.0201
     37  CD1        0.3770  -26.7030  -37.3690 C.ar  128  TYR128     -0.0009
     38  CD2        1.9540  -25.0930  -38.1640 C.ar  128  TYR128     -0.0009
     39  CE1       -0.6520  -25.9940  -37.9640 C.ar  128  TYR128      0.0417
     40  CE2        0.9190  -24.3650  -38.7630 C.ar  128  TYR128      0.0417
     41  CZ        -0.3750  -24.8280  -38.6600 C.ar  128  TYR128      0.1957
     42  OH        -1.3980  -24.1350  -39.2580 O.3   128  TYR128     -0.2866
     43  N          4.2580  -25.4920  -28.5770 N.3   175  SER175     -0.1202
     44  CA         2.9370  -25.3780  -29.2330 C.3   175  SER175      0.2020
     45  C          2.2340  -26.6770  -29.6530 C.2   175  SER175      0.2618
     46  O          1.4710  -27.2350  -28.8810 O.2   175  SER175     -0.2717
     47  CB         3.0470  -24.4660  -30.4620 C.3   175  SER175      0.2103
     48  OG         3.9000  -25.0180  -31.4550 O.3   175  SER175     -0.2182
     49  N          2.4690  -27.1260  -30.8850 N.am  176  MET176     -0.1979
     50  CA         1.8080  -28.3170  -31.4190 C.3   176  MET176      0.1605
     51  C          1.9460  -29.5620  -30.5250 C.2   176  MET176      0.2287
     52  O          1.1430  -30.4860  -30.6440 O.2   176  MET176     -0.2864
     53  CB         2.3500  -28.6390  -32.8140 C.3   176  MET176      0.0413
     54  CG         1.6760  -29.8320  -33.5040 C.3   176  MET176      0.0598
     55  SD         0.1150  -29.3760  -34.2720 S.3   176  MET176     -0.1393
     56  CE        -0.4800  -30.9440  -34.9350 C.3   176  MET176      0.0692
     57  N         -1.2810  -30.5750  -29.1030 N.3   179  SER179     -0.1217
     58  CA        -2.3390  -31.0280  -30.0110 C.3   179  SER179      0.1889
     59  C         -2.3510  -32.5430  -30.1560 C.2   179  SER179      0.2288
     60  O         -1.3550  -33.1950  -29.8510 O.2   179  SER179     -0.2866
     61  CB        -2.1500  -30.4170  -31.4080 C.3   179  SER179      0.2089
     62  OG        -2.0170  -29.0090  -31.3630 O.3   179  SER179     -0.2183
     63  N         -2.7540  -33.7270  -35.7230 N.3   183  PHE183     -0.1241
     64  CA        -4.1710  -33.3790  -35.8140 C.3   183  PHE183      0.1605
     65  C         -5.0020  -34.5660  -36.3020 C.2   183  PHE183      0.2264
     66  O         -6.1460  -34.3880  -36.7050 O.2   183  PHE183     -0.2867
     67  CB        -4.3930  -32.2020  -36.7710 C.3   183  PHE183      0.0534
     68  CG        -3.8950  -30.8930  -36.2560 C.ar  183  PHE183     -0.0203
     69  CD1       -4.2250  -30.4620  -34.9890 C.ar  183  PHE183     -0.0042
     70  CD2       -3.0850  -30.0950  -37.0420 C.ar  183  PHE183     -0.0042
     71  CE1       -3.7700  -29.2440  -34.5150 C.ar  183  PHE183     -0.0003
     72  CE2       -2.6220  -28.8780  -36.5650 C.ar  183  PHE183     -0.0003
     73  CZ        -2.9730  -28.4610  -35.3000 C.ar  183  PHE183     -0.0000
     74  N          3.9510  -20.7090  -30.8520 N.3   209  ALA209     -0.1231
     75  CA         3.5490  -19.8240  -31.9360 C.3   209  ALA209      0.1694
     76  C          2.1970  -20.3540  -32.4030 C.2   209  ALA209      0.2592
     77  O          2.0960  -21.0320  -33.4170 O.2   209  ALA209     -0.2718
     78  CB         4.5700  -19.8100  -33.0570 C.3   209  ALA209      0.0304
     79  N          1.1720  -20.0720  -31.6100 N.am  210  TRP210     -0.1962
     80  CA        -0.1280  -20.7180  -31.7330 C.3   210  TRP210      0.1771
     81  C         -1.1260  -19.7680  -32.4010 C.2   210  TRP210      0.2619
     82  O         -1.1970  -18.5880  -32.0460 O.2   210  TRP210     -0.2715
     83  CB        -0.6280  -21.1450  -30.3430 C.3   210  TRP210      0.0590
     84  CG        -1.8810  -21.9620  -30.3670 C.ar  210  TRP210      0.0006
     85  CD1       -3.1590  -21.5020  -30.5210 C.ar  210  TRP210      0.0946
     86  CD2       -1.9810  -23.3820  -30.2040 C.ar  210  TRP210      0.0152
     87  NE1       -4.0480  -22.5470  -30.4740 N.ar  210  TRP210     -0.2442
     88  CE2       -3.3530  -23.7130  -30.2780 C.ar  210  TRP210      0.0810
     89  CE3       -1.0440  -24.4050  -29.9870 C.ar  210  TRP210      0.0012
     90  CZ2       -3.8140  -25.0300  -30.1610 C.ar  210  TRP210      0.0191
     91  CZ3       -1.5040  -25.7180  -29.8680 C.ar  210  TRP210      0.0001
     92  CH2       -2.8780  -26.0150  -29.9500 C.ar  210  TRP210      0.0015
     93  N         -1.8920  -20.2840  -33.3580 N.am  211  LEU211     -0.1977
     94  CA        -2.7510  -19.4470  -34.2010 C.3   211  LEU211      0.1596
     95  C         -4.0950  -19.0560  -33.6000 C.2   211  LEU211      0.2287
     96  O         -4.7690  -19.8590  -32.9550 O.2   211  LEU211     -0.2864
     97  CB        -3.0250  -20.1480  -35.5350 C.3   211  LEU211      0.0297
     98  CG        -1.9940  -19.9800  -36.6470 C.3   211  LEU211      0.0022
     99  CD1       -0.6220  -20.3800  -36.1520 C.3   211  LEU211      0.0001
    100  CD2       -2.3940  -20.8160  -37.8640 C.3   211  LEU211      0.0001
@<TRIPOS>BOND
     1    42    41    1
     2    34    33    2
     3    13    12    2
     4    12    11    1
     5    33    32    1
     6    40    41   ar
     7    40    38   ar
     8    41    39   ar
     9    38    36   ar
    10    39    37   ar
    11   100    98    1
    12    10    11    1
    13    11    14    1
    14    17    19   ar
    15    17    15   ar
    16    19    20   ar
    17    36    37   ar
    18    36    35    1
    19    32    35    1
    20    32    31    1
    21    70    72   ar
    22    70    68   ar
    23    67    68    1
    24    67    64    1
    25    14    15    1
    26    66    65    2
    27    15    16   ar
    28    98    99    1
    29    98    97    1
    30    20    21    1
    31    20    18   ar
    32    72    73   ar
    33    65    64    1
    34    68    69   ar
    35    16    18   ar
    36    64    63    1
    37    97    94    1
    38    73    71   ar
    39    69    71   ar
    40    56    55    1
    41    55    54    1
    42    94    95    1
    43    94    93    1
    44    30    29    1
    45    95    96    2
    46    54    53    1
    47    77    76    2
    48    93    81   am
    49    78    75    1
    50     9     7   ar
    51    29    28    1
    52    53    50    1
    53    28    27    1
    54    76    75    1
    55    76    79   am
    56    81    82    2
    57    81    80    1
    58     7     6    1
    59     7     8   ar
    60    75    74    1
    61    25    24    2
    62     6     5    1
    63    80    79    1
    64    80    83    1
    65    27    26    1
    66    26    23    1
    67    48    47    1
    68    50    49    1
    69    50    51    1
    70    61    62    1
    71    61    58    1
    72     4     3    2
    73    24    23    1
    74     3     2    1
    75    49    45   am
    76    52    51    2
    77    23    22    1
    78    85    87   ar
    79    85    84   ar
    80     5     2    1
    81    87    88   ar
    82    47    44    1
    83    84    83    1
    84    84    86   ar
    85    88    86   ar
    86    88    90   ar
    87    86    89   ar
    88    90    92   ar
    89    59    58    1
    90    59    60    2
    91    58    57    1
    92    89    91   ar
    93    92    91   ar
    94     2     1    1
    95    45    44    1
    96    45    46    2
    97    44    43    1
