@<TRIPOS>MOLECULE
tmp/5k66A00.pdb
 100 97 0 0 0
SMALL
GASTEIGER

@<TRIPOS>ATOM
      1  N          8.0710  -19.7940   30.6560 N.3    51  GLU51      -0.1245
      2  CA         8.6540  -20.5920   29.5820 C.3    51  GLU51       0.1567
      3  C          9.2720  -19.6780   28.5350 C.2    51  GLU51       0.2260
      4  O          8.6610  -18.6850   28.1620 O.2    51  GLU51      -0.2867
      5  CB         7.5620  -21.4950   28.9650 C.3    51  GLU51       0.0388
      6  CG         7.9570  -22.2950   27.6990 C.3    51  GLU51       0.1160
      7  CD         6.8750  -23.3080   27.3040 C.2    51  GLU51       0.3649
      8  OE1        5.7440  -23.1890   27.8130 O.co2  51  GLU51      -0.2457
      9  OE2        7.1500  -24.2190   26.4900 O.co2  51  GLU51      -0.2457
     10  N          8.5410  -17.1810   21.9810 N.3    57  TYR57      -0.1241
     11  CA         8.1110  -18.5810   22.0090 C.3    57  TYR57       0.1605
     12  C          7.8840  -19.2170   20.6370 C.2    57  TYR57       0.2264
     13  O          8.2750  -20.3620   20.4210 O.2    57  TYR57      -0.2867
     14  CB         6.8260  -18.7210   22.8400 C.3    57  TYR57       0.0534
     15  CG         6.3630  -20.1620   22.9400 C.ar   57  TYR57      -0.0201
     16  CD1        7.0840  -21.0870   23.6810 C.ar   57  TYR57      -0.0009
     17  CD2        5.2410  -20.6070   22.2410 C.ar   57  TYR57      -0.0009
     18  CE1        6.6950  -22.4060   23.7510 C.ar   57  TYR57       0.0417
     19  CE2        4.8390  -21.9270   22.3060 C.ar   57  TYR57       0.0417
     20  CZ         5.5680  -22.8190   23.0590 C.ar   57  TYR57       0.1957
     21  OH         5.1840  -24.1350   23.1200 O.3    57  TYR57      -0.2866
     22  N         11.2820  -29.9300   29.1170 N.3   124  LYS124     -0.1245
     23  CA         9.8520  -30.1410   28.8950 C.3   124  LYS124      0.1561
     24  C          9.6110  -31.5890   28.4550 C.2   124  LYS124      0.2260
     25  O         10.3830  -32.1610   27.6680 O.2   124  LYS124     -0.2867
     26  CB         9.3250  -29.1490   27.8540 C.3   124  LYS124      0.0271
     27  CG         7.8130  -29.0410   27.7580 C.3   124  LYS124      0.0035
     28  CD         7.4600  -27.9630   26.6960 C.3   124  LYS124      0.0206
     29  CE         5.9490  -27.6800   26.6800 C.3   124  LYS124      0.1093
     30  NZ         5.6580  -26.4820   25.8360 N.3   124  LYS124     -0.1314
     31  N          4.3970  -29.3510   22.8320 N.3   128  TYR128     -0.1241
     32  CA         3.3020  -28.6980   22.1350 C.3   128  TYR128      0.1605
     33  C          3.6400  -28.6190   20.6360 C.2   128  TYR128      0.2264
     34  O          4.7850  -28.8120   20.2400 O.2   128  TYR128     -0.2867
     35  CB         3.0690  -27.3050   22.7500 C.3   128  TYR128      0.0534
     36  CG         1.9360  -26.5080   22.1520 C.ar  128  TYR128     -0.0201
     37  CD1        0.6310  -26.9960   22.1670 C.ar  128  TYR128     -0.0009
     38  CD2        2.1680  -25.2500   21.5930 C.ar  128  TYR128     -0.0009
     39  CE1       -0.4160  -26.2610   21.6130 C.ar  128  TYR128      0.0417
     40  CE2        1.1270  -24.5000   21.0530 C.ar  128  TYR128      0.0417
     41  CZ        -0.1560  -25.0150   21.0560 C.ar  128  TYR128      0.1957
     42  OH        -1.1810  -24.2850   20.5090 O.3   128  TYR128     -0.2866
     43  N          4.3670  -25.7460   30.9360 N.3   175  SER175     -0.1202
     44  CA         3.0690  -25.6480   30.2290 C.3   175  SER175      0.2020
     45  C          2.4070  -26.9570   29.7790 C.2   175  SER175      0.2618
     46  O          1.6420  -27.5430   30.5360 O.2   175  SER175     -0.2717
     47  CB         3.2080  -24.7290   29.0100 C.3   175  SER175      0.2103
     48  OG         4.1530  -25.2290   28.0850 O.3   175  SER175     -0.2182
     49  N          2.6680  -27.3880   28.5450 N.am  176  MET176     -0.1979
     50  CA         2.0500  -28.6190   28.0160 C.3   176  MET176      0.1605
     51  C          2.2050  -29.8580   28.9260 C.2   176  MET176      0.2287
     52  O          1.4440  -30.8130   28.7990 O.2   176  MET176     -0.2864
     53  CB         2.6210  -28.9500   26.6410 C.3   176  MET176      0.0413
     54  CG         1.9470  -30.1410   25.9520 C.3   176  MET176      0.0598
     55  SD         0.3500  -29.7040   25.2100 S.3   176  MET176     -0.1393
     56  CE        -0.2660  -31.3250   24.7170 C.3   176  MET176      0.0692
     57  N         -1.0590  -30.8780   30.3370 N.3   179  SER179     -0.1217
     58  CA        -2.1200  -31.3300   29.4330 C.3   179  SER179      0.1889
     59  C         -2.1240  -32.8490   29.2910 C.2   179  SER179      0.2288
     60  O         -1.1370  -33.5010   29.6290 O.2   179  SER179     -0.2866
     61  CB        -1.9380  -30.7000   28.0450 C.3   179  SER179      0.2089
     62  OG        -1.8780  -29.2890   28.1280 O.3   179  SER179     -0.2183
     63  N         -2.4590  -34.0980   23.6840 N.3   183  PHE183     -0.1241
     64  CA        -3.8980  -33.8190   23.5840 C.3   183  PHE183      0.1605
     65  C         -4.6970  -35.0380   23.1070 C.2   183  PHE183      0.2264
     66  O         -5.8210  -34.8890   22.6370 O.2   183  PHE183     -0.2867
     67  CB        -4.1840  -32.6640   22.6170 C.3   183  PHE183      0.0534
     68  CG        -3.6220  -31.3430   23.0510 C.ar  183  PHE183     -0.0203
     69  CD1       -3.9860  -30.7840   24.2750 C.ar  183  PHE183     -0.0042
     70  CD2       -2.7450  -30.6490   22.2250 C.ar  183  PHE183     -0.0042
     71  CE1       -3.4720  -29.5510   24.6730 C.ar  183  PHE183     -0.0003
     72  CE2       -2.2160  -29.4180   22.6220 C.ar  183  PHE183     -0.0003
     73  CZ        -2.5880  -28.8720   23.8410 C.ar  183  PHE183     -0.0000
     74  N          3.9200  -20.7890   28.6030 N.3   209  ALA209     -0.1231
     75  CA         3.5680  -19.8580   27.5390 C.3   209  ALA209      0.1694
     76  C          2.2220  -20.3520   27.0410 C.2   209  ALA209      0.2592
     77  O          2.1300  -20.9630   25.9840 O.2   209  ALA209     -0.2718
     78  CB         4.6130  -19.8410   26.4340 C.3   209  ALA209      0.0304
     79  N          1.2030  -20.1440   27.8670 N.am  210  TRP210     -0.1962
     80  CA        -0.0960  -20.7910   27.7170 C.3   210  TRP210      0.1771
     81  C         -1.0880  -19.8430   27.0520 C.2   210  TRP210      0.2619
     82  O         -1.1760  -18.6780   27.4360 O.2   210  TRP210     -0.2715
     83  CB        -0.6230  -21.2240   29.0900 C.3   210  TRP210      0.0590
     84  CG        -1.8200  -22.1130   29.0260 C.ar  210  TRP210      0.0006
     85  CD1       -3.1080  -21.7420   28.7700 C.ar  210  TRP210      0.0946
     86  CD2       -1.8450  -23.5270   29.2550 C.ar  210  TRP210      0.0152
     87  NE1       -3.9320  -22.8410   28.8060 N.ar  210  TRP210     -0.2442
     88  CE2       -3.1840  -23.9480   29.1150 C.ar  210  TRP210      0.0810
     89  CE3       -0.8660  -24.4750   29.5860 C.ar  210  TRP210      0.0012
     90  CZ2       -3.5680  -25.2860   29.2640 C.ar  210  TRP210      0.0191
     91  CZ3       -1.2520  -25.8110   29.7410 C.ar  210  TRP210      0.0001
     92  CH2       -2.5870  -26.1950   29.5870 C.ar  210  TRP210      0.0015
     93  N         -1.8230  -20.3540   26.0670 N.am  211  LEU211     -0.1977
     94  CA        -2.7140  -19.5550   25.2220 C.3   211  LEU211      0.1596
     95  C         -4.0630  -19.1700   25.8280 C.2   211  LEU211      0.2287
     96  O         -4.7280  -19.9700   26.4810 O.2   211  LEU211     -0.2864
     97  CB        -3.0050  -20.3090   23.9150 C.3   211  LEU211      0.0297
     98  CG        -2.0210  -20.1260   22.7660 C.3   211  LEU211      0.0022
     99  CD1       -0.6280  -20.4900   23.2180 C.3   211  LEU211      0.0001
    100  CD2       -2.4660  -20.9700   21.5520 C.3   211  LEU211      0.0001
@<TRIPOS>BOND
     1    34    33    2
     2    13    12    2
     3    42    41    1
     4    33    32    1
     5    12    11    1
     6    40    41   ar
     7    40    38   ar
     8    41    39   ar
     9   100    98    1
    10    38    36   ar
    11    39    37   ar
    12    10    11    1
    13    11    14    1
    14    32    35    1
    15    32    31    1
    16    36    37   ar
    17    36    35    1
    18    70    72   ar
    19    70    68   ar
    20    17    19   ar
    21    17    15   ar
    22    19    20   ar
    23    67    68    1
    24    67    64    1
    25    72    73   ar
    26    66    65    2
    27    98    99    1
    28    98    97    1
    29    14    15    1
    30    15    16   ar
    31    68    69   ar
    32    20    21    1
    33    20    18   ar
    34    65    64    1
    35    64    63    1
    36    16    18   ar
    37    73    71   ar
    38    97    94    1
    39    69    71   ar
    40    56    55    1
    41    55    54    1
    42    94    95    1
    43    94    93    1
    44    95    96    2
    45    30    29    1
    46    54    53    1
    47    77    76    2
    48    93    81   am
    49    78    75    1
    50     9     7   ar
    51    53    50    1
    52    29    28    1
    53    28    27    1
    54    76    75    1
    55    76    79   am
    56    81    82    2
    57    81    80    1
    58     7     6    1
    59     7     8   ar
    60    75    74    1
    61    25    24    2
    62     6     5    1
    63    80    79    1
    64    80    83    1
    65    27    26    1
    66    26    23    1
    67    50    49    1
    68    50    51    1
    69    61    62    1
    70    61    58    1
    71    48    47    1
    72     4     3    2
    73    24    23    1
    74     3     2    1
    75    49    45   am
    76    85    87   ar
    77    85    84   ar
    78    52    51    2
    79    87    88   ar
    80    23    22    1
    81     5     2    1
    82    47    44    1
    83    84    83    1
    84    84    86   ar
    85    88    86   ar
    86    88    90   ar
    87    86    89   ar
    88    90    92   ar
    89    59    58    1
    90    59    60    2
    91    58    57    1
    92     2     1    1
    93    89    91   ar
    94    92    91   ar
    95    45    44    1
    96    45    46    2
    97    44    43    1
