@<TRIPOS>MOLECULE
tmp/5k66A01.pdb
 94 91 0 0 0
SMALL
GASTEIGER

@<TRIPOS>ATOM
      1  N          4.3970  -29.3510   22.8320 N.3   128  TYR128     -0.1227
      2  CA         3.3020  -28.6980   22.1350 C.3   128  TYR128      0.1736
      3  C          3.6400  -28.6190   20.6360 C.2   128  TYR128      0.2595
      4  O          4.7850  -28.8120   20.2400 O.2   128  TYR128     -0.2718
      5  CB         3.0690  -27.3050   22.7500 C.3   128  TYR128      0.0548
      6  CG         1.9360  -26.5080   22.1520 C.ar  128  TYR128     -0.0200
      7  CD1        0.6310  -26.9960   22.1670 C.ar  128  TYR128     -0.0009
      8  CD2        2.1680  -25.2500   21.5930 C.ar  128  TYR128     -0.0009
      9  CE1       -0.4160  -26.2610   21.6130 C.ar  128  TYR128      0.0417
     10  CE2        1.1270  -24.5000   21.0530 C.ar  128  TYR128      0.0417
     11  CZ        -0.1560  -25.0150   21.0560 C.ar  128  TYR128      0.1957
     12  OH        -1.1810  -24.2850   20.5090 O.3   128  TYR128     -0.2866
     13  N          2.6380  -28.3450   19.8120 N.am  129  ASP129     -0.1974
     14  CA         2.8270  -28.2220   18.3650 C.3   129  ASP129      0.1709
     15  C          4.0140  -27.3390   17.9770 C.2   129  ASP129      0.2293
     16  O          4.7990  -27.6910   17.1000 O.2   129  ASP129     -0.2864
     17  CB         1.5470  -27.6860   17.7330 C.3   129  ASP129      0.1436
     18  CG         0.3530  -28.5940   17.9910 C.2   129  ASP129      0.3671
     19  OD1        0.1750  -29.0640   19.1520 O.co2 129  ASP129     -0.2456
     20  OD2       -0.3990  -28.8500   17.0240 O.co2 129  ASP129     -0.2456
     21  N          2.6680  -27.3880   28.5450 N.3   176  MET176     -0.1245
     22  CA         2.0500  -28.6190   28.0160 C.3   176  MET176      0.1570
     23  C          2.2050  -29.8580   28.9260 C.2   176  MET176      0.2261
     24  O          1.4440  -30.8130   28.7990 O.2   176  MET176     -0.2867
     25  CB         2.6210  -28.9500   26.6410 C.3   176  MET176      0.0387
     26  CG         1.9470  -30.1410   25.9520 C.3   176  MET176      0.0595
     27  SD         0.3500  -29.7040   25.2100 S.3   176  MET176     -0.1393
     28  CE        -0.2660  -31.3250   24.7170 C.3   176  MET176      0.0692
     29  N         -1.0590  -30.8780   30.3370 N.3   179  SER179     -0.1217
     30  CA        -2.1200  -31.3300   29.4330 C.3   179  SER179      0.1889
     31  C         -2.1240  -32.8490   29.2910 C.2   179  SER179      0.2288
     32  O         -1.1370  -33.5010   29.6290 O.2   179  SER179     -0.2866
     33  CB        -1.9380  -30.7000   28.0450 C.3   179  SER179      0.2089
     34  OG        -1.8780  -29.2890   28.1280 O.3   179  SER179     -0.2183
     35  N         -2.4590  -34.0980   23.6840 N.3   183  PHE183     -0.1241
     36  CA        -3.8980  -33.8190   23.5840 C.3   183  PHE183      0.1605
     37  C         -4.6970  -35.0380   23.1070 C.2   183  PHE183      0.2264
     38  O         -5.8210  -34.8890   22.6370 O.2   183  PHE183     -0.2867
     39  CB        -4.1840  -32.6640   22.6170 C.3   183  PHE183      0.0534
     40  CG        -3.6220  -31.3430   23.0510 C.ar  183  PHE183     -0.0203
     41  CD1       -3.9860  -30.7840   24.2750 C.ar  183  PHE183     -0.0042
     42  CD2       -2.7450  -30.6490   22.2250 C.ar  183  PHE183     -0.0042
     43  CE1       -3.4720  -29.5510   24.6730 C.ar  183  PHE183     -0.0003
     44  CE2       -2.2160  -29.4180   22.6220 C.ar  183  PHE183     -0.0003
     45  CZ        -2.5880  -28.8720   23.8410 C.ar  183  PHE183     -0.0000
     46  N          1.2030  -20.1440   27.8670 N.3   210  TRP210     -0.1227
     47  CA        -0.0960  -20.7910   27.7170 C.3   210  TRP210      0.1737
     48  C         -1.0880  -19.8430   27.0520 C.2   210  TRP210      0.2595
     49  O         -1.1760  -18.6780   27.4360 O.2   210  TRP210     -0.2718
     50  CB        -0.6230  -21.2240   29.0900 C.3   210  TRP210      0.0564
     51  CG        -1.8200  -22.1130   29.0260 C.ar  210  TRP210      0.0003
     52  CD1       -3.1080  -21.7420   28.7700 C.ar  210  TRP210      0.0946
     53  CD2       -1.8450  -23.5270   29.2550 C.ar  210  TRP210      0.0152
     54  NE1       -3.9320  -22.8410   28.8060 N.ar  210  TRP210     -0.2442
     55  CE2       -3.1840  -23.9480   29.1150 C.ar  210  TRP210      0.0810
     56  CE3       -0.8660  -24.4750   29.5860 C.ar  210  TRP210      0.0012
     57  CZ2       -3.5680  -25.2860   29.2640 C.ar  210  TRP210      0.0191
     58  CZ3       -1.2520  -25.8110   29.7410 C.ar  210  TRP210      0.0001
     59  CH2       -2.5870  -26.1950   29.5870 C.ar  210  TRP210      0.0015
     60  N         -1.8230  -20.3540   26.0670 N.am  211  LEU211     -0.1980
     61  CA        -2.7140  -19.5550   25.2220 C.3   211  LEU211      0.1596
     62  C         -4.0630  -19.1700   25.8280 C.2   211  LEU211      0.2287
     63  O         -4.7280  -19.9700   26.4810 O.2   211  LEU211     -0.2864
     64  CB        -3.0050  -20.3090   23.9150 C.3   211  LEU211      0.0297
     65  CG        -2.0210  -20.1260   22.7660 C.3   211  LEU211      0.0022
     66  CD1       -0.6280  -20.4900   23.2180 C.3   211  LEU211      0.0001
     67  CD2       -2.4660  -20.9700   21.5520 C.3   211  LEU211      0.0001
     68  N         -6.1630  -21.4600   16.6870 N.3   217  THR217     -0.1218
     69  CA        -5.5060  -22.7640   16.7970 C.3   217  THR217      0.1862
     70  C         -6.1080  -23.8140   15.8530 C.2   217  THR217      0.2287
     71  O         -5.5430  -24.8900   15.6950 O.2   217  THR217     -0.2866
     72  CB        -5.5600  -23.3080   18.2430 C.3   217  THR217      0.1770
     73  OG1       -6.9190  -23.3570   18.6820 O.3   217  THR217     -0.2211
     74  CG2       -4.7470  -22.4050   19.1980 C.3   217  THR217      0.0375
     75  N         -8.8230  -19.7240   31.9530 N.3   285  ASN285     -0.1240
     76  CA        -7.5780  -20.4750   32.0880 C.3   285  ASN285      0.1653
     77  C         -7.2290  -20.7980   33.5290 C.2   285  ASN285      0.2266
     78  O         -6.7130  -21.8740   33.8070 O.2   285  ASN285     -0.2867
     79  CB        -6.4330  -19.7290   31.4290 C.3   285  ASN285      0.1155
     80  CG        -6.2890  -20.1080   29.9750 C.2   285  ASN285      0.2627
     81  OD1       -6.4390  -21.2780   29.6190 O.2   285  ASN285     -0.2716
     82  ND2       -6.0560  -19.1280   29.1270 N.am  285  ASN285     -0.0877
     83  N         -9.1730  -23.7490   34.3780 N.3   288  TYR288     -0.1241
     84  CA        -8.6980  -24.9240   33.6790 C.3   288  TYR288      0.1605
     85  C         -7.4130  -25.4270   34.3110 C.2   288  TYR288      0.2264
     86  O         -7.2530  -26.6240   34.4890 O.2   288  TYR288     -0.2867
     87  CB        -8.4810  -24.6320   32.1950 C.3   288  TYR288      0.0534
     88  CG        -8.0270  -25.8450   31.4180 C.ar  288  TYR288     -0.0201
     89  CD1       -8.9470  -26.7840   30.9650 C.ar  288  TYR288     -0.0009
     90  CD2       -6.6870  -26.0560   31.1460 C.ar  288  TYR288     -0.0009
     91  CE1       -8.5380  -27.9060   30.2510 C.ar  288  TYR288      0.0417
     92  CE2       -6.2690  -27.1760   30.4330 C.ar  288  TYR288      0.0417
     93  CZ        -7.1990  -28.0920   29.9900 C.ar  288  TYR288      0.1957
     94  OH        -6.7830  -29.2000   29.2730 O.3   288  TYR288     -0.2866
@<TRIPOS>BOND
     1    71    70    2
     2    70    69    1
     3    68    69    1
     4    69    72    1
     5    20    18   ar
     6    16    15    2
     7    17    18    1
     8    17    14    1
     9    15    14    1
    10    18    19   ar
    11    72    73    1
    12    72    74    1
    13    14    13    1
    14    13     3   am
    15     4     3    2
    16    12    11    1
    17     3     2    1
    18    10    11   ar
    19    10     8   ar
    20    11     9   ar
    21    67    65    1
    22     8     6   ar
    23     9     7   ar
    24     2     5    1
    25     2     1    1
    26     6     7   ar
    27     6     5    1
    28    42    44   ar
    29    42    40   ar
    30    39    40    1
    31    39    36    1
    32    44    45   ar
    33    38    37    2
    34    65    66    1
    35    65    64    1
    36    40    41   ar
    37    37    36    1
    38    36    35    1
    39    45    43   ar
    40    64    61    1
    41    41    43   ar
    42    28    27    1
    43    27    26    1
    44    61    62    1
    45    61    60    1
    46    62    63    2
    47    26    25    1
    48    60    48   am
    49    25    22    1
    50    48    49    2
    51    48    47    1
    52    47    46    1
    53    47    50    1
    54    22    21    1
    55    22    23    1
    56    33    34    1
    57    33    30    1
    58    52    54   ar
    59    52    51   ar
    60    24    23    2
    61    54    55   ar
    62    51    50    1
    63    51    53   ar
    64    55    53   ar
    65    55    57   ar
    66    82    80   am
    67    53    56   ar
    68    57    59   ar
    69    94    93    1
    70    31    30    1
    71    31    32    2
    72    30    29    1
    73    56    58   ar
    74    59    58   ar
    75    81    80    2
    76    80    79    1
    77    93    91   ar
    78    93    92   ar
    79    91    89   ar
    80    92    90   ar
    81    89    88   ar
    82    90    88   ar
    83    88    87    1
    84    79    76    1
    85    75    76    1
    86    76    77    1
    87    87    84    1
    88    77    78    2
    89    84    85    1
    90    84    83    1
    91    85    86    2
