@<TRIPOS>MOLECULE
tmp/5k67A00.pdb
 195 185 0 0 0
SMALL
GASTEIGER

@<TRIPOS>ATOM
      1  N          9.4430   32.7630   -4.8980 N.3    12  ASN12      -0.1240
      2  CA        10.7070   33.4290   -4.5230 C.3    12  ASN12       0.1653
      3  C         10.9120   34.7230   -5.3200 C.2    12  ASN12       0.2266
      4  O         10.1070   35.1070   -6.1670 O.2    12  ASN12      -0.2867
      5  CB        11.9280   32.4550   -4.5610 C.3    12  ASN12       0.1155
      6  CG        12.4080   32.1190   -5.9710 C.2    12  ASN12       0.2627
      7  OD1       11.9650   32.7260   -6.9630 O.2    12  ASN12      -0.2716
      8  ND2       13.3320   31.1420   -6.0650 N.am   12  ASN12      -0.0877
      9  N         12.7580   35.4230   -7.7850 N.3    14  LEU14      -0.1245
     10  CA        13.0050   35.2640   -9.1990 C.3    14  LEU14       0.1561
     11  C         11.7040   34.8810   -9.9190 C.2    14  LEU14       0.2260
     12  O         11.6960   34.8350  -11.1160 O.2    14  LEU14      -0.2867
     13  CB        13.9450   34.1110   -9.4180 C.3    14  LEU14       0.0270
     14  CG        15.3540   34.3320   -8.9010 C.3    14  LEU14       0.0019
     15  CD1       16.1670   33.0060   -8.8820 C.3    14  LEU14       0.0001
     16  CD2       16.0060   35.4600   -9.7250 C.3    14  LEU14       0.0001
     17  N         10.0170   31.9840   -9.1690 N.3    16  SER16      -0.1217
     18  CA         9.8220   30.5510   -9.0630 C.3    16  SER16       0.1889
     19  C          8.7230   30.1930   -8.0880 C.2    16  SER16       0.2288
     20  O          8.4790   30.9300   -7.1320 O.2    16  SER16      -0.2866
     21  CB        11.1750   29.8570   -8.6810 C.3    16  SER16       0.2089
     22  OG        12.1950   30.1460   -9.6210 O.3    16  SER16      -0.2183
     23  N          8.8400   21.7970   -7.7300 N.3    32  TYR32      -0.1241
     24  CA         9.5190   23.0700   -7.9450 C.3    32  TYR32       0.1605
     25  C          9.4140   23.4000   -9.3880 C.2    32  TYR32       0.2264
     26  O          9.7600   22.5850  -10.2250 O.2    32  TYR32      -0.2867
     27  CB        11.0300   23.0070   -7.6040 C.3    32  TYR32       0.0534
     28  CG        11.5880   24.3520   -7.2330 C.ar   32  TYR32      -0.0201
     29  CD1       12.2000   25.1870   -8.2230 C.ar   32  TYR32      -0.0009
     30  CD2       11.5270   24.8040   -5.8780 C.ar   32  TYR32      -0.0009
     31  CE1       12.6780   26.4770   -7.8770 C.ar   32  TYR32       0.0417
     32  CE2       12.0370   26.0470   -5.4860 C.ar   32  TYR32       0.0417
     33  CZ        12.6000   26.8840   -6.4650 C.ar   32  TYR32       0.1957
     34  OH        13.1020   28.1300   -6.1350 O.3    32  TYR32      -0.2866
     35  N         11.1110   26.3790  -11.7370 N.3    34  SER34      -0.1217
     36  CA        12.0240   27.5310  -11.8630 C.3    34  SER34       0.1889
     37  C         11.6780   28.5160  -12.9210 C.2    34  SER34       0.2288
     38  O         11.5500   28.1380  -14.0690 O.2    34  SER34      -0.2866
     39  CB        13.4510   27.1120  -12.1090 C.3    34  SER34       0.2089
     40  OG        14.2930   28.2910  -12.0250 O.3    34  SER34      -0.2183
     41  N         13.8710   30.6020  -13.9850 N.3    36  VAL36      -0.1231
     42  CA        15.1320   30.8870  -14.7300 C.3    36  VAL36       0.1692
     43  C         15.8500   29.5830  -14.9700 C.2    36  VAL36       0.2593
     44  O         15.5510   28.5560  -14.3000 O.2    36  VAL36      -0.2718
     45  CB        16.0810   31.8560  -13.9420 C.3    36  VAL36       0.0266
     46  CG1       15.4090   33.2180  -13.6940 C.3    36  VAL36       0.0020
     47  CG2       16.5360   31.2790  -12.5420 C.3    36  VAL36       0.0020
     48  N         16.8240   29.6360  -15.8720 N.am   37  GLY37      -0.1942
     49  CA        17.7530   28.5150  -16.1080 C.3    37  GLY37       0.2014
     50  C         17.2400   27.5290  -17.0930 C.2    37  GLY37       0.2639
     51  O         16.2460   27.7840  -17.7390 O.2    37  GLY37      -0.2714
     52  N         17.8990   26.3770  -17.1280 N.am   38  ASN38      -0.1958
     53  CA        17.6280   25.3040  -18.0560 C.3    38  ASN38       0.1819
     54  C         16.5990   24.3730  -17.3880 C.2    38  ASN38       0.2621
     55  O         16.9240   23.2980  -16.8350 O.2    38  ASN38      -0.2715
     56  CB        18.8700   24.5450  -18.4400 C.3    38  ASN38       0.1195
     57  CG        18.5860   23.5020  -19.4960 C.2    38  ASN38       0.2630
     58  OD1       17.5300   23.4900  -20.0600 O.2    38  ASN38      -0.2716
     59  ND2       19.5040   22.6210  -19.7280 N.am   38  ASN38      -0.0877
     60  N         15.3750   24.8520  -17.4140 N.am   39  ALA39      -0.1977
     61  CA        14.2790   24.2280  -16.7220 C.3    39  ALA39       0.1597
     62  C         12.9200   24.5910  -17.3280 C.2    39  ALA39       0.2287
     63  O         12.7050   25.6860  -17.7750 O.2    39  ALA39      -0.2864
     64  CB        14.3470   24.6750  -15.2970 C.3    39  ALA39       0.0319
     65  N         17.4270   18.4440  -11.6230 N.3    68  TRP68      -0.1241
     66  CA        16.8380   19.0800  -12.7630 C.3    68  TRP68       0.1605
     67  C         16.6550   18.1480  -14.0040 C.2    68  TRP68       0.2264
     68  O         17.0050   18.5000  -15.1650 O.2    68  TRP68      -0.2867
     69  CB        17.6870   20.3210  -13.1140 C.3    68  TRP68       0.0550
     70  CG        17.6950   21.2750  -12.0040 C.ar   68  TRP68       0.0003
     71  CD1       18.7370   21.4950  -11.1080 C.ar   68  TRP68       0.0946
     72  CD2       16.5930   22.0820  -11.5560 C.ar   68  TRP68       0.0152
     73  NE1       18.3460   22.4200  -10.1640 N.ar   68  TRP68      -0.2442
     74  CE2       17.0380   22.8030  -10.4360 C.ar   68  TRP68       0.0810
     75  CE3       15.2680   22.3430  -12.0610 C.ar   68  TRP68       0.0012
     76  CZ2       16.2120   23.7270   -9.7840 C.ar   68  TRP68       0.0191
     77  CZ3       14.4540   23.2280  -11.3750 C.ar   68  TRP68       0.0001
     78  CH2       14.9580   23.9560  -10.2770 C.ar   68  TRP68       0.0015
     79  N         18.9100   18.8280  -17.2340 N.3    75  ALA75      -0.1245
     80  CA        20.0320   19.8010  -17.1350 C.3    75  ALA75       0.1562
     81  C         21.2390   19.2930  -16.3400 C.2    75  ALA75       0.2260
     82  O         22.1280   20.0960  -15.9940 O.2    75  ALA75      -0.2867
     83  CB        19.5640   21.1230  -16.5600 C.3    75  ALA75       0.0290
     84  N         22.0410   18.3340  -13.3210 N.3    77  SER77      -0.1217
     85  CA        22.3840   19.2340  -12.2100 C.3    77  SER77       0.1889
     86  C         21.4310   19.0420  -11.0910 C.2    77  SER77       0.2288
     87  O         20.3550   18.4580  -11.3000 O.2    77  SER77      -0.2866
     88  CB        22.4220   20.7350  -12.6290 C.3    77  SER77       0.2089
     89  OG        21.2460   21.2390  -13.3510 O.3    77  SER77      -0.2183
     90  N         20.0190   21.2300   -7.3480 N.3    79  THR79      -0.1218
     91  CA        20.1180   22.3080   -6.3670 C.3    79  THR79       0.1862
     92  C         19.6270   21.8290   -5.0280 C.2    79  THR79       0.2287
     93  O         18.5760   21.1850   -4.9430 O.2    79  THR79      -0.2866
     94  CB        19.2490   23.4660   -6.7860 C.3    79  THR79       0.1770
     95  OG1       19.6660   23.8950   -8.0780 O.3    79  THR79      -0.2211
     96  CG2       19.3580   24.6580   -5.7780 C.3    79  THR79       0.0375
     97  N         18.5500   23.5690   -1.2700 N.3    81  TRP81      -0.1241
     98  CA        18.2890   24.7720   -0.4690 C.3    81  TRP81       0.1605
     99  C         18.3060   24.4150    0.9500 C.2    81  TRP81       0.2264
    100  O         17.6710   23.4070    1.3470 O.2    81  TRP81      -0.2867
    101  CB        16.9150   25.3340   -0.7940 C.3    81  TRP81       0.0550
    102  CG        16.6740   25.9460   -2.1340 C.ar   81  TRP81       0.0003
    103  CD1       16.4930   27.3170   -2.4080 C.ar   81  TRP81       0.0946
    104  CD2       16.3840   25.2630   -3.3690 C.ar   81  TRP81       0.0152
    105  NE1       16.2030   27.4920   -3.7400 N.ar   81  TRP81      -0.2442
    106  CE2       16.0890   26.2610   -4.3490 C.ar   81  TRP81       0.0810
    107  CE3       16.3450   23.9120   -3.7480 C.ar   81  TRP81       0.0012
    108  CZ2       15.8760   25.9500   -5.7020 C.ar   81  TRP81       0.0191
    109  CZ3       16.0360   23.5850   -5.0660 C.ar   81  TRP81       0.0001
    110  CH2       15.7790   24.5860   -6.0420 C.ar   81  TRP81       0.0015
    111  N         21.4240   28.3780   -1.2630 N.3    97  TRP97      -0.1241
    112  CA        21.4130   27.1770   -2.0830 C.3    97  TRP97       0.1605
    113  C         22.7510   26.8730   -2.7570 C.2    97  TRP97       0.2264
    114  O         23.5400   27.7570   -2.9600 O.2    97  TRP97      -0.2867
    115  CB        20.3200   27.2160   -3.1490 C.3    97  TRP97       0.0550
    116  CG        20.2340   28.4230   -4.0050 C.ar   97  TRP97       0.0003
    117  CD1       19.3920   29.5060   -3.8540 C.ar   97  TRP97       0.0946
    118  CD2       21.0140   28.6900   -5.1440 C.ar   97  TRP97       0.0152
    119  NE1       19.6080   30.4360   -4.8650 N.ar   97  TRP97      -0.2442
    120  CE2       20.5580   29.9120   -5.7090 C.ar   97  TRP97       0.0810
    121  CE3       21.9980   27.9850   -5.8070 C.ar   97  TRP97       0.0012
    122  CZ2       21.1410   30.4700   -6.8440 C.ar   97  TRP97       0.0191
    123  CZ3       22.5430   28.5510   -6.9830 C.ar   97  TRP97       0.0001
    124  CH2       22.1040   29.8120   -7.4520 C.ar   97  TRP97       0.0015
    125  N         23.9370   24.7710   -6.2450 N.3    99  LEU99      -0.1245
    126  CA        23.5700   24.0880   -7.4560 C.3    99  LEU99       0.1561
    127  C         24.8380   23.4390   -8.0570 C.2    99  LEU99       0.2260
    128  O         25.7670   24.1250   -8.4400 O.2    99  LEU99      -0.2867
    129  CB        22.9130   25.0030   -8.4440 C.3    99  LEU99       0.0270
    130  CG        22.5490   24.4790   -9.8960 C.3    99  LEU99       0.0019
    131  CD1       21.7690   25.6020  -10.5240 C.3    99  LEU99       0.0001
    132  CD2       23.6960   24.1090  -10.8140 C.3    99  LEU99       0.0001
    133  N         26.4970   21.0640  -11.0550 N.3   101  CYS101     -0.1221
    134  CA        26.3290   20.4090  -12.3340 C.3   101  CYS101      0.1808
    135  C         27.2290   19.1770  -12.4170 C.2   101  CYS101      0.2602
    136  O         28.3150   19.1690  -11.8850 O.2   101  CYS101     -0.2717
    137  CB        26.7230   21.3350  -13.4510 C.3   101  CYS101      0.0970
    138  SG        25.6190   22.7330  -13.5350 S.3   101  CYS101     -0.0800
    139  N         26.7890   18.1060  -13.0600 N.am  102  GLY102     -0.1942
    140  CA        27.7200   17.0220  -13.3810 C.3   102  GLY102      0.2014
    141  C         28.8000   17.5760  -14.3470 C.2   102  GLY102      0.2639
    142  O         28.4870   18.2710  -15.3090 O.2   102  GLY102     -0.2714
    143  N         30.0680   17.3230  -14.0410 N.am  103  THR103     -0.1950
    144  CA        31.1860   17.8110  -14.8480 C.3   103  THR103      0.1897
    145  C         32.2140   16.7030  -14.9830 C.2   103  THR103      0.2313
    146  O         32.2080   15.7260  -14.1800 O.2   103  THR103     -0.2863
    147  CB        31.9560   19.0270  -14.2300 C.3   103  THR103      0.1794
    148  OG1       32.6760   18.6170  -13.0740 O.3   103  THR103     -0.2208
    149  CG2       31.0310   20.2670  -13.8700 C.3   103  THR103      0.0378
    150  N         36.9000   19.8800  -14.9920 N.3   107  ASN107     -0.1240
    151  CA        36.0970   21.0940  -14.7500 C.3   107  ASN107      0.1653
    152  C         35.3900   21.1160  -13.3920 C.2   107  ASN107      0.2266
    153  O         34.4880   21.9350  -13.1910 O.2   107  ASN107     -0.2867
    154  CB        35.0360   21.2350  -15.8180 C.3   107  ASN107      0.1155
    155  CG        35.6240   21.4700  -17.1810 C.2   107  ASN107      0.2627
    156  OD1       36.7410   21.9480  -17.3450 O.2   107  ASN107     -0.2716
    157  ND2       34.8710   21.1140  -18.1550 N.am  107  ASN107     -0.0877
    158  N         34.6820   24.3380  -11.2930 N.3   110  LYS110     -0.1231
    159  CA        33.6040   25.2890  -11.7130 C.3   110  LYS110      0.1693
    160  C         32.2220   24.5790  -11.7600 C.2   110  LYS110      0.2593
    161  O         31.3130   24.9470  -12.5300 O.2   110  LYS110     -0.2718
    162  CB        33.9670   25.9920  -13.0160 C.3   110  LYS110      0.0285
    163  CG        34.2420   25.0780  -14.1840 C.3   110  LYS110      0.0035
    164  CD        34.4730   25.8910  -15.4300 C.3   110  LYS110      0.0206
    165  CE        34.7640   24.9230  -16.5260 C.3   110  LYS110      0.1093
    166  NZ        34.9200   25.5970  -17.7950 N.3   110  LYS110     -0.1314
    167  N         32.0680   23.5410  -10.9490 N.am  111  SER111     -0.1938
    168  CA        30.8050   22.7680  -10.9510 C.3   111  SER111      0.2055
    169  C         29.6420   23.3870  -10.1110 C.2   111  SER111      0.2644
    170  O         28.5050   23.0510  -10.3600 O.2   111  SER111     -0.2714
    171  CB        31.0620   21.3670  -10.3870 C.3   111  SER111      0.2130
    172  OG        31.3950   21.4470   -8.9860 O.3   111  SER111     -0.2179
    173  N         29.9500   24.2470   -9.1460 N.am  112  THR112     -0.1936
    174  CA        29.0060   24.5850   -8.1140 C.3   112  THR112      0.2028
    175  C         28.7180   26.0610   -8.0060 C.2   112  THR112      0.2642
    176  O         29.6600   26.8580   -7.7350 O.2   112  THR112     -0.2714
    177  CB        29.4070   24.0150   -6.7450 C.3   112  THR112      0.1808
    178  OG1       29.7610   22.6060   -6.8780 O.3   112  THR112     -0.2208
    179  CG2       28.2110   24.1520   -5.7900 C.3   112  THR112      0.0379
    180  N         27.4280   26.4280   -8.2490 N.am  113  LEU113     -0.1977
    181  CA        26.9190   27.8240   -7.9770 C.3   113  LEU113      0.1596
    182  C         26.3470   27.9220   -6.5630 C.2   113  LEU113      0.2287
    183  O         25.8060   26.9370   -5.9940 O.2   113  LEU113     -0.2864
    184  CB        25.8040   28.2080   -8.9410 C.3   113  LEU113      0.0297
    185  CG        26.1080   28.4080  -10.4060 C.3   113  LEU113      0.0022
    186  CD1       24.8750   28.5460  -11.2340 C.3   113  LEU113      0.0001
    187  CD2       26.8900   29.6550  -10.5350 C.3   113  LEU113      0.0001
    188  N         17.7430   32.4710   -1.8550 N.3   117  ASP117     -0.1239
    189  CA        16.3570   32.6650   -2.2770 C.3   117  ASP117      0.1674
    190  C         15.5190   32.9590   -1.0370 C.2   117  ASP117      0.2266
    191  O         15.6530   32.2990   -0.0230 O.2   117  ASP117     -0.2867
    192  CB        15.7960   31.4050   -2.9760 C.3   117  ASP117      0.1410
    193  CG        16.3030   31.1660   -4.3500 C.2   117  ASP117      0.3668
    194  OD1       17.0400   31.9660   -4.9170 O.co2 117  ASP117     -0.2456
    195  OD2       15.9500   30.1060   -4.9160 O.co2 117  ASP117     -0.2456
@<TRIPOS>BOND
     1    58    57    2
     2    59    57   am
     3    57    56    1
     4    56    53    1
     5   157   155   am
     6    53    54    1
     7    53    52    1
     8   166   165    1
     9    63    62    2
    10    51    50    2
    11    60    54   am
    12    60    61    1
    13    54    55    2
    14   156   155    2
    15    62    61    1
    16    79    80    1
    17   155   154    1
    18    80    83    1
    19    80    81    1
    20    52    50   am
    21    50    49    1
    22    61    64    1
    23   165   164    1
    24    81    82    2
    25    49    48    1
    26    48    43   am
    27   154   151    1
    28   164   163    1
    29   142   141    2
    30    68    67    2
    31   150   151    1
    32   145   144    1
    33   145   146    2
    34    43    42    1
    35    43    44    2
    36   144   147    1
    37   144   143    1
    38   151   152    1
    39    42    41    1
    40    42    45    1
    41   141   143   am
    42   141   140    1
    43   147   149    1
    44   147   148    1
    45   163   162    1
    46    38    37    2
    47    67    66    1
    48    45    46    1
    49    45    47    1
    50   138   137    1
    51   137   134    1
    52   152   153    2
    53   140   139    1
    54    89    88    1
    55    84    85    1
    56    69    66    1
    57    69    70    1
    58   139   135   am
    59   162   159    1
    60    37    36    1
    61    66    65    1
    62    88    85    1
    63   161   160    2
    64   135   134    1
    65   135   136    2
    66   134   133    1
    67    85    86    1
    68    39    40    1
    69    39    36    1
    70    75    72   ar
    71    75    77   ar
    72    70    72   ar
    73    70    71   ar
    74    36    35    1
    75   160   159    1
    76   160   167   am
    77   159   158    1
    78    72    74   ar
    79    77    78   ar
    80    87    86    2
    81   186   185    1
    82    12    11    2
    83    71    73   ar
    84   168   167    1
    85   168   171    1
    86   168   169    1
    87   132   130    1
    88   187   185    1
    89   131   130    1
    90    74    73   ar
    91    74    76   ar
    92   185   184    1
    93   171   172    1
    94   170   169    2
    95    78    76   ar
    96    26    25    2
    97   169   173   am
    98    11    10    1
    99   130   129    1
   100    16    14    1
   101    22    21    1
   102    13    10    1
   103    13    14    1
   104    25    24    1
   105    10     9    1
   106    17    18    1
   107   173   174    1
   108    18    21    1
   109    18    19    1
   110   184   181    1
   111    14    15    1
   112   129   126    1
   113   128   127    2
   114   180   175   am
   115   180   181    1
   116    29    31   ar
   117    29    28   ar
   118   174   175    1
   119   174   177    1
   120    19    20    2
   121    95    94    1
   122   127   126    1
   123   175   176    2
   124   181   182    1
   125    24    23    1
   126    24    27    1
   127    31    33   ar
   128    27    28    1
   129   126   125    1
   130   124   123   ar
   131   124   122   ar
   132    90    91    1
   133    28    30   ar
   134   123   121   ar
   135     7     6    2
   136   178   177    1
   137   122   120   ar
   138    94    91    1
   139    94    96    1
   140   177   179    1
   141   182   183    2
   142    33    34    1
   143    33    32   ar
   144    91    92    1
   145     4     3    2
   146     8     6   am
   147   110   108   ar
   148   110   109   ar
   149     6     5    1
   150    30    32   ar
   151   121   118   ar
   152   120   118   ar
   153   120   119   ar
   154   108   106   ar
   155     3     2    1
   156   118   116   ar
   157   109   107   ar
   158    92    93    2
   159   194   193   ar
   160   195   193   ar
   161     1     2    1
   162   119   117   ar
   163     5     2    1
   164   193   192    1
   165   106   105   ar
   166   106   104   ar
   167   116   117   ar
   168   116   115    1
   169   107   104   ar
   170   105   103   ar
   171   104   102   ar
   172   115   112    1
   173   192   189    1
   174   114   113    2
   175   113   112    1
   176   103   102   ar
   177   189   188    1
   178   189   190    1
   179   102   101    1
   180   112   111    1
   181    97    98    1
   182   190   191    2
   183   101    98    1
   184    98    99    1
   185    99   100    2
