@<TRIPOS>MOLECULE
tmp/5k68A00.pdb
 202 192 0 0 0
SMALL
GASTEIGER

@<TRIPOS>ATOM
      1  N          9.4850   32.6900   -4.8230 N.3    12  ASN12      -0.1240
      2  CA        10.7270   33.3840   -4.5180 C.3    12  ASN12       0.1653
      3  C         10.8760   34.6950   -5.3080 C.2    12  ASN12       0.2266
      4  O         10.0180   35.0390   -6.1360 O.2    12  ASN12      -0.2867
      5  CB        11.9610   32.4900   -4.5600 C.3    12  ASN12       0.1155
      6  CG        12.3860   32.1000   -5.9470 C.2    12  ASN12       0.2627
      7  OD1       11.9380   32.7020   -6.9390 O.2    12  ASN12      -0.2716
      8  ND2       13.3570   31.1980   -6.0520 N.am   12  ASN12      -0.0877
      9  N         12.7310   35.4170   -7.7370 N.3    14  LEU14      -0.1245
     10  CA        12.9090   35.2050   -9.1650 C.3    14  LEU14       0.1561
     11  C         11.5740   34.8920   -9.8390 C.2    14  LEU14       0.2260
     12  O         11.5280   34.8270  -11.1020 O.2    14  LEU14      -0.2867
     13  CB        13.8230   34.0320   -9.3920 C.3    14  LEU14       0.0270
     14  CG        15.2430   34.1880   -8.8600 C.3    14  LEU14       0.0019
     15  CD1       16.0710   32.9540   -8.9500 C.3    14  LEU14       0.0001
     16  CD2       15.9790   35.3360   -9.6180 C.3    14  LEU14       0.0001
     17  N          9.9970   31.9460   -9.1290 N.3    16  SER16      -0.1217
     18  CA         9.8620   30.5250   -9.0410 C.3    16  SER16       0.1889
     19  C          8.7220   30.0890   -8.0510 C.2    16  SER16       0.2288
     20  O          8.4680   30.8390   -7.0950 O.2    16  SER16      -0.2866
     21  CB        11.1500   29.8810   -8.6870 C.3    16  SER16       0.2089
     22  OG        12.1570   30.2410   -9.6310 O.3    16  SER16      -0.2183
     23  N          8.8190   21.8180   -7.7530 N.3    32  TYR32      -0.1241
     24  CA         9.4720   23.1020   -7.8920 C.3    32  TYR32       0.1605
     25  C          9.4050   23.4600   -9.3710 C.2    32  TYR32       0.2264
     26  O          9.6880   22.6040  -10.2460 O.2    32  TYR32      -0.2867
     27  CB        10.9940   22.9960   -7.4870 C.3    32  TYR32       0.0534
     28  CG        11.5810   24.3300   -7.1630 C.ar   32  TYR32      -0.0201
     29  CD1       12.0850   25.1710   -8.1140 C.ar   32  TYR32      -0.0009
     30  CD2       11.6160   24.8040   -5.8180 C.ar   32  TYR32      -0.0009
     31  CE1       12.6600   26.3700   -7.8450 C.ar   32  TYR32       0.0417
     32  CE2       12.1220   26.0770   -5.5290 C.ar   32  TYR32       0.0417
     33  CZ        12.6870   26.8510   -6.5400 C.ar   32  TYR32       0.1957
     34  OH        13.1870   28.0820   -6.2010 O.3    32  TYR32      -0.2866
     35  N         11.1460   26.4590  -11.6890 N.3    34  SER34      -0.1217
     36  CA        12.0270   27.5960  -11.7580 C.3    34  SER34       0.1889
     37  C         11.6190   28.5670  -12.8390 C.2    34  SER34       0.2288
     38  O         11.3900   28.1420  -14.0100 O.2    34  SER34      -0.2866
     39  CB        13.4270   27.1570  -11.9900 C.3    34  SER34       0.2089
     40  OG        14.2990   28.2570  -11.9910 O.3    34  SER34      -0.2183
     41  N         13.7900   30.6320  -13.9290 N.3    36  VAL36      -0.1231
     42  CA        15.0690   30.8830  -14.6610 C.3    36  VAL36       0.1692
     43  C         15.8380   29.5890  -14.8970 C.2    36  VAL36       0.2593
     44  O         15.5860   28.5200  -14.2860 O.2    36  VAL36      -0.2718
     45  CB        15.9590   31.8530  -13.8750 C.3    36  VAL36       0.0266
     46  CG1       15.3010   33.2250  -13.7030 C.3    36  VAL36       0.0020
     47  CG2       16.4230   31.2820  -12.5370 C.3    36  VAL36       0.0020
     48  N         16.8100   29.6770  -15.7980 N.am   37  GLY37      -0.1942
     49  CA        17.6990   28.6080  -16.0670 C.3    37  GLY37       0.2014
     50  C         17.2250   27.5630  -17.0140 C.2    37  GLY37       0.2639
     51  O         16.2130   27.7520  -17.7030 O.2    37  GLY37      -0.2714
     52  N         17.9000   26.4200  -17.0150 N.am   38  ASN38      -0.1958
     53  CA        17.6180   25.3300  -17.9850 C.3    38  ASN38       0.1819
     54  C         16.5450   24.4070  -17.3990 C.2    38  ASN38       0.2621
     55  O         16.8450   23.3500  -16.8470 O.2    38  ASN38      -0.2715
     56  CB        18.8670   24.6270  -18.3640 C.3    38  ASN38       0.1195
     57  CG        18.6270   23.5940  -19.4640 C.2    38  ASN38       0.2630
     58  OD1       17.5540   23.5640  -20.0690 O.2    38  ASN38      -0.2716
     59  ND2       19.5740   22.7390  -19.6770 N.am   38  ASN38      -0.0877
     60  N         15.3220   24.8970  -17.3950 N.am   39  ALA39      -0.1977
     61  CA        14.2040   24.3100  -16.6320 C.3    39  ALA39       0.1597
     62  C         12.9340   24.6570  -17.3480 C.2    39  ALA39       0.2287
     63  O         12.7360   25.7630  -17.7730 O.2    39  ALA39      -0.2864
     64  CB        14.2290   24.8320  -15.2060 C.3    39  ALA39       0.0319
     65  N         17.4800   18.4180  -11.6710 N.3    68  TRP68      -0.1241
     66  CA        16.8120   19.1490  -12.7680 C.3    68  TRP68       0.1605
     67  C         16.5540   18.2630  -13.9990 C.2    68  TRP68       0.2264
     68  O         16.9440   18.5920  -15.1400 O.2    68  TRP68      -0.2867
     69  CB        17.6640   20.3820  -13.0860 C.3    68  TRP68       0.0550
     70  CG        17.6740   21.3210  -11.9760 C.ar   68  TRP68       0.0003
     71  CD1       18.7400   21.5720  -11.1680 C.ar   68  TRP68       0.0946
     72  CD2       16.5980   22.1480  -11.5450 C.ar   68  TRP68       0.0152
     73  NE1       18.3860   22.5040  -10.2030 N.ar   68  TRP68      -0.2442
     74  CE2       17.0530   22.8250  -10.3860 C.ar   68  TRP68       0.0810
     75  CE3       15.2880   22.3770  -12.0010 C.ar   68  TRP68       0.0012
     76  CZ2       16.2880   23.7880   -9.7650 C.ar   68  TRP68       0.0191
     77  CZ3       14.4920   23.2680  -11.3410 C.ar   68  TRP68       0.0001
     78  CH2       14.9680   23.9500  -10.1950 C.ar   68  TRP68       0.0015
     79  N         18.9340   19.0270  -17.1970 N.3    75  ALA75      -0.1245
     80  CA        19.9890   19.9660  -17.0300 C.3    75  ALA75       0.1562
     81  C         21.2540   19.3730  -16.3280 C.2    75  ALA75       0.2260
     82  O         22.1960   20.1410  -16.0510 O.2    75  ALA75      -0.2867
     83  CB        19.5650   21.2330  -16.3870 C.3    75  ALA75       0.0290
     84  N         22.0480   18.4500  -13.3080 N.3    77  SER77      -0.1217
     85  CA        22.4080   19.3220  -12.2150 C.3    77  SER77       0.1889
     86  C         21.3970   19.1400  -11.1120 C.2    77  SER77       0.2288
     87  O         20.3140   18.5770  -11.3180 O.2    77  SER77      -0.2866
     88  CB        22.5020   20.8260  -12.5930 C.3    77  SER77       0.2089
     89  OG        21.3530   21.2340  -13.3450 O.3    77  SER77      -0.2183
     90  N         19.9970   21.2100   -7.3090 N.3    79  THR79      -0.1218
     91  CA        20.0980   22.3100   -6.3330 C.3    79  THR79       0.1862
     92  C         19.6010   21.7820   -5.0330 C.2    79  THR79       0.2287
     93  O         18.5810   21.1220   -4.9430 O.2    79  THR79      -0.2866
     94  CB        19.2720   23.4670   -6.7560 C.3    79  THR79       0.1770
     95  OG1       19.7210   23.9090   -8.0550 O.3    79  THR79      -0.2211
     96  CG2       19.3460   24.6500   -5.8110 C.3    79  THR79       0.0375
     97  N         18.5260   23.5890   -1.3040 N.3    81  TRP81      -0.1241
     98  CA        18.2650   24.7550   -0.4920 C.3    81  TRP81       0.1605
     99  C         18.3340   24.3700    0.9430 C.2    81  TRP81       0.2264
    100  O         17.6780   23.4090    1.3310 O.2    81  TRP81      -0.2867
    101  CB        16.8430   25.2720   -0.7980 C.3    81  TRP81       0.0550
    102  CG        16.6000   25.8920   -2.1610 C.ar   81  TRP81       0.0003
    103  CD1       16.5090   27.2470   -2.4040 C.ar   81  TRP81       0.0946
    104  CD2       16.3810   25.2200   -3.4090 C.ar   81  TRP81       0.0152
    105  NE1       16.2230   27.4480   -3.7450 N.ar   81  TRP81      -0.2442
    106  CE2       16.1110   26.2110   -4.3480 C.ar   81  TRP81       0.0810
    107  CE3       16.2770   23.8810   -3.7840 C.ar   81  TRP81       0.0012
    108  CZ2       15.7810   25.8720   -5.7030 C.ar   81  TRP81       0.0191
    109  CZ3       15.9270   23.5720   -5.1180 C.ar   81  TRP81       0.0001
    110  CH2       15.7010   24.5750   -6.0260 C.ar   81  TRP81       0.0015
    111  N         21.4810   28.3640   -1.2600 N.3    97  TRP97      -0.1241
    112  CA        21.4390   27.1790   -2.0700 C.3    97  TRP97       0.1605
    113  C         22.7430   26.9010   -2.7700 C.2    97  TRP97       0.2264
    114  O         23.5720   27.7970   -2.9610 O.2    97  TRP97      -0.2867
    115  CB        20.2930   27.2360   -3.1130 C.3    97  TRP97       0.0550
    116  CG        20.2040   28.4570   -4.0030 C.ar   97  TRP97       0.0003
    117  CD1       19.3610   29.5120   -3.8600 C.ar   97  TRP97       0.0946
    118  CD2       20.9950   28.7260   -5.1620 C.ar   97  TRP97       0.0152
    119  NE1       19.5400   30.3900   -4.8530 N.ar   97  TRP97      -0.2442
    120  CE2       20.5600   29.9460   -5.6560 C.ar   97  TRP97       0.0810
    121  CE3       22.0210   28.0490   -5.8170 C.ar   97  TRP97       0.0012
    122  CZ2       21.0930   30.4860   -6.8190 C.ar   97  TRP97       0.0191
    123  CZ3       22.5690   28.6030   -6.9740 C.ar   97  TRP97       0.0001
    124  CH2       22.1290   29.8160   -7.4190 C.ar   97  TRP97       0.0015
    125  N         23.9920   24.7660   -6.2480 N.3    99  LEU99      -0.1245
    126  CA        23.5820   24.1080   -7.5120 C.3    99  LEU99       0.1561
    127  C         24.8760   23.4810   -8.0870 C.2    99  LEU99       0.2260
    128  O         25.8020   24.1700   -8.4060 O.2    99  LEU99      -0.2867
    129  CB        22.9830   25.0950   -8.4680 C.3    99  LEU99       0.0270
    130  CG        22.5720   24.6000   -9.8960 C.3    99  LEU99       0.0019
    131  CD1       21.8180   25.7600  -10.4920 C.3    99  LEU99       0.0001
    132  CD2       23.6700   24.1170  -10.7720 C.3    99  LEU99       0.0001
    133  N         26.5460   21.0900  -10.9990 N.3   101  CYS101     -0.1221
    134  CA        26.4420   20.4710  -12.3000 C.3   101  CYS101      0.1808
    135  C         27.2540   19.1840  -12.2970 C.2   101  CYS101      0.2602
    136  O         28.3380   19.1380  -11.7410 O.2   101  CYS101     -0.2717
    137  CB        26.9800   21.3650  -13.3640 C.3   101  CYS101      0.0970
    138  SG        25.9720   22.8140  -13.6110 S.3   101  CYS101     -0.0800
    139  N         26.7830   18.1700  -13.0520 N.am  102  GLY102     -0.1942
    140  CA        27.6820   17.0600  -13.3910 C.3   102  GLY102      0.2014
    141  C         28.7640   17.5730  -14.3260 C.2   102  GLY102      0.2640
    142  O         28.4640   18.1810  -15.3660 O.2   102  GLY102     -0.2714
    143  N         30.0070   17.3100  -14.0280 N.am  103  THR103     -0.1936
    144  CA        31.1410   17.8490  -14.8040 C.3   103  THR103      0.2028
    145  C         32.1940   16.7100  -14.9960 C.2   103  THR103      0.2642
    146  O         32.2520   15.7370  -14.2370 O.2   103  THR103     -0.2714
    147  CB        31.8480   19.0410  -14.1710 C.3   103  THR103      0.1808
    148  OG1       32.5940   18.6090  -12.9800 O.3   103  THR103     -0.2208
    149  CG2       30.8980   20.1200  -13.7900 C.3   103  THR103      0.0379
    150  N         33.0710   16.9550  -15.9650 N.am  104  THR104     -0.1950
    151  CA        34.3030   16.1430  -15.9540 C.3   104  THR104      0.1897
    152  C         35.1410   16.4970  -14.7140 C.2   104  THR104      0.2313
    153  O         35.0010   17.5820  -14.1120 O.2   104  THR104     -0.2863
    154  CB        35.1490   16.3390  -17.2350 C.3   104  THR104      0.1794
    155  OG1       35.4420   17.7300  -17.2880 O.3   104  THR104     -0.2208
    156  CG2       34.2930   15.9970  -18.4520 C.3   104  THR104      0.0378
    157  N         36.8110   19.8970  -14.9820 N.3   107  ASN107     -0.1240
    158  CA        35.9720   21.0250  -14.7920 C.3   107  ASN107      0.1653
    159  C         35.2850   21.0830  -13.4140 C.2   107  ASN107      0.2266
    160  O         34.4430   21.9640  -13.1940 O.2   107  ASN107     -0.2867
    161  CB        34.9220   21.1390  -15.8750 C.3   107  ASN107      0.1155
    162  CG        35.5370   21.4200  -17.2140 C.2   107  ASN107      0.2627
    163  OD1       36.5460   22.0430  -17.3390 O.2   107  ASN107     -0.2716
    164  ND2       34.9480   20.8550  -18.1920 N.am  107  ASN107     -0.0877
    165  N         34.6910   24.2930  -11.2630 N.3   110  LYS110     -0.1231
    166  CA        33.6720   25.2240  -11.6880 C.3   110  LYS110      0.1693
    167  C         32.2540   24.5380  -11.7000 C.2   110  LYS110      0.2593
    168  O         31.3360   24.9550  -12.4990 O.2   110  LYS110     -0.2718
    169  CB        33.9910   25.9580  -13.0030 C.3   110  LYS110      0.0285
    170  CG        34.2420   25.1330  -14.1840 C.3   110  LYS110      0.0035
    171  CD        34.4460   25.9890  -15.3960 C.3   110  LYS110      0.0206
    172  CE        34.8660   25.0770  -16.4880 C.3   110  LYS110      0.1093
    173  NZ        35.0070   25.7880  -17.7360 N.3   110  LYS110     -0.1314
    174  N         32.0950   23.4850  -10.9020 N.am  111  SER111     -0.1938
    175  CA        30.8450   22.7810  -10.8960 C.3   111  SER111      0.2055
    176  C         29.6810   23.3690  -10.0720 C.2   111  SER111      0.2644
    177  O         28.5110   22.9850  -10.3130 O.2   111  SER111     -0.2714
    178  CB        31.0920   21.3360  -10.3630 C.3   111  SER111      0.2130
    179  OG        31.4360   21.4290   -8.9910 O.3   111  SER111     -0.2179
    180  N         29.9750   24.2520   -9.0950 N.am  112  THR112     -0.1936
    181  CA        28.9580   24.5750   -8.1280 C.3   112  THR112      0.2028
    182  C         28.7150   26.1040   -7.9940 C.2   112  THR112      0.2642
    183  O         29.6540   26.8670   -7.7300 O.2   112  THR112     -0.2714
    184  CB        29.3780   24.0380   -6.7760 C.3   112  THR112      0.1808
    185  OG1       29.7770   22.6530   -6.8610 O.3   112  THR112     -0.2208
    186  CG2       28.2280   24.1180   -5.7620 C.3   112  THR112      0.0379
    187  N         27.4330   26.4740   -8.2240 N.am  113  LEU113     -0.1977
    188  CA        26.9610   27.8400   -7.9910 C.3   113  LEU113      0.1596
    189  C         26.3610   27.9020   -6.5650 C.2   113  LEU113      0.2287
    190  O         25.8330   26.9060   -6.0200 O.2   113  LEU113     -0.2864
    191  CB        25.8560   28.1960   -8.9580 C.3   113  LEU113      0.0297
    192  CG        26.2540   28.3900  -10.3800 C.3   113  LEU113      0.0022
    193  CD1       24.9510   28.4900  -11.2330 C.3   113  LEU113      0.0001
    194  CD2       27.0130   29.5930  -10.5720 C.3   113  LEU113      0.0001
    195  N         17.8080   32.4570   -1.8820 N.3   117  ASP117     -0.1239
    196  CA        16.4220   32.6910   -2.2570 C.3   117  ASP117      0.1674
    197  C         15.5580   32.9140   -1.0170 C.2   117  ASP117      0.2266
    198  O         15.6980   32.2350   -0.0130 O.2   117  ASP117     -0.2867
    199  CB        15.8300   31.4800   -3.0020 C.3   117  ASP117      0.1410
    200  CG        16.3290   31.2440   -4.4120 C.2   117  ASP117      0.3668
    201  OD1       17.0730   32.0440   -4.9790 O.co2 117  ASP117     -0.2456
    202  OD2       15.9750   30.1300   -4.8940 O.co2 117  ASP117     -0.2456
@<TRIPOS>BOND
     1    58    57    2
     2    59    57   am
     3    57    56    1
     4   156   154    1
     5    56    53    1
     6   164   162   am
     7    53    54    1
     8    53    52    1
     9    63    62    2
    10   173   172    1
    11    51    50    2
    12    54    60   am
    13    54    55    2
    14    60    61    1
    15    62    61    1
    16   163   162    2
    17   155   154    1
    18   154   151    1
    19   162   161    1
    20    79    80    1
    21    80    83    1
    22    80    81    1
    23    52    50   am
    24    50    49    1
    25    61    64    1
    26   172   171    1
    27    81    82    2
    28    49    48    1
    29   150   151    1
    30   150   145   am
    31   151   152    1
    32   161   158    1
    33    48    43   am
    34   171   170    1
    35   142   141    2
    36    68    67    2
    37   145   144    1
    38   145   146    2
    39   157   158    1
    40    43    42    1
    41    43    44    2
    42   144   147    1
    43   144   143    1
    44   158   159    1
    45   152   153    2
    46    42    41    1
    47    42    45    1
    48   141   143   am
    49   141   140    1
    50   170   169    1
    51   147   149    1
    52   147   148    1
    53    38    37    2
    54    67    66    1
    55    45    46    1
    56    45    47    1
    57   138   137    1
    58   159   160    2
    59   140   139    1
    60   137   134    1
    61    89    88    1
    62    84    85    1
    63    69    66    1
    64    69    70    1
    65   139   135   am
    66   169   166    1
    67    37    36    1
    68    66    65    1
    69    88    85    1
    70   168   167    2
    71   134   135    1
    72   134   133    1
    73   135   136    2
    74    85    86    1
    75    75    72   ar
    76    75    77   ar
    77    40    39    1
    78    39    36    1
    79    70    72   ar
    80    70    71   ar
    81    36    35    1
    82   167   166    1
    83   167   174   am
    84   166   165    1
    85    72    74   ar
    86    77    78   ar
    87    87    86    2
    88   193   192    1
    89    71    73   ar
    90    12    11    2
    91   174   175    1
    92   175   178    1
    93   175   176    1
    94   132   130    1
    95   194   192    1
    96   131   130    1
    97    74    73   ar
    98    74    76   ar
    99   192   191    1
   100   178   179    1
   101   177   176    2
   102    26    25    2
   103    78    76   ar
   104   176   180   am
   105   130   129    1
   106    11    10    1
   107    22    21    1
   108    16    14    1
   109    13    10    1
   110    13    14    1
   111    25    24    1
   112    10     9    1
   113    17    18    1
   114   180   181    1
   115    18    21    1
   116    18    19    1
   117   191   188    1
   118    15    14    1
   119   129   126    1
   120   128   127    2
   121   187   182   am
   122   187   188    1
   123   181   182    1
   124   181   184    1
   125    29    31   ar
   126    29    28   ar
   127   127   126    1
   128    95    94    1
   129    19    20    2
   130   182   183    2
   131   188   189    1
   132    24    23    1
   133    24    27    1
   134    31    33   ar
   135   126   125    1
   136    27    28    1
   137   124   123   ar
   138   124   122   ar
   139    90    91    1
   140    28    30   ar
   141   123   121   ar
   142     7     6    2
   143   185   184    1
   144   122   120   ar
   145   184   186    1
   146    94    91    1
   147    94    96    1
   148   189   190    2
   149    33    34    1
   150    33    32   ar
   151    91    92    1
   152     4     3    2
   153     8     6   am
   154   110   108   ar
   155   110   109   ar
   156     6     5    1
   157    30    32   ar
   158   121   118   ar
   159   108   106   ar
   160   120   118   ar
   161   120   119   ar
   162     3     2    1
   163   118   116   ar
   164   109   107   ar
   165    92    93    2
   166   201   200   ar
   167   202   200   ar
   168   119   117   ar
   169     1     2    1
   170     5     2    1
   171   200   199    1
   172   106   105   ar
   173   106   104   ar
   174   116   117   ar
   175   116   115    1
   176   107   104   ar
   177   105   103   ar
   178   104   102   ar
   179   115   112    1
   180   199   196    1
   181   114   113    2
   182   113   112    1
   183   103   102   ar
   184   196   195    1
   185   196   197    1
   186   102   101    1
   187   112   111    1
   188    97    98    1
   189   197   198    2
   190   101    98    1
   191    98    99    1
   192    99   100    2
