@<TRIPOS>MOLECULE
tmp/5k69B00.pdb
 119 116 0 0 0
SMALL
GASTEIGER

@<TRIPOS>ATOM
      1  N         56.2840  -10.5710   97.7020 N.3   246  MET246     -0.1245
      2  CA        55.3360  -11.5710   98.1490 C.3   246  MET246      0.1570
      3  C         56.0350  -12.8960   98.4200 C.2   246  MET246      0.2261
      4  O         56.6010  -13.5150   97.5220 O.2   246  MET246     -0.2867
      5  CB        54.2150  -11.7270   97.1270 C.3   246  MET246      0.0387
      6  CG        53.3610  -10.4730   97.0230 C.3   246  MET246      0.0595
      7  SD        51.8450  -10.6780   96.0730 S.3   246  MET246     -0.1393
      8  CE        52.4850  -11.1540   94.4780 C.3   246  MET246      0.0692
      9  N         52.2900  -17.1680  104.0570 N.3   251  TYR251     -0.1241
     10  CA        50.9510  -17.7420  103.9760 C.3   251  TYR251      0.1605
     11  C         50.9570  -19.2650  104.0710 C.2   251  TYR251      0.2264
     12  O         50.0250  -19.9220  103.6150 O.2   251  TYR251     -0.2867
     13  CB        50.2760  -17.2960  102.6790 C.3   251  TYR251      0.0534
     14  CG        50.5390  -15.8430  102.3710 C.ar  251  TYR251     -0.0201
     15  CD1       49.9730  -14.8370  103.1430 C.ar  251  TYR251     -0.0009
     16  CD2       51.3720  -15.4740  101.3240 C.ar  251  TYR251     -0.0009
     17  CE1       50.2200  -13.5030  102.8750 C.ar  251  TYR251      0.0417
     18  CE2       51.6250  -14.1410  101.0450 C.ar  251  TYR251      0.0417
     19  CZ        51.0470  -13.1610  101.8260 C.ar  251  TYR251      0.1957
     20  OH        51.2960  -11.8340  101.5560 O.3   251  TYR251     -0.2866
     21  N         56.9410  -19.6090   96.2990 N.3   261  TYR261     -0.1241
     22  CA        57.3970  -18.4990   95.4730 C.3   261  TYR261      0.1605
     23  C         58.0540  -17.4100   96.3140 C.2   261  TYR261      0.2264
     24  O         57.9670  -17.4210   97.5410 O.2   261  TYR261     -0.2867
     25  CB        56.2240  -17.8970   94.7000 C.3   261  TYR261      0.0534
     26  CG        55.1130  -17.4370   95.6190 C.ar  261  TYR261     -0.0201
     27  CD1       55.1960  -16.2200   96.2890 C.ar  261  TYR261     -0.0009
     28  CD2       53.9820  -18.2180   95.8170 C.ar  261  TYR261     -0.0009
     29  CE1       54.1980  -15.8040   97.1440 C.ar  261  TYR261      0.0417
     30  CE2       52.9650  -17.8030   96.6620 C.ar  261  TYR261      0.0417
     31  CZ        53.0830  -16.6000   97.3280 C.ar  261  TYR261      0.1957
     32  OH        52.0710  -16.1840   98.1630 O.3   261  TYR261     -0.2866
     33  N         58.2850  -13.2520   95.0440 N.3   263  THR263     -0.1218
     34  CA        58.2170  -12.3540   93.8970 C.3   263  THR263      0.1862
     35  C         57.9920  -10.8990   94.2880 C.2   263  THR263      0.2287
     36  O         57.1080  -10.5820   95.0870 O.2   263  THR263     -0.2866
     37  CB        57.0910  -12.7750   92.9300 C.3   263  THR263      0.1770
     38  OG1       57.1820  -14.1810   92.6650 O.3   263  THR263     -0.2211
     39  CG2       57.1900  -12.0000   91.6210 C.3   263  THR263      0.0375
     40  N         46.6580  -14.8280  101.2630 N.3   275  GLY275     -0.1225
     41  CA        47.6380  -14.3000  100.3330 C.3   275  GLY275      0.1811
     42  C         47.1440  -14.0090   98.9290 C.2   275  GLY275      0.2280
     43  O         47.9380  -13.9650   97.9870 O.2   275  GLY275     -0.2866
     44  N         46.0630  -11.4640   96.2300 N.3   277  PHE277     -0.1241
     45  CA        46.2350  -10.0510   95.9170 C.3   277  PHE277      0.1605
     46  C         45.6710   -9.7310   94.5380 C.2   277  PHE277      0.2264
     47  O         45.6980  -10.5730   93.6400 O.2   277  PHE277     -0.2867
     48  CB        47.7150   -9.6530   95.9390 C.3   277  PHE277      0.0534
     49  CG        48.3360   -9.6210   97.3090 C.ar  277  PHE277     -0.0203
     50  CD1       48.6440  -10.7940   97.9770 C.ar  277  PHE277     -0.0042
     51  CD2       48.6620   -8.4120   97.9030 C.ar  277  PHE277     -0.0042
     52  CE1       49.2350  -10.7610   99.2290 C.ar  277  PHE277     -0.0003
     53  CE2       49.2560   -8.3720   99.1550 C.ar  277  PHE277     -0.0003
     54  CZ        49.5400   -9.5500   99.8170 C.ar  277  PHE277     -0.0000
     55  N         47.0120   -7.4190   91.7220 N.3   279  HIS279     -0.1241
     56  CA        48.3130   -6.7860   91.5210 C.3   279  HIS279      0.1621
     57  C         48.7550   -6.7540   90.0640 C.2   279  HIS279      0.2264
     58  O         48.1760   -7.4280   89.2080 O.2   279  HIS279     -0.2867
     59  CB        49.3810   -7.5100   92.3430 C.3   279  HIS279      0.0745
     60  CG        49.7030   -8.8790   91.8290 C.ar  279  HIS279      0.0817
     61  ND1       50.6800   -9.1070   90.8810 N.ar  279  HIS279     -0.2268
     62  CD2       49.1670  -10.0870   92.1130 C.ar  279  HIS279      0.1154
     63  CE1       50.7340  -10.3980   90.6120 C.ar  279  HIS279      0.1986
     64  NE2       49.8260  -11.0170   91.3460 N.ar  279  HIS279     -0.2212
     65  N         53.8740  -10.1120   83.2860 N.3   283  TRP283     -0.1241
     66  CA        54.3180  -11.3710   82.6940 C.3   283  TRP283      0.1605
     67  C         53.1770  -12.1950   82.0980 C.2   283  TRP283      0.2264
     68  O         53.4140  -13.1240   81.3230 O.2   283  TRP283     -0.2867
     69  CB        55.0630  -12.2070   83.7380 C.3   283  TRP283      0.0550
     70  CG        54.2560  -12.4960   84.9690 C.ar  283  TRP283      0.0003
     71  CD1       53.3490  -13.5060   85.1420 C.ar  283  TRP283      0.0946
     72  CD2       54.2830  -11.7680   86.2010 C.ar  283  TRP283      0.0152
     73  NE1       52.8100  -13.4480   86.4040 N.ar  283  TRP283     -0.2442
     74  CE2       53.3680  -12.3910   87.0760 C.ar  283  TRP283      0.0810
     75  CE3       54.9920  -10.6490   86.6510 C.ar  283  TRP283      0.0012
     76  CZ2       53.1440  -11.9310   88.3740 C.ar  283  TRP283      0.0191
     77  CZ3       54.7690  -10.1950   87.9390 C.ar  283  TRP283      0.0001
     78  CH2       53.8530  -10.8350   88.7850 C.ar  283  TRP283      0.0015
     79  N         46.6090  -18.4420   85.1710 N.3   293  THR293     -0.1203
     80  CA        48.0220  -18.8050   85.2140 C.3   293  THR293      0.1994
     81  C         48.6770  -18.5820   86.5770 C.2   293  THR293      0.2619
     82  O         49.8660  -18.8490   86.7410 O.2   293  THR293     -0.2717
     83  CB        48.8380  -18.0060   84.1700 C.3   293  THR293      0.1784
     84  OG1       48.7820  -16.6090   84.4840 O.3   293  THR293     -0.2211
     85  CG2       48.3000  -18.2240   82.7660 C.3   293  THR293      0.0376
     86  N         47.9170  -18.0910   87.5530 N.am  294  SER294     -0.1937
     87  CA        48.5290  -17.6360   88.8000 C.3   294  SER294      0.2055
     88  C         48.4630  -18.6600   89.9280 C.2   294  SER294      0.2643
     89  O         47.9060  -19.7460   89.7670 O.2   294  SER294     -0.2714
     90  CB        47.8800  -16.3280   89.2680 C.3   294  SER294      0.2130
     91  OG        46.7410  -16.5800   90.0700 O.3   294  SER294     -0.2179
     92  N         49.0440  -18.2920   91.0690 N.am  295  HIS295     -0.1959
     93  CA        49.0140  -19.1130   92.2760 C.3   295  HIS295      0.1787
     94  C         47.7260  -18.9020   93.0680 C.2   295  HIS295      0.2621
     95  O         47.4840  -19.5710   94.0730 O.2   295  HIS295     -0.2715
     96  CB        50.2210  -18.8050   93.1680 C.3   295  HIS295      0.0785
     97  CG        51.5080  -19.3990   92.6770 C.ar  295  HIS295      0.0821
     98  ND1       52.2790  -18.7940   91.7030 N.ar  295  HIS295     -0.2267
     99  CD2       52.1490  -20.5320   93.0220 C.ar  295  HIS295      0.1154
    100  CE1       53.3430  -19.5400   91.4740 C.ar  295  HIS295      0.1986
    101  NE2       53.2970  -20.5990   92.2560 N.ar  295  HIS295     -0.2212
    102  N         46.9060  -17.9630   92.6120 N.am  296  GLY296     -0.1940
    103  CA        45.6440  -17.6710   93.2650 C.3   296  GLY296      0.2014
    104  C         45.2900  -16.2030   93.1430 C.2   296  GLY296      0.2639
    105  O         44.1440  -15.8130   93.3530 O.2   296  GLY296     -0.2714
    106  N         46.2850  -15.3920   92.7950 N.am  297  CYS297     -0.1967
    107  CA        46.0990  -13.9550   92.6280 C.3   297  CYS297      0.1712
    108  C         45.1700  -13.5920   91.4920 C.2   297  CYS297      0.2296
    109  O         44.9290  -14.3840   90.5810 O.2   297  CYS297     -0.2864
    110  CB        47.4330  -13.2660   92.3700 C.3   297  CYS297      0.0983
    111  SG        48.5270  -13.2510   93.7600 S.3   297  CYS297     -0.0798
    112  N         45.7090  -11.5940   88.7080 N.3   299  ASN299     -0.1240
    113  CA        46.6570  -10.9270   87.8190 C.3   299  ASN299      0.1653
    114  C         45.9510   -9.9240   86.9180 C.2   299  ASN299      0.2266
    115  O         45.0070  -10.2880   86.2220 O.2   299  ASN299     -0.2867
    116  CB        47.3950  -11.9450   86.9440 C.3   299  ASN299      0.1155
    117  CG        48.4600  -12.7240   87.6980 C.2   299  ASN299      0.2627
    118  OD1       48.5910  -12.6220   88.9190 O.2   299  ASN299     -0.2716
    119  ND2       49.2300  -13.5150   86.9590 N.am  299  ASN299     -0.0877
@<TRIPOS>BOND
     1    68    67    2
     2    67    66    1
     3    66    65    1
     4    66    69    1
     5    85    83    1
     6    69    70    1
     7    83    84    1
     8    83    80    1
     9    70    71   ar
    10    70    72   ar
    11    71    73   ar
    12    79    80    1
    13    80    81    1
    14    72    75   ar
    15    72    74   ar
    16   115   114    2
    17    73    74   ar
    18    81    82    2
    19    81    86   am
    20    75    77   ar
    21   114   113    1
    22   116   117    1
    23   116   113    1
    24   119   117   am
    25    74    76   ar
    26    86    87    1
    27   117   118    2
    28   113   112    1
    29    77    78   ar
    30    76    78   ar
    31    87    90    1
    32    87    88    1
    33    58    57    2
    34    90    91    1
    35    89    88    2
    36    88    92   am
    37    57    56    1
    38   109   108    2
    39    63    61   ar
    40    63    64   ar
    41    61    60   ar
    42    92    93    1
    43    64    62   ar
    44   100    98   ar
    45   100   101   ar
    46   108   107    1
    47    56    55    1
    48    56    59    1
    49    39    37    1
    50    98    97   ar
    51    60    62   ar
    52    60    59    1
    53   101    99   ar
    54    93    94    1
    55    93    96    1
    56   110   107    1
    57   110   111    1
    58   102    94   am
    59   102   103    1
    60   107   106    1
    61    38    37    1
    62    97    99   ar
    63    97    96    1
    64   106   104   am
    65    37    34    1
    66    94    95    2
    67   104   103    1
    68   104   105    2
    69    47    46    2
    70    34    35    1
    71    34    33    1
    72    35    36    2
    73     8     7    1
    74    46    45    1
    75    25    22    1
    76    25    26    1
    77    22    21    1
    78    22    23    1
    79    26    28   ar
    80    26    27   ar
    81    28    30   ar
    82    45    48    1
    83    45    44    1
    84    48    49    1
    85     7     6    1
    86    27    29   ar
    87    23    24    2
    88    30    31   ar
    89     6     5    1
    90     5     2    1
    91    29    31   ar
    92    49    51   ar
    93    49    50   ar
    94    31    32    1
    95     4     3    2
    96     1     2    1
    97    51    53   ar
    98    50    52   ar
    99    43    42    2
   100     2     3    1
   101    42    41    1
   102    53    54   ar
   103    52    54   ar
   104    41    40    1
   105    18    16   ar
   106    18    19   ar
   107    16    14   ar
   108    20    19    1
   109    19    17   ar
   110    14    13    1
   111    14    15   ar
   112    13    10    1
   113    17    15   ar
   114    12    11    2
   115    10     9    1
   116    10    11    1
