@<TRIPOS>MOLECULE
tmp/5k6aA01.pdb
 135 129 0 0 0
SMALL
GASTEIGER

@<TRIPOS>ATOM
      1  N        -22.2070  -14.0930    4.7680 N.3    13  ARG13      -0.1245
      2  CA       -23.6190  -14.0660    5.2190 C.3    13  ARG13       0.1563
      3  C        -24.3190  -12.7860    4.7240 C.2    13  ARG13       0.2260
      4  O        -24.1090  -12.4050    3.5810 O.2    13  ARG13      -0.2867
      5  CB       -23.7030  -14.3340    6.7480 C.3    13  ARG13       0.0307
      6  CG       -23.2870  -15.7750    7.0980 C.3    13  ARG13       0.0489
      7  CD       -23.0380  -16.0500    8.5870 C.3    13  ARG13       0.2205
      8  NE       -24.2030  -15.7790    9.4620 N.pl3  13  ARG13      -0.0865
      9  CZ       -25.2580  -16.5940    9.6560 C.cat  13  ARG13       0.5346
     10  NH1      -25.3500  -17.7440    8.9980 N.pl3  13  ARG13       0.1354
     11  NH2      -26.2600  -16.2340   10.4940 N.pl3  13  ARG13       0.1354
     12  N        -22.7010   -7.6710   13.9740 N.3    94  SER94      -0.1217
     13  CA       -23.4740   -7.9140   15.1540 C.3    94  SER94       0.1889
     14  C        -22.9010   -9.1150   15.9360 C.2    94  SER94       0.2288
     15  O        -22.5820  -10.1770   15.3470 O.2    94  SER94      -0.2866
     16  CB       -24.9100   -8.2190   14.7260 C.3    94  SER94       0.2089
     17  OG       -25.7690   -8.6450   15.7900 O.3    94  SER94      -0.2183
     18  N        -24.0620  -11.9210   18.6870 N.3    96  PHE96      -0.1241
     19  CA       -25.3270  -12.5330   18.9990 C.3    96  PHE96       0.1605
     20  C        -25.1160  -13.8120   19.8390 C.2    96  PHE96       0.2264
     21  O        -24.6370  -14.8390   19.3090 O.2    96  PHE96      -0.2867
     22  CB       -26.0660  -12.8960   17.6980 C.3    96  PHE96       0.0534
     23  CG       -27.3060  -13.7230   17.9220 C.ar   96  PHE96      -0.0203
     24  CD1      -28.4680  -13.1460   18.4690 C.ar   96  PHE96      -0.0042
     25  CD2      -27.3500  -15.0500   17.5390 C.ar   96  PHE96      -0.0042
     26  CE1      -29.6330  -13.8850   18.6450 C.ar   96  PHE96      -0.0003
     27  CE2      -28.5150  -15.8010   17.7340 C.ar   96  PHE96      -0.0003
     28  CZ       -29.6630  -15.2140   18.2830 C.ar   96  PHE96      -0.0000
     29  N        -33.9200   -6.0410   13.9890 N.3   141  ASP141     -0.1239
     30  CA       -34.3870   -7.3760   14.2900 C.3   141  ASP141      0.1674
     31  C        -35.9370   -7.3040   14.3810 C.2   141  ASP141      0.2266
     32  O        -36.4670   -6.5160   15.1740 O.2   141  ASP141     -0.2867
     33  CB       -33.7460   -7.8760   15.6050 C.3   141  ASP141      0.1410
     34  CG       -33.9710   -9.3800   15.8320 C.2   141  ASP141      0.3668
     35  OD1      -35.1280   -9.8090   15.6110 O.co2 141  ASP141     -0.2456
     36  OD2      -32.9840  -10.1490   16.1760 O.co2 141  ASP141     -0.2456
     37  N        -37.9730   -9.3480   15.4720 N.3   143  MET143     -0.1245
     38  CA       -38.5180   -9.9250   16.6870 C.3   143  MET143      0.1570
     39  C        -38.0940   -9.1710   17.9360 C.2   143  MET143      0.2261
     40  O        -38.2170   -9.7630   19.0300 O.2   143  MET143     -0.2867
     41  CB       -38.1020  -11.4140   16.7760 C.3   143  MET143      0.0387
     42  CG       -38.3740  -12.2040   15.4550 C.3   143  MET143      0.0595
     43  SD       -40.1560  -12.3290   15.3510 S.3   143  MET143     -0.1393
     44  CE       -40.5410  -13.3590   16.7610 C.3   143  MET143      0.0692
     45  N        -28.4240   -8.7220   23.9650 N.3   153  TYR153     -0.1241
     46  CA       -28.5680   -8.6210   22.5340 C.3   153  TYR153      0.1605
     47  C        -29.8480   -7.8430   22.2440 C.2   153  TYR153      0.2264
     48  O        -29.8420   -6.9280   21.4340 O.2   153  TYR153     -0.2867
     49  CB       -28.6190  -10.0120   21.9210 C.3   153  TYR153      0.0534
     50  CG       -29.1070   -9.9530   20.5230 C.ar  153  TYR153     -0.0201
     51  CD1      -28.2230   -9.5470   19.4740 C.ar  153  TYR153     -0.0009
     52  CD2      -30.4380  -10.2540   20.2240 C.ar  153  TYR153     -0.0009
     53  CE1      -28.6940   -9.4970   18.1660 C.ar  153  TYR153      0.0417
     54  CE2      -30.9170  -10.1820   18.9180 C.ar  153  TYR153      0.0417
     55  CZ       -30.0650   -9.7740   17.9230 C.ar  153  TYR153      0.1957
     56  OH       -30.5240   -9.6800   16.6460 O.3   153  TYR153     -0.2866
     57  N        -30.2840   -4.2240   20.1680 N.3   157  LYS157     -0.1245
     58  CA       -31.1070   -4.0230   18.9720 C.3   157  LYS157      0.1561
     59  C        -32.1910   -2.9620   19.2120 C.2   157  LYS157      0.2260
     60  O        -32.4970   -2.1790   18.3290 O.2   157  LYS157     -0.2867
     61  CB       -31.6780   -5.3590   18.5170 C.3   157  LYS157      0.0271
     62  CG       -30.6140   -6.2300   17.8150 C.3   157  LYS157      0.0035
     63  CD       -29.9200   -5.5200   16.6050 C.3   157  LYS157      0.0206
     64  CE       -29.3600   -6.5250   15.6380 C.3   157  LYS157      0.1093
     65  NZ       -28.3850   -5.9320   14.6610 N.3   157  LYS157     -0.1314
     66  N        -36.4940  -11.3730   10.1940 N.3   184  GLY184     -0.1210
     67  CA       -37.0280  -12.2900   11.2180 C.3   184  GLY184      0.1956
     68  C        -35.9990  -13.3840   11.3170 C.2   184  GLY184      0.2612
     69  O        -34.9610  -13.2250   11.9680 O.2   184  GLY184     -0.2717
     70  N        -36.2840  -14.5240   10.7110 N.am  185  VAL185     -0.1965
     71  CA       -35.2000  -15.5130   10.5630 C.3   185  VAL185      0.1727
     72  C        -34.6740  -15.4580    9.1590 C.2   185  VAL185      0.2617
     73  O        -35.4300  -15.5210    8.2160 O.2   185  VAL185     -0.2715
     74  CB       -35.6100  -16.9560   10.9200 C.3   185  VAL185      0.0290
     75  CG1      -35.8090  -17.0590   12.4180 C.3   185  VAL185      0.0023
     76  CG2      -36.8720  -17.3930   10.2090 C.3   185  VAL185      0.0023
     77  N        -33.3680  -15.2950    9.0460 N.am  186  SER186     -0.1936
     78  CA       -32.7040  -15.3570    7.7830 C.3   186  SER186      0.2055
     79  C        -31.6670  -16.4420    7.9500 C.2   186  SER186      0.2643
     80  O        -31.9560  -17.4500    8.6110 O.2   186  SER186     -0.2714
     81  CB       -32.1240  -13.9490    7.4450 C.3   186  SER186      0.2130
     82  OG       -31.4720  -14.0060    6.2020 O.3   186  SER186     -0.2179
     83  N        -30.4600  -16.2570    7.4260 N.am  187  LEU187     -0.1963
     84  CA       -29.4500  -17.3460    7.5270 C.3   187  LEU187      0.1728
     85  C        -29.3140  -17.7320    8.9680 C.2   187  LEU187      0.2616
     86  O        -28.9870  -16.8790    9.8180 O.2   187  LEU187     -0.2715
     87  CB       -28.0780  -16.9000    7.0150 C.3   187  LEU187      0.0311
     88  CG       -28.0650  -16.3540    5.5870 C.3   187  LEU187      0.0022
     89  CD1      -26.6760  -15.8860    5.2000 C.3   187  LEU187      0.0001
     90  CD2      -28.7010  -17.2970    4.5630 C.3   187  LEU187      0.0001
     91  N        -29.5680  -19.0170    9.2280 N.am  188  LEU188     -0.1964
     92  CA       -29.5530  -19.5220   10.5690 C.3   188  LEU188      0.1713
     93  C        -28.0790  -19.7070   11.0110 C.2   188  LEU188      0.2458
     94  O        -27.1660  -19.7070   10.1530 O.2   188  LEU188     -0.2730
     95  CB       -30.3640  -20.8230   10.6720 C.3   188  LEU188      0.0310
     96  CG       -31.9140  -20.8890   10.8870 C.3   188  LEU188      0.0022
     97  CD1      -32.4800  -19.8950   11.9110 C.3   188  LEU188      0.0001
     98  CD2      -32.7040  -20.9030    9.5920 C.3   188  LEU188      0.0001
     99  N        -27.8530  -19.8540   12.3420 N.am  189  PRO189     -0.2727
    100  CA       -26.4600  -19.9630   12.8000 C.3   189  PRO189      0.1402
    101  C        -25.7620  -21.2160   12.2100 C.2   189  PRO189      0.2269
    102  O        -26.3910  -22.2720   12.0380 O.2   189  PRO189     -0.2865
    103  CB       -26.5860  -20.0210   14.3390 C.3   189  PRO189      0.0296
    104  CG       -27.9490  -19.4560   14.6600 C.3   189  PRO189      0.0237
    105  CD       -28.8070  -19.8920   13.4800 C.3   189  PRO189      0.0939
    106  N        -26.0170  -24.1840   14.2450 N.3   192  MET192     -0.1245
    107  CA       -27.3480  -24.6940   14.5820 C.3   192  MET192      0.1570
    108  C        -27.6170  -25.9730   13.8060 C.2   192  MET192      0.2261
    109  O        -27.3920  -26.0080   12.6050 O.2   192  MET192     -0.2867
    110  CB       -28.4330  -23.6700   14.2730 C.3   192  MET192      0.0387
    111  CG       -29.8440  -24.1350   14.6540 C.3   192  MET192      0.0595
    112  SD       -31.0890  -22.8440   14.3970 S.3   192  MET192     -0.1393
    113  CE       -30.8580  -21.7710   15.8220 C.3   192  MET192      0.0692
    114  N        -37.6470  -23.4690   13.3810 N.3   200  TRP200     -0.1241
    115  CA       -37.8160  -22.0570   13.1200 C.3   200  TRP200      0.1605
    116  C        -38.4740  -21.8070   11.7570 C.2   200  TRP200      0.2264
    117  O        -39.4840  -21.0680   11.6430 O.2   200  TRP200     -0.2867
    118  CB       -36.4760  -21.3050   13.2470 C.3   200  TRP200      0.0550
    119  CG       -36.1240  -21.0920   14.6410 C.ar  200  TRP200      0.0003
    120  CD1      -35.1710  -21.7420   15.3520 C.ar  200  TRP200      0.0946
    121  CD2      -36.7830  -20.2050   15.5600 C.ar  200  TRP200      0.0152
    122  NE1      -35.1710  -21.3110   16.6630 N.ar  200  TRP200     -0.2442
    123  CE2      -36.1470  -20.3620   16.8170 C.ar  200  TRP200      0.0810
    124  CE3      -37.8350  -19.2800   15.4370 C.ar  200  TRP200      0.0012
    125  CZ2      -36.5180  -19.6190   17.9530 C.ar  200  TRP200      0.0191
    126  CZ3      -38.2200  -18.5480   16.5810 C.ar  200  TRP200      0.0001
    127  CH2      -37.5560  -18.7330   17.8180 C.ar  200  TRP200      0.0015
    128  N        -43.2570  -13.5580   10.3270 N.3   242  LEU242     -0.1245
    129  CA       -42.9460  -14.2860   11.5710 C.3   242  LEU242      0.1561
    130  C        -43.3440  -13.4640   12.8210 C.2   242  LEU242      0.2260
    131  O        -43.9310  -14.0170   13.7630 O.2   242  LEU242     -0.2867
    132  CB       -41.4390  -14.6300   11.6040 C.3   242  LEU242      0.0270
    133  CG       -40.9730  -15.3140   12.8840 C.3   242  LEU242      0.0019
    134  CD1      -41.5910  -16.7190   12.9680 C.3   242  LEU242      0.0001
    135  CD2      -39.4230  -15.3400   12.9330 C.3   242  LEU242      0.0001
@<TRIPOS>BOND
     1     4     3    2
     2    90    88    1
     3     3     2    1
     4     1     2    1
     5    89    88    1
     6     2     5    1
     7    88    87    1
     8    82    81    1
     9     5     6    1
    10    87    84    1
    11     6     7    1
    12    83    84    1
    13    83    79   am
    14    81    78    1
    15    84    85    1
    16    78    79    1
    17    78    77    1
    18    79    80    2
    19    73    72    2
    20     7     8    1
    21    85    91   am
    22    85    86    2
    23    10     9    1
    24    77    72   am
    25    72    71    1
    26    91    92    1
    27     8     9    2
    28    98    96    1
    29     9    11    1
    30    94    93    2
    31    66    67    1
    32    76    74    1
    33   128   129    1
    34    71    70    1
    35    71    74    1
    36    92    95    1
    37    92    93    1
    38    95    96    1
    39    70    68   am
    40    96    97    1
    41    74    75    1
    42    93    99   am
    43    67    68    1
    44    68    69    2
    45   129   132    1
    46   129   130    1
    47   132   133    1
    48   117   116    2
    49   116   115    1
    50   102   101    2
    51   101   100    1
    52    99   100    1
    53    99   105    1
    54   109   108    2
    55   100   103    1
    56   130   131    2
    57   133   135    1
    58   133   134    1
    59   115   118    1
    60   115   114    1
    61   118   119    1
    62   105   104    1
    63   108   107    1
    64    12    13    1
    65    29    30    1
    66   106   107    1
    67   110   107    1
    68   110   111    1
    69    30    31    1
    70    30    33    1
    71   103   104    1
    72    31    32    2
    73   112   111    1
    74   112   113    1
    75   119   120   ar
    76   119   121   ar
    77    65    64    1
    78    16    13    1
    79    16    17    1
    80    13    14    1
    81    15    14    2
    82    43    42    1
    83    43    44    1
    84   120   122   ar
    85   124   121   ar
    86   124   126   ar
    87    42    41    1
    88    37    38    1
    89   121   123   ar
    90    33    34    1
    91    35    34   ar
    92    64    63    1
    93    34    36   ar
    94   126   127   ar
    95    63    62    1
    96    56    55    1
    97   122   123   ar
    98    38    41    1
    99    38    39    1
   100   123   125   ar
   101    25    27   ar
   102    25    23   ar
   103    22    23    1
   104    22    19    1
   105    27    28   ar
   106    62    61    1
   107   127   125   ar
   108    23    24   ar
   109    55    53   ar
   110    55    54   ar
   111    39    40    2
   112    53    51   ar
   113    28    26   ar
   114    60    59    2
   115    24    26   ar
   116    61    58    1
   117    18    19    1
   118    54    52   ar
   119    58    59    1
   120    58    57    1
   121    19    20    1
   122    21    20    2
   123    51    50   ar
   124    52    50   ar
   125    50    49    1
   126    48    47    2
   127    49    46    1
   128    47    46    1
   129    46    45    1
