@<TRIPOS>MOLECULE
tmp/5k6eA00.pdb
 214 205 0 0 0
SMALL
GASTEIGER

@<TRIPOS>ATOM
      1  N          8.9630   16.5310  -25.8040 N.3    22  GLN22      -0.1245
      2  CA         8.1080   15.9180  -24.7930 C.3    22  GLN22       0.1566
      3  C          6.7280   16.5510  -24.7600 C.2    22  GLN22       0.2260
      4  O          5.7130   15.8630  -24.7950 O.2    22  GLN22      -0.2867
      5  CB         8.7670   16.0290  -23.4280 C.3    22  GLN22       0.0367
      6  CG        10.0230   15.2080  -23.3230 C.3    22  GLN22       0.0905
      7  CD        10.7430   15.4240  -22.0200 C.2    22  GLN22       0.2608
      8  OE1       11.0800   16.5570  -21.6580 O.2    22  GLN22      -0.2717
      9  NE2       10.9800   14.3410  -21.2960 N.am   22  GLN22      -0.0878
     10  N         16.7660   13.4910   -6.0360 N.3    53  TRP53      -0.1241
     11  CA        17.7380   13.1520   -7.0720 C.3    53  TRP53       0.1605
     12  C         17.1580   12.0480   -7.9610 C.2    53  TRP53       0.2264
     13  O         17.2640   12.1270   -9.1770 O.2    53  TRP53      -0.2867
     14  CB        19.0720   12.7190   -6.4640 C.3    53  TRP53       0.0550
     15  CG        20.0470   13.8470   -6.2790 C.ar   53  TRP53       0.0003
     16  CD1       20.0140   14.8010   -5.2930 C.ar   53  TRP53       0.0946
     17  CD2       21.2120   14.1370   -7.0710 C.ar   53  TRP53       0.0152
     18  NE1       21.0700   15.6710   -5.4340 N.ar   53  TRP53      -0.2442
     19  CE2       21.8260   15.2840   -6.5140 C.ar   53  TRP53       0.0810
     20  CE3       21.7950   13.5450   -8.2000 C.ar   53  TRP53       0.0012
     21  CZ2       22.9920   15.8460   -7.0400 C.ar   53  TRP53       0.0191
     22  CZ3       22.9570   14.1070   -8.7250 C.ar   53  TRP53       0.0001
     23  CH2       23.5400   15.2460   -8.1410 C.ar   53  TRP53       0.0015
     24  N         14.3460   13.7210  -10.3160 N.3    56  CYS56      -0.1221
     25  CA        14.8800   14.6210  -11.3400 C.3    56  CYS56       0.1808
     26  C         15.7650   13.8900  -12.3280 C.2    56  CYS56       0.2601
     27  O         15.7420   14.1740  -13.5200 O.2    56  CYS56      -0.2717
     28  CB        15.6560   15.7610  -10.7060 C.3    56  CYS56       0.0970
     29  SG        14.5840   16.8480   -9.7910 S.3    56  CYS56      -0.0800
     30  N         16.5300   12.9290  -11.8260 N.am   57  ALA57      -0.1979
     31  CA        17.3570   12.1070  -12.6840 C.3    57  ALA57       0.1597
     32  C         16.4750   11.3400  -13.6810 C.2    57  ALA57       0.2287
     33  O         16.8360   11.1990  -14.8550 O.2    57  ALA57      -0.2864
     34  CB        18.1980   11.1760  -11.8650 C.3    57  ALA57       0.0319
     35  N         13.4620   12.3240  -14.8020 N.3    59  HIS59      -0.1226
     36  CA        12.9530   13.3050  -15.7640 C.3    59  HIS59       0.1752
     37  C         14.0080   13.6520  -16.8080 C.2    59  HIS59       0.2595
     38  O         13.7090   13.7790  -18.0120 O.2    59  HIS59      -0.2718
     39  CB        12.4810   14.5670  -15.0540 C.3    59  HIS59       0.0759
     40  CG        11.2620   14.3670  -14.2110 C.ar   59  HIS59       0.0818
     41  ND1       10.0480   13.9860  -14.7390 N.ar   59  HIS59      -0.2268
     42  CD2       11.0690   14.4910  -12.8770 C.ar   59  HIS59       0.1154
     43  CE1        9.1570   13.8910  -13.7670 C.ar   59  HIS59       0.1986
     44  NE2        9.7510   14.1940  -12.6270 N.ar   59  HIS59      -0.2212
     45  N         15.2340   13.8220  -16.3190 N.am   60  LEU60      -0.1980
     46  CA        16.3950   14.1170  -17.1460 C.3    60  LEU60       0.1596
     47  C         16.6350   13.0130  -18.1530 C.2    60  LEU60       0.2287
     48  O         16.8350   13.2750  -19.3370 O.2    60  LEU60      -0.2864
     49  CB        17.6360   14.3060  -16.2750 C.3    60  LEU60       0.0297
     50  CG        18.9690   14.4030  -17.0150 C.3    60  LEU60       0.0022
     51  CD1       18.9390   15.5160  -18.0520 C.3    60  LEU60       0.0001
     52  CD2       20.1000   14.6310  -16.0210 C.3    60  LEU60       0.0001
     53  N         14.0600   13.0940  -20.8720 N.3    63  ALA63      -0.1245
     54  CA        14.3790   14.1750  -21.8050 C.3    63  ALA63       0.1562
     55  C         15.4800   13.7560  -22.7760 C.2    63  ALA63       0.2260
     56  O         15.3310   13.8710  -24.0060 O.2    63  ALA63      -0.2867
     57  CB        14.7870   15.4160  -21.0480 C.3    63  ALA63       0.0290
     58  N         23.0680   16.3380  -23.5580 N.3    94  MET94      -0.1245
     59  CA        22.5860   17.0920  -22.3930 C.3    94  MET94       0.1570
     60  C         22.4230   18.5840  -22.7170 C.2    94  MET94       0.2261
     61  O         21.4500   19.2230  -22.2430 O.2    94  MET94      -0.2867
     62  CB        23.4570   16.9150  -21.1540 C.3    94  MET94       0.0387
     63  CG        22.6810   17.4050  -19.9450 C.3    94  MET94       0.0595
     64  SD        23.3400   17.1160  -18.3130 S.3    94  MET94      -0.1393
     65  CE        23.8890   15.4160  -18.4600 C.3    94  MET94       0.0692
     66  N         19.0630   19.2240  -24.2560 N.3    97  VAL97      -0.1231
     67  CA        18.0580   19.1550  -23.2110 C.3    97  VAL97       0.1692
     68  C         17.9140   20.5180  -22.5290 C.2    97  VAL97       0.2591
     69  O         16.7930   21.0210  -22.3770 O.2    97  VAL97      -0.2718
     70  CB        18.3940   18.0910  -22.1740 C.3    97  VAL97       0.0266
     71  CG1       17.5330   18.2780  -20.9480 C.3    97  VAL97       0.0020
     72  CG2       18.1720   16.7200  -22.7600 C.3    97  VAL97       0.0020
     73  N         19.0370   21.1400  -22.1730 N.am   98  LEU98      -0.1980
     74  CA        18.9680   22.4730  -21.5500 C.3    98  LEU98       0.1596
     75  C         18.3100   23.5810  -22.4200 C.2    98  LEU98       0.2287
     76  O         17.5010   24.3940  -21.9240 O.2    98  LEU98      -0.2864
     77  CB        20.3630   22.9020  -21.1060 C.3    98  LEU98       0.0297
     78  CG        20.8720   22.0110  -19.9600 C.3    98  LEU98       0.0022
     79  CD1       22.3920   21.9950  -19.8200 C.3    98  LEU98       0.0001
     80  CD2       20.2320   22.4440  -18.6590 C.3    98  LEU98       0.0001
     81  N         15.9190   23.0600  -24.8800 N.3   100  ARG100     -0.1231
     82  CA        14.4870   22.7700  -24.8880 C.3   100  ARG100      0.1694
     83  C         13.8230   23.1760  -23.5530 C.2   100  ARG100      0.2591
     84  O         12.6710   23.6820  -23.4860 O.2   100  ARG100     -0.2718
     85  CB        14.2870   21.2900  -25.1570 C.3   100  ARG100      0.0321
     86  CG        14.6700   20.8610  -26.5620 C.3   100  ARG100      0.0489
     87  CD        14.5680   19.3450  -26.6940 C.3   100  ARG100      0.2205
     88  NE        14.3240   18.9200  -28.0650 N.pl3 100  ARG100     -0.0865
     89  CZ        13.8240   17.7350  -28.3970 C.cat 100  ARG100      0.5346
     90  NH1       13.5170   16.8530  -27.4550 N.pl3 100  ARG100      0.1354
     91  NH2       13.6240   17.4360  -29.6740 N.pl3 100  ARG100      0.1354
     92  N         14.5660   22.9970  -22.4680 N.am  101  MET101     -0.1979
     93  CA        13.9820   23.3310  -21.1830 C.3   101  MET101      0.1605
     94  C         13.7930   24.8360  -21.1190 C.2   101  MET101      0.2287
     95  O         12.8580   25.3070  -20.4710 O.2   101  MET101     -0.2864
     96  CB        14.8160   22.8010  -20.0240 C.3   101  MET101      0.0413
     97  CG        15.9220   23.6820  -19.5590 C.3   101  MET101      0.0598
     98  SD        16.3710   23.1420  -17.9280 S.3   101  MET101     -0.1393
     99  CE        14.9320   23.7440  -17.0450 C.3   101  MET101      0.0692
    100  N         10.4620   25.3610  -21.7930 N.3   104  ALA104     -0.1245
    101  CA         9.4830   25.0890  -20.7100 C.3   104  ALA104      0.1562
    102  C          9.4030   26.1350  -19.5830 C.2   104  ALA104      0.2260
    103  O          8.7250   25.9260  -18.5760 O.2   104  ALA104     -0.2867
    104  CB         9.7630   23.7330  -20.1020 C.3   104  ALA104      0.0290
    105  N          9.0820   27.2880  -13.6890 N.3   112  VAL112     -0.1231
    106  CA         9.3000   26.3060  -14.7330 C.3   112  VAL112      0.1692
    107  C          8.2560   25.2000  -14.5810 C.2   112  VAL112      0.2592
    108  O          7.7760   24.9250  -13.4690 O.2   112  VAL112     -0.2718
    109  CB        10.7350   25.7240  -14.6640 C.3   112  VAL112      0.0266
    110  CG1       10.8690   24.7980  -13.4730 C.3   112  VAL112      0.0020
    111  CG2       11.0840   24.9850  -15.9340 C.3   112  VAL112      0.0020
    112  N          7.9020   24.5740  -15.6980 N.am  113  PHE113     -0.1962
    113  CA         6.9460   23.4780  -15.6790 C.3   113  PHE113      0.1771
    114  C          7.6010   22.2220  -15.1320 C.2   113  PHE113      0.2619
    115  O          8.6520   21.7850  -15.6070 O.2   113  PHE113     -0.2715
    116  CB         6.4030   23.2280  -17.0760 C.3   113  PHE113      0.0574
    117  CG         5.1840   22.3540  -17.1140 C.ar  113  PHE113     -0.0200
    118  CD1        3.9740   22.8100  -16.6100 C.ar  113  PHE113     -0.0042
    119  CD2        5.2280   21.1060  -17.7140 C.ar  113  PHE113     -0.0042
    120  CE1        2.8430   22.0170  -16.6690 C.ar  113  PHE113     -0.0003
    121  CE2        4.1020   20.3130  -17.7750 C.ar  113  PHE113     -0.0003
    122  CZ         2.9090   20.7650  -17.2510 C.ar  113  PHE113     -0.0000
    123  N          6.9550   21.6530  -14.1240 N.am  114  PHE114     -0.1974
    124  CA         7.4780   20.5210  -13.3930 C.3   114  PHE114      0.1639
    125  C          6.3370   19.6670  -12.8680 C.2   114  PHE114      0.2290
    126  O          5.4430   20.1410  -12.1440 O.2   114  PHE114     -0.2864
    127  CB         8.3680   20.9990  -12.2530 C.3   114  PHE114      0.0560
    128  CG         9.0690   19.8980  -11.5320 C.ar  114  PHE114     -0.0200
    129  CD1       10.1700   19.2880  -12.0840 C.ar  114  PHE114     -0.0042
    130  CD2        8.6470   19.4940  -10.2880 C.ar  114  PHE114     -0.0042
    131  CE1       10.8230   18.2800  -11.4210 C.ar  114  PHE114     -0.0003
    132  CE2        9.3010   18.4840   -9.6160 C.ar  114  PHE114     -0.0003
    133  CZ        10.3910   17.8760  -10.1840 C.ar  114  PHE114     -0.0000
    134  N         13.3900   22.6010   -5.9780 N.3   124  PHE124     -0.1241
    135  CA        14.6490   21.9080   -6.0970 C.3   124  PHE124      0.1605
    136  C         15.5810   22.1450   -4.9080 C.2   124  PHE124      0.2264
    137  O         16.7400   21.7040   -4.9280 O.2   124  PHE124     -0.2867
    138  CB        15.2830   22.2990   -7.4220 C.3   124  PHE124      0.0534
    139  CG        14.3080   22.2410   -8.5680 C.ar  124  PHE124     -0.0203
    140  CD1       13.8680   21.0180   -9.0530 C.ar  124  PHE124     -0.0042
    141  CD2       13.8320   23.3940   -9.1560 C.ar  124  PHE124     -0.0042
    142  CE1       12.9680   20.9500  -10.0910 C.ar  124  PHE124     -0.0003
    143  CE2       12.9380   23.3290  -10.2000 C.ar  124  PHE124     -0.0003
    144  CZ        12.5030   22.1050  -10.6650 C.ar  124  PHE124     -0.0000
    145  N         17.2010   19.0750   -3.6450 N.3   127  LEU127     -0.1245
    146  CA        18.3430   18.5420   -4.3960 C.3   127  LEU127      0.1561
    147  C         19.6670   18.9160   -3.7560 C.2   127  LEU127      0.2260
    148  O         20.6850   18.2420   -3.9550 O.2   127  LEU127     -0.2867
    149  CB        18.3400   19.0400   -5.8530 C.3   127  LEU127      0.0270
    150  CG        17.4640   18.3350   -6.8840 C.3   127  LEU127      0.0019
    151  CD1       17.4340   19.1060   -8.1730 C.3   127  LEU127      0.0001
    152  CD2       17.9680   16.9320   -7.1180 C.3   127  LEU127      0.0001
    153  N         21.3840   21.7030   -4.4870 N.3   129  CYS129     -0.1235
    154  CA        22.2500   22.2460   -5.5240 C.3   129  CYS129      0.1677
    155  C         21.8340   23.6460   -5.9250 C.2   129  CYS129      0.2270
    156  O         21.4750   23.8860   -7.0740 O.2   129  CYS129     -0.2867
    157  CB        22.2580   21.3420   -6.7450 C.3   129  CYS129      0.0956
    158  SG        23.0000   19.7400   -6.4400 S.3   129  CYS129     -0.0801
    159  N         23.6620   25.3240   -9.0120 N.3   132  LEU132     -0.1231
    160  CA        23.3020   24.7350  -10.2920 C.3   132  LEU132      0.1693
    161  C         21.8780   25.0850  -10.7000 C.2   132  LEU132      0.2591
    162  O         21.6370   25.4720  -11.8440 O.2   132  LEU132     -0.2718
    163  CB        23.4750   23.2220  -10.2500 C.3   132  LEU132      0.0284
    164  CG        23.1360   22.5130  -11.5570 C.3   132  LEU132      0.0019
    165  CD1       23.8780   23.1720  -12.6900 C.3   132  LEU132      0.0001
    166  CD2       23.5100   21.0500  -11.4610 C.3   132  LEU132      0.0001
    167  N         20.9380   24.9640   -9.7700 N.am  133  ILE133     -0.1980
    168  CA        19.5580   25.3300  -10.0570 C.3   133  ILE133      0.1595
    169  C         19.4810   26.7900  -10.4720 C.2   133  ILE133      0.2287
    170  O         18.7830   27.1390  -11.4370 O.2   133  ILE133     -0.2864
    171  CB        18.6340   25.0870   -8.8600 C.3   133  ILE133      0.0276
    172  CG1       18.5510   23.5950   -8.5470 C.3   133  ILE133      0.0022
    173  CG2       17.2430   25.6080   -9.1580 C.3   133  ILE133      0.0022
    174  CD1       18.0520   22.7530   -9.6980 C.3   133  ILE133      0.0001
    175  N         20.7750   27.1550  -14.0750 N.3   136  ILE136     -0.1231
    176  CA        19.7790   26.6360  -15.0050 C.3   136  ILE136      0.1692
    177  C         18.6740   27.6750  -15.2220 C.2   136  ILE136      0.2592
    178  O         18.3470   28.0280  -16.3590 O.2   136  ILE136     -0.2718
    179  CB        19.1730   25.3080  -14.4840 C.3   136  ILE136      0.0266
    180  CG1       20.1970   24.1810  -14.5450 C.3   136  ILE136      0.0019
    181  CG2       17.9290   24.9140  -15.2500 C.3   136  ILE136      0.0020
    182  CD1       19.7730   22.9480  -13.7680 C.3   136  ILE136      0.0001
    183  N         18.1200   28.1920  -14.1320 N.am  137  PHE137     -0.1976
    184  CA        17.0520   29.1830  -14.2540 C.3   137  PHE137      0.1639
    185  C         17.5080   30.4510  -14.9910 C.2   137  PHE137      0.2290
    186  O         16.7510   31.0120  -15.7880 O.2   137  PHE137     -0.2864
    187  CB        16.4930   29.5360  -12.8740 C.3   137  PHE137      0.0560
    188  CG        15.3380   28.6650  -12.4480 C.ar  137  PHE137     -0.0200
    189  CD1       15.5160   27.2990  -12.2540 C.ar  137  PHE137     -0.0042
    190  CD2       14.0780   29.2120  -12.2320 C.ar  137  PHE137     -0.0042
    191  CE1       14.4610   26.4960  -11.8710 C.ar  137  PHE137     -0.0003
    192  CE2       13.0100   28.4130  -11.8430 C.ar  137  PHE137     -0.0003
    193  CZ        13.2050   27.0530  -11.6580 C.ar  137  PHE137     -0.0000
    194  N         26.8140   19.9600  -13.5860 N.3   215  HIS215     -0.1241
    195  CA        26.1660   18.6590  -13.3840 C.3   215  HIS215      0.1621
    196  C         27.1900   17.5720  -13.0480 C.2   215  HIS215      0.2264
    197  O         26.9680   16.7560  -12.1530 O.2   215  HIS215     -0.2867
    198  CB        25.3690   18.2430  -14.6130 C.3   215  HIS215      0.0745
    199  CG        23.9630   18.7480  -14.6150 C.ar  215  HIS215      0.0817
    200  ND1       23.6160   19.9900  -15.0990 N.ar  215  HIS215     -0.2268
    201  CD2       22.8140   18.1790  -14.1790 C.ar  215  HIS215      0.1154
    202  CE1       22.3110   20.1580  -14.9720 C.ar  215  HIS215      0.1986
    203  NE2       21.8000   19.0720  -14.4200 N.ar  215  HIS215     -0.2212
    204  N         28.6190   18.2050   -9.3670 N.3   218  ARG218     -0.1245
    205  CA        27.6520   17.8540   -8.3450 C.3   218  ARG218      0.1563
    206  C         27.3350   16.3680   -8.3050 C.2   218  ARG218      0.2260
    207  O         26.9640   15.8380   -7.2590 O.2   218  ARG218     -0.2867
    208  CB        26.4190   18.7090   -8.5250 C.3   218  ARG218      0.0307
    209  CG        26.8500   20.1280   -8.2940 C.3   218  ARG218      0.0489
    210  CD        25.8400   20.9870   -7.6270 C.3   218  ARG218      0.2205
    211  NE        25.7090   20.8120   -6.1820 N.pl3 218  ARG218     -0.0865
    212  CZ        26.6070   21.1970   -5.2770 C.cat 218  ARG218      0.5346
    213  NH1       27.7690   21.7080   -5.6560 N.pl3 218  ARG218      0.1354
    214  NH2       26.3490   21.0350   -3.9800 N.pl3 218  ARG218      0.1354
@<TRIPOS>BOND
     1    91    89    1
     2    89    88    2
     3    89    90    1
     4    88    87    1
     5    87    86    1
     6    86    85    1
     7     1     2    1
     8    85    82    1
     9    82    81    1
    10    82    83    1
    11     4     3    2
    12     2     3    1
    13     2     5    1
    14    66    67    1
    15    56    55    2
    16    58    59    1
    17    83    84    2
    18    83    92   am
    19     5     6    1
    20     6     7    1
    21    67    68    1
    22    67    70    1
    23    55    54    1
    24    72    70    1
    25    60    59    1
    26    60    61    2
    27    68    69    2
    28    68    73   am
    29    92    93    1
    30    75    76    2
    31    75    74    1
    32    59    62    1
    33    70    71    1
    34    73    74    1
    35     7     8    2
    36     7     9   am
    37    54    57    1
    38    54    53    1
    39   100   101    1
    40    74    77    1
    41    93    94    1
    42    93    96    1
    43    62    63    1
    44    94    95    2
    45    77    78    1
    46   101   104    1
    47   101   102    1
    48    96    97    1
    49    78    79    1
    50    78    80    1
    51    63    64    1
    52   102   103    2
    53    97    98    1
    54    48    47    2
    55    65    64    1
    56    47    46    1
    57    51    50    1
    58    38    37    2
    59    98    99    1
    60   121   119   ar
    61   121   122   ar
    62   119   117   ar
    63   122   120   ar
    64    46    45    1
    65    46    49    1
    66   117   116    1
    67   117   118   ar
    68   116   113    1
    69    50    49    1
    70    50    52    1
    71    37    45   am
    72    37    36    1
    73   120   118   ar
    74   178   177    2
    75   111   109    1
    76   186   185    2
    77    36    39    1
    78    36    35    1
    79   112   113    1
    80   112   107   am
    81   113   114    1
    82   115   114    2
    83   181   179    1
    84   177   176    1
    85   177   183   am
    86   114   123   am
    87   200   202   ar
    88   200   199   ar
    89    39    40    1
    90   176   179    1
    91   176   175    1
    92   185   184    1
    93   202   203   ar
    94    33    32    2
    95    41    40   ar
    96    41    43   ar
    97   106   109    1
    98   106   107    1
    99   106   105    1
   100   109   110    1
   101   199   198    1
   102   199   201   ar
   103   198   195    1
   104   107   108    2
   105   180   179    1
   106   180   182    1
   107   203   201   ar
   108   184   183    1
   109   184   187    1
   110    40    42   ar
   111   123   124    1
   112    43    44   ar
   113    32    31    1
   114   194   195    1
   115    27    26    2
   116   124   125    1
   117   124   127    1
   118   195   196    1
   119   196   197    2
   120    42    44   ar
   121   187   188    1
   122   125   126    2
   123   165   164    1
   124    31    34    1
   125    31    30    1
   126   188   189   ar
   127   188   190   ar
   128    26    30   am
   129    26    25    1
   130   189   191   ar
   131   127   128    1
   132   190   192   ar
   133   129   128   ar
   134   129   131   ar
   135   191   193   ar
   136   162   161    2
   137   192   193   ar
   138   164   166    1
   139   164   163    1
   140   128   130   ar
   141   170   169    2
   142   131   133   ar
   143    25    28    1
   144    25    24    1
   145    28    29    1
   146   161   160    1
   147   161   167   am
   148   144   143   ar
   149   144   142   ar
   150   169   168    1
   151   160   163    1
   152   160   159    1
   153   130   132   ar
   154   143   141   ar
   155   133   132   ar
   156   142   140   ar
   157   168   167    1
   158   168   171    1
   159   174   172    1
   160   204   205    1
   161    13    12    2
   162   173   171    1
   163   141   139   ar
   164   140   139   ar
   165   171   172    1
   166    22    20   ar
   167    22    23   ar
   168   139   138    1
   169   208   205    1
   170   208   209    1
   171   205   206    1
   172   206   207    2
   173   209   210    1
   174    20    17   ar
   175   151   150    1
   176    23    21   ar
   177    12    11    1
   178   210   211    1
   179   138   135    1
   180   152   150    1
   181   156   155    2
   182    11    14    1
   183    11    10    1
   184    17    19   ar
   185    17    15   ar
   186    21    19   ar
   187   150   149    1
   188   157   158    1
   189   157   154    1
   190    19    18   ar
   191    14    15    1
   192    15    16   ar
   193   211   212    2
   194   135   134    1
   195   135   136    1
   196   155   154    1
   197   149   146    1
   198   213   212    1
   199   154   153    1
   200    18    16   ar
   201   212   214    1
   202   137   136    2
   203   146   147    1
   204   146   145    1
   205   148   147    2
