@<TRIPOS>MOLECULE
tmp/5k6jA00.pdb
 221 213 0 0 0
SMALL
GASTEIGER

@<TRIPOS>ATOM
      1  N        -44.2810   82.2140  117.3060 N.3    72  TYR72      -0.1227
      2  CA       -44.0420   83.4110  118.1250 C.3    72  TYR72       0.1736
      3  C        -45.2650   83.8160  118.9500 C.2    72  TYR72       0.2595
      4  O        -45.1800   83.9150  120.1750 O.2    72  TYR72      -0.2718
      5  CB       -43.5880   84.5790  117.2440 C.3    72  TYR72       0.0548
      6  CG       -43.2180   85.8230  118.0220 C.ar   72  TYR72      -0.0200
      7  CD1      -41.9310   86.0000  118.5340 C.ar   72  TYR72      -0.0009
      8  CD2      -44.1590   86.8230  118.2510 C.ar   72  TYR72      -0.0009
      9  CE1      -41.5970   87.1420  119.2510 C.ar   72  TYR72       0.0417
     10  CE2      -43.8390   87.9670  118.9660 C.ar   72  TYR72       0.0417
     11  CZ       -42.5590   88.1270  119.4640 C.ar   72  TYR72       0.1957
     12  OH       -42.2570   89.2700  120.1690 O.3    72  TYR72      -0.2866
     13  N        -46.3980   84.0440  118.2870 N.am   73  HIS73      -0.1975
     14  CA       -47.5940   84.5820  118.9550 C.3    73  HIS73       0.1656
     15  C        -48.3800   83.5320  119.7020 C.2    73  HIS73       0.2291
     16  O        -49.5460   83.2700  119.4050 O.2    73  HIS73      -0.2864
     17  CB       -48.4690   85.3390  117.9610 C.3    73  HIS73       0.0771
     18  CG       -47.8040   86.5630  117.3880 C.ar   73  HIS73       0.0820
     19  ND1      -47.3360   86.6130  116.1320 N.ar   73  HIS73      -0.2267
     20  CD2      -47.5230   87.7990  117.9610 C.ar   73  HIS73       0.1154
     21  CE1      -46.7900   87.8210  115.9040 C.ar   73  HIS73       0.1986
     22  NE2      -46.9010   88.5450  117.0280 N.ar   73  HIS73      -0.2212
     23  N        -45.0120   84.3200  124.4770 N.3    77  HIS77      -0.1241
     24  CA       -44.9510   85.7500  124.1380 C.3    77  HIS77       0.1621
     25  C        -45.8590   86.5810  125.0140 C.2    77  HIS77       0.2264
     26  O        -45.4550   87.6490  125.4820 O.2    77  HIS77      -0.2867
     27  CB       -45.2520   85.9700  122.6510 C.3    77  HIS77       0.0745
     28  CG       -45.5020   87.4150  122.2800 C.ar   77  HIS77       0.0817
     29  ND1      -44.5340   88.3480  122.2980 N.ar   77  HIS77      -0.2268
     30  CD2      -46.6680   88.0650  121.8910 C.ar   77  HIS77       0.1154
     31  CE1      -45.0490   89.5370  121.9350 C.ar   77  HIS77       0.1986
     32  NE2      -46.3570   89.3630  121.6820 N.ar   77  HIS77      -0.2212
     33  N        -52.5810   89.2400  122.6340 N.3   114  ASP114     -0.1239
     34  CA       -52.4570   88.4320  121.4120 C.3   114  ASP114      0.1674
     35  C        -53.2640   87.1240  121.4470 C.2   114  ASP114      0.2266
     36  O        -52.9810   86.2140  120.6730 O.2   114  ASP114     -0.2867
     37  CB       -50.9680   88.1180  121.1470 C.3   114  ASP114      0.1410
     38  CG       -50.2390   89.2400  120.4180 C.2   114  ASP114      0.3668
     39  OD1      -50.8550   90.0020  119.6470 O.co2 114  ASP114     -0.2456
     40  OD2      -49.0160   89.3410  120.6000 O.co2 114  ASP114     -0.2456
     41  N        -54.2850   84.2630  118.3160 N.3   117  HIS117     -0.1241
     42  CA       -53.5230   84.7370  117.1500 C.3   117  HIS117      0.1621
     43  C        -53.4220   83.6150  116.1410 C.2   117  HIS117      0.2264
     44  O        -53.0110   82.5120  116.5090 O.2   117  HIS117     -0.2867
     45  CB       -52.1130   85.1830  117.5710 C.3   117  HIS117      0.0745
     46  CG       -51.5300   86.2860  116.7210 C.ar  117  HIS117      0.0817
     47  ND1      -51.1400   86.0950  115.4520 N.ar  117  HIS117     -0.2268
     48  CD2      -51.2580   87.6200  117.0180 C.ar  117  HIS117      0.1154
     49  CE1      -50.6550   87.2480  114.9510 C.ar  117  HIS117      0.1986
     50  NE2      -50.7360   88.1820  115.9080 N.ar  117  HIS117     -0.2212
     51  N        -50.3920   88.3280  109.7840 N.3   121  SER121     -0.1217
     52  CA       -50.5520   89.7630  110.0420 C.3   121  SER121      0.1889
     53  C        -51.9570   90.2620  109.7020 C.2   121  SER121      0.2288
     54  O        -52.7320   89.5640  109.0420 O.2   121  SER121     -0.2866
     55  CB       -49.5270   90.5600  109.2340 C.3   121  SER121      0.2089
     56  OG       -49.7900   90.4690  107.8430 O.3   121  SER121     -0.2183
     57  N        -56.8660   92.1810  114.1770 N.3   142  LEU142     -0.1231
     58  CA       -56.4910   91.1810  115.1720 C.3   142  LEU142      0.1693
     59  C        -56.5600   91.7130  116.6000 C.2   142  LEU142      0.2591
     60  O        -56.9710   90.9910  117.5020 O.2   142  LEU142     -0.2718
     61  CB       -55.1120   90.6040  114.8620 C.3   142  LEU142      0.0284
     62  CG       -55.1130   89.7340  113.5960 C.3   142  LEU142      0.0019
     63  CD1      -53.7030   89.5230  113.0580 C.3   142  LEU142      0.0001
     64  CD2      -55.8100   88.4030  113.8510 C.3   142  LEU142      0.0001
     65  N        -56.2120   92.9860  116.7910 N.am  143  GLU143     -0.1979
     66  CA       -56.2330   93.6100  118.1200 C.3   143  GLU143      0.1602
     67  C        -57.6580   93.7090  118.6630 C.2   143  GLU143      0.2287
     68  O        -57.8850   93.4680  119.8500 O.2   143  GLU143     -0.2864
     69  CB       -55.5700   94.9940  118.1080 C.3   143  GLU143      0.0415
     70  CG       -54.0700   94.9750  117.8110 C.3   143  GLU143      0.1163
     71  CD       -53.7200   94.8150  116.3370 C.2   143  GLU143      0.3649
     72  OE1      -54.6070   94.9510  115.4640 O.co2 143  GLU143     -0.2457
     73  OE2      -52.5430   94.5410  116.0430 O.co2 143  GLU143     -0.2457
     74  N        -51.1380   98.1660  120.6670 N.3   184  THR184     -0.1218
     75  CA       -50.2010   97.1960  120.0810 C.3   184  THR184      0.1862
     76  C        -50.3500   97.0420  118.5540 C.2   184  THR184      0.2287
     77  O        -49.5720   96.3180  117.9330 O.2   184  THR184     -0.2866
     78  CB       -50.3180   95.8070  120.7490 C.3   184  THR184      0.1770
     79  OG1      -51.6160   95.2520  120.5010 O.3   184  THR184     -0.2211
     80  CG2      -50.0830   95.9110  122.2510 C.3   184  THR184      0.0375
     81  N        -49.5300   98.2120  115.1150 N.3   186  MET186     -0.1245
     82  CA       -48.4450   98.9960  114.4930 C.3   186  MET186      0.1570
     83  C        -48.9110  100.2030  113.6700 C.2   186  MET186      0.2261
     84  O        -48.1360  101.1370  113.4710 O.2   186  MET186     -0.2867
     85  CB       -47.5580   98.1080  113.6060 C.3   186  MET186      0.0387
     86  CG       -46.5350   97.2690  114.3570 C.3   186  MET186      0.0595
     87  SD       -45.3310   98.2210  115.3110 S.3   186  MET186     -0.1393
     88  CE       -44.5980   99.2530  114.0450 C.3   186  MET186      0.0692
     89  N        -44.4070   95.0390  124.3480 N.3   231  ASP231     -0.1225
     90  CA       -44.6470   94.2190  123.1550 C.3   231  ASP231      0.1805
     91  C        -43.4320   94.2300  122.2130 C.2   231  ASP231      0.2597
     92  O        -43.0980   93.2020  121.6260 O.2   231  ASP231     -0.2718
     93  CB       -45.9100   94.7160  122.4220 C.3   231  ASP231      0.1424
     94  CG       -46.4720   93.7060  121.4210 C.2   231  ASP231      0.3668
     95  OD1      -46.2080   92.4900  121.5280 O.co2 231  ASP231     -0.2456
     96  OD2      -47.2120   94.1480  120.5220 O.co2 231  ASP231     -0.2456
     97  N        -42.7700   95.3860  122.0940 N.am  232  LEU232     -0.1979
     98  CA       -41.5460   95.5310  121.2870 C.3   232  LEU232      0.1596
     99  C        -40.2650   95.4960  122.1380 C.2   232  LEU232      0.2287
    100  O        -39.2990   96.2170  121.8500 O.2   232  LEU232     -0.2864
    101  CB       -41.6050   96.8290  120.4690 C.3   232  LEU232      0.0297
    102  CG       -42.8270   97.0330  119.5710 C.3   232  LEU232      0.0022
    103  CD1      -42.6620   98.3030  118.7520 C.3   232  LEU232      0.0001
    104  CD2      -43.0570   95.8370  118.6600 C.3   232  LEU232      0.0001
    105  N        -38.3260   92.6100  122.8800 N.3   234  ASN234     -0.1226
    106  CA       -37.3790   91.5150  122.5680 C.3   234  ASN234      0.1770
    107  C        -35.9510   92.0010  122.2700 C.2   234  ASN234      0.2439
    108  O        -35.0000   91.4460  122.8250 O.2   234  ASN234     -0.2733
    109  CB       -37.8410   90.6340  121.3890 C.3   234  ASN234      0.1168
    110  CG       -39.1680   89.9220  121.6270 C.2   234  ASN234      0.2627
    111  OD1      -39.7780   89.4520  120.6710 O.2   234  ASN234     -0.2716
    112  ND2      -39.6190   89.8410  122.8730 N.am  234  ASN234     -0.0877
    113  N        -35.7950   93.0440  121.4150 N.am  235  PRO235     -0.2729
    114  CA       -34.4360   93.5290  121.1090 C.3   235  PRO235      0.1401
    115  C        -33.6880   94.2120  122.2660 C.2   235  PRO235      0.2269
    116  O        -32.4670   94.3820  122.1760 O.2   235  PRO235     -0.2865
    117  CB       -34.6650   94.5190  119.9520 C.3   235  PRO235      0.0296
    118  CG       -36.0270   94.2110  119.4300 C.3   235  PRO235      0.0237
    119  CD       -36.7960   93.8090  120.6470 C.3   235  PRO235      0.0939
    120  N        -32.9500   87.3870  123.1290 N.3   242  TYR242     -0.1241
    121  CA       -33.3480   88.0720  121.8910 C.3   242  TYR242      0.1605
    122  C        -33.2040   87.1770  120.6500 C.2   242  TYR242      0.2264
    123  O        -34.0980   87.1460  119.8030 O.2   242  TYR242     -0.2867
    124  CB       -32.5550   89.3850  121.7400 C.3   242  TYR242      0.0534
    125  CG       -32.7880   90.1940  120.4720 C.ar  242  TYR242     -0.0201
    126  CD1      -34.0180   90.1850  119.7960 C.ar  242  TYR242     -0.0009
    127  CD2      -31.7750   91.0150  119.9710 C.ar  242  TYR242     -0.0009
    128  CE1      -34.2100   90.9410  118.6440 C.ar  242  TYR242      0.0417
    129  CE2      -31.9620   91.7770  118.8280 C.ar  242  TYR242      0.0417
    130  CZ       -33.1760   91.7370  118.1670 C.ar  242  TYR242      0.1957
    131  OH       -33.3500   92.4940  117.0350 O.3   242  TYR242     -0.2866
    132  N        -36.1180   84.7510  120.4700 N.3   245  TRP245     -0.1227
    133  CA       -37.3000   85.4620  119.9570 C.3   245  TRP245      0.1737
    134  C        -37.2220   85.7010  118.4740 C.2   245  TRP245      0.2596
    135  O        -38.2350   85.6070  117.7780 O.2   245  TRP245     -0.2718
    136  CB       -37.5030   86.8020  120.6620 C.3   245  TRP245      0.0564
    137  CG       -37.8830   86.6970  122.1170 C.ar  245  TRP245      0.0003
    138  CD1      -37.1910   87.2040  123.2120 C.ar  245  TRP245      0.0946
    139  CD2      -39.0660   86.0400  122.6880 C.ar  245  TRP245      0.0152
    140  NE1      -37.8410   86.9160  124.3840 N.ar  245  TRP245     -0.2442
    141  CE2      -38.9710   86.2210  124.1420 C.ar  245  TRP245      0.0810
    142  CE3      -40.1550   85.3470  122.1620 C.ar  245  TRP245      0.0012
    143  CZ2      -39.9300   85.7200  125.0080 C.ar  245  TRP245      0.0191
    144  CZ3      -41.1160   84.8460  123.0490 C.ar  245  TRP245      0.0001
    145  CH2      -41.0040   85.0290  124.4380 C.ar  245  TRP245      0.0015
    146  N        -36.0240   86.0200  117.9820 N.am  246  THR246     -0.1953
    147  CA       -35.7950   86.2230  116.5490 C.3   246  THR246      0.1897
    148  C        -36.0080   84.9300  115.7470 C.2   246  THR246      0.2313
    149  O        -36.6130   84.9650  114.6780 O.2   246  THR246     -0.2863
    150  CB       -34.3890   86.7990  116.2750 C.3   246  THR246      0.1794
    151  OG1      -34.2400   88.0440  116.9720 O.3   246  THR246     -0.2208
    152  CG2      -34.1720   87.0350  114.7840 C.3   246  THR246      0.0378
    153  N        -39.9930   84.4000  115.6020 N.3   249  ILE249     -0.1231
    154  CA       -40.7030   85.3650  114.7350 C.3   249  ILE249      0.1692
    155  C        -40.4270   85.1350  113.2390 C.2   249  ILE249      0.2591
    156  O        -41.3450   85.2450  112.4240 O.2   249  ILE249     -0.2718
    157  CB       -40.4120   86.8400  115.1370 C.3   249  ILE249      0.0266
    158  CG1      -41.4040   87.8100  114.4750 C.3   249  ILE249      0.0019
    159  CG2      -38.9820   87.2440  114.7980 C.3   249  ILE249      0.0020
    160  CD1      -42.8320   87.6840  114.9640 C.3   249  ILE249      0.0001
    161  N        -39.1840   84.7980  112.8900 N.am  250  MET250     -0.1979
    162  CA       -38.8310   84.4950  111.4960 C.3   250  MET250      0.1605
    163  C        -39.4850   83.1960  111.0110 C.2   250  MET250      0.2287
    164  O        -39.8990   83.1130  109.8550 O.2   250  MET250     -0.2864
    165  CB       -37.3080   84.4430  111.3010 C.3   250  MET250      0.0413
    166  CG       -36.5830   85.7690  111.5280 C.3   250  MET250      0.0598
    167  SD       -37.1970   87.1950  110.6060 S.3   250  MET250     -0.1393
    168  CE       -37.0360   86.6190  108.9190 C.3   250  MET250      0.0692
    169  N        -42.9640   84.2710  110.3380 N.3   253  PHE253     -0.1241
    170  CA       -42.9310   85.1390  109.1480 C.3   253  PHE253      0.1605
    171  C        -42.7700   84.3390  107.8520 C.2   253  PHE253      0.2264
    172  O        -43.4630   84.6140  106.8680 O.2   253  PHE253     -0.2867
    173  CB       -41.8070   86.1880  109.2660 C.3   253  PHE253      0.0534
    174  CG       -42.1730   87.4210  110.0710 C.ar  253  PHE253     -0.0203
    175  CD1      -43.1970   87.4190  111.0310 C.ar  253  PHE253     -0.0042
    176  CD2      -41.4550   88.5990  109.8810 C.ar  253  PHE253     -0.0042
    177  CE1      -43.5000   88.5670  111.7510 C.ar  253  PHE253     -0.0003
    178  CE2      -41.7530   89.7460  110.6040 C.ar  253  PHE253     -0.0003
    179  CZ       -42.7760   89.7310  111.5400 C.ar  253  PHE253     -0.0000
    180  N        -39.8810   90.7320  104.9380 N.3   270  MET270     -0.1245
    181  CA       -39.2700   89.7840  105.8910 C.3   270  MET270      0.1570
    182  C        -39.8580   88.3570  105.8760 C.2   270  MET270      0.2261
    183  O        -39.4620   87.5320  106.7040 O.2   270  MET270     -0.2867
    184  CB       -39.3030   90.3340  107.3340 C.3   270  MET270      0.0387
    185  CG       -38.8670   91.7850  107.5040 C.3   270  MET270      0.0595
    186  SD       -39.1140   92.3500  109.1970 S.3   270  MET270     -0.1393
    187  CE       -38.6310   94.0680  109.0530 C.3   270  MET270      0.0692
    188  N        -33.0950   92.5330  108.6460 N.3   281  SER281     -0.1202
    189  CA       -34.4650   92.7960  109.0970 C.3   281  SER281      0.2020
    190  C        -34.5190   93.3310  110.5280 C.2   281  SER281      0.2618
    191  O        -35.2600   94.2730  110.8090 O.2   281  SER281     -0.2717
    192  CB       -35.3110   91.5230  108.9970 C.3   281  SER281      0.2103
    193  OG       -35.4050   91.0880  107.6540 O.3   281  SER281     -0.2182
    194  N        -33.7310   92.7310  111.4190 N.am  282  GLN282     -0.1979
    195  CA       -33.6600   93.1770  112.8130 C.3   282  GLN282      0.1601
    196  C        -33.0380   94.5670  112.9520 C.2   282  GLN282      0.2287
    197  O        -33.5560   95.3960  113.6990 O.2   282  GLN282     -0.2864
    198  CB       -32.8980   92.1650  113.6800 C.3   282  GLN282      0.0394
    199  CG       -33.6040   90.8240  113.8710 C.3   282  GLN282      0.0908
    200  CD       -35.0190   90.9510  114.4150 C.2   282  GLN282      0.2608
    201  OE1      -35.2410   91.5480  115.4650 O.2   282  GLN282     -0.2717
    202  NE2      -35.9830   90.3870  113.6950 N.am  282  GLN282     -0.0878
    203  N        -35.5690   96.9760  111.6160 N.3   285  PHE285     -0.1241
    204  CA       -36.6650   97.0330  112.5960 C.3   285  PHE285      0.1605
    205  C        -36.2890   97.8490  113.8370 C.2   285  PHE285      0.2264
    206  O        -37.0970   98.6440  114.3200 O.2   285  PHE285     -0.2867
    207  CB       -37.1040   95.6150  112.9940 C.3   285  PHE285      0.0534
    208  CG       -38.2420   95.5740  113.9820 C.ar  285  PHE285     -0.0203
    209  CD1      -39.4420   96.2330  113.7150 C.ar  285  PHE285     -0.0042
    210  CD2      -38.1250   94.8580  115.1730 C.ar  285  PHE285     -0.0042
    211  CE1      -40.4930   96.1910  114.6220 C.ar  285  PHE285     -0.0003
    212  CE2      -39.1760   94.8100  116.0800 C.ar  285  PHE285     -0.0003
    213  CZ       -40.3610   95.4780  115.8050 C.ar  285  PHE285     -0.0000
    214  N        -38.1970  101.5720  114.1130 N.3   289  ILE289     -0.1245
    215  CA       -39.3330  101.3820  115.0350 C.3   289  ILE289      0.1561
    216  C        -38.9210  101.2970  116.5070 C.2   289  ILE289      0.2260
    217  O        -39.3370  102.1330  117.3140 O.2   289  ILE289     -0.2867
    218  CB       -40.1540  100.1170  114.6740 C.3   289  ILE289      0.0252
    219  CG1      -40.6200  100.1520  113.2110 C.3   289  ILE289      0.0019
    220  CG2      -41.3630   99.9770  115.5920 C.3   289  ILE289      0.0019
    221  CD1      -41.4610  101.3590  112.8500 C.3   289  ILE289      0.0001
@<TRIPOS>BOND
     1   180   181    1
     2   182   181    1
     3   182   183    2
     4   181   184    1
     5   172   171    2
     6   184   185    1
     7   185   186    1
     8   193   192    1
     9    56    55    1
    10   171   170    1
    11   188   189    1
    12   168   167    1
    13   192   189    1
    14    54    53    2
    15   187   186    1
    16   189   190    1
    17   170   173    1
    18   170   169    1
    19    55    52    1
    20   173   174    1
    21    53    52    1
    22    51    52    1
    23   164   163    2
    24   176   174   ar
    25   176   178   ar
    26   174   175   ar
    27   190   191    2
    28   190   194   am
    29   178   179   ar
    30   167   166    1
    31   163   162    1
    32   175   177   ar
    33   165   162    1
    34   165   166    1
    35   194   195    1
    36   162   161    1
    37   179   177   ar
    38   203   204    1
    39   156   155    2
    40   204   207    1
    41   204   205    1
    42   195   196    1
    43   195   198    1
    44   221   219    1
    45   161   155   am
    46   196   197    2
    47   207   208    1
    48    63    62    1
    49   219   218    1
    50   155   154    1
    51    84    83    2
    52    62    64    1
    53    62    61    1
    54    85    86    1
    55    85    82    1
    56    83    82    1
    57   198   199    1
    58   202   200   am
    59   209   208   ar
    60   209   211   ar
    61   205   206    2
    62   199   200    1
    63   208   210   ar
    64    88    87    1
    65   214   215    1
    66    57    58    1
    67    86    87    1
    68   200   201    2
    69   158   160    1
    70   158   157    1
    71    82    81    1
    72   211   213   ar
    73   218   215    1
    74   218   220    1
    75   149   148    2
    76   154   157    1
    77   154   153    1
    78   152   150    1
    79   159   157    1
    80    61    58    1
    81    49    47   ar
    82    49    50   ar
    83   215   216    1
    84    58    59    1
    85   210   212   ar
    86    47    46   ar
    87    72    71   ar
    88   148   147    1
    89   213   212   ar
    90    21    19   ar
    91    21    22   ar
    92    50    48   ar
    93    73    71   ar
    94    19    18   ar
    95    43    44    2
    96    43    42    1
    97   150   147    1
    98   150   151    1
    99    71    70    1
   100   216   217    2
   101   147   146    1
   102    59    65   am
   103    59    60    2
   104    46    48   ar
   105    46    45    1
   106    65    66    1
   107    22    20   ar
   108   131   130    1
   109    42    45    1
   110    42    41    1
   111     5     6    1
   112     5     2    1
   113     1     2    1
   114    18    20   ar
   115    18    17    1
   116   135   134    2
   117    70    69    1
   118    77    76    2
   119    17    14    1
   120   146   134   am
   121     6     8   ar
   122     6     7   ar
   123    69    66    1
   124    66    67    1
   125     2     3    1
   126   130   128   ar
   127   130   129   ar
   128     8    10   ar
   129    13     3   am
   130    13    14    1
   131   134   133    1
   132     7     9   ar
   133    76    75    1
   134   128   126   ar
   135   104   102    1
   136    67    68    2
   137   103   102    1
   138   129   127   ar
   139     3     4    2
   140    14    15    1
   141    10    11   ar
   142     9    11   ar
   143    16    15    2
   144   118   117    1
   145   118   119    1
   146    11    12    1
   147   102   101    1
   148    39    38   ar
   149   126   125   ar
   150   123   122    2
   151   117   114    1
   152   133   132    1
   153   133   136    1
   154   127   125   ar
   155    75    74    1
   156    75    78    1
   157    38    40   ar
   158    38    37    1
   159   101    98    1
   160   125   124    1
   161    79    78    1
   162    96    94   ar
   163   119   113    1
   164   122   121    1
   165   136   137    1
   166   111   110    2
   167    36    35    2
   168    78    80    1
   169   114   113    1
   170   114   115    1
   171    37    34    1
   172    98    97    1
   173    98    99    1
   174   109   110    1
   175   109   106    1
   176    34    35    1
   177    34    33    1
   178   113   107   am
   179    94    95   ar
   180    94    93    1
   181    92    91    2
   182   110   112   am
   183    32    30   ar
   184    32    31   ar
   185   124   121    1
   186   100    99    2
   187    30    28   ar
   188   121   120    1
   189    31    29   ar
   190    97    91   am
   191   137   139   ar
   192   137   138   ar
   193   142   139   ar
   194   142   144   ar
   195   116   115    2
   196    91    90    1
   197   107   106    1
   198   107   108    2
   199    28    29   ar
   200    28    27    1
   201    93    90    1
   202   106   105    1
   203    27    24    1
   204   139   141   ar
   205   144   145   ar
   206    90    89    1
   207   138   140   ar
   208    24    23    1
   209    24    25    1
   210   141   140   ar
   211   141   143   ar
   212   145   143   ar
   213    25    26    2
