@<TRIPOS>MOLECULE
tmp/5k6nA00.pdb
 130 122 0 0 0
SMALL
GASTEIGER

@<TRIPOS>ATOM
      1  N         13.7590    1.6050   39.1330 N.3    57  SER57      -0.1217
      2  CA        12.4020    1.3860   39.6500 C.3    57  SER57       0.1889
      3  C         11.2980    1.8800   38.7250 C.2    57  SER57       0.2288
      4  O         10.2450    1.2640   38.6790 O.2    57  SER57      -0.2866
      5  CB        12.2290    2.0790   41.0090 C.3    57  SER57       0.2089
      6  OG        12.4330    3.4880   40.9050 O.3    57  SER57      -0.2183
      7  N         18.4320    5.3790   37.8620 N.3   137  GLU137     -0.1245
      8  CA        18.5910    5.3400   39.2970 C.3   137  GLU137      0.1567
      9  C         20.0010    4.8930   39.6660 C.2   137  GLU137      0.2260
     10  O         20.5240    3.9860   39.0410 O.2   137  GLU137     -0.2867
     11  CB        17.5470    4.3830   39.8390 C.3   137  GLU137      0.0388
     12  CG        17.3230    4.4760   41.3220 C.3   137  GLU137      0.1160
     13  CD        16.1070    3.6980   41.7670 C.2   137  GLU137      0.3649
     14  OE1       15.2500    3.3600   40.9230 O.co2 137  GLU137     -0.2457
     15  OE2       16.0030    3.4360   42.9750 O.co2 137  GLU137     -0.2457
     16  N          5.3790   -3.2300   45.3040 N.3   504  ALA504     -0.1245
     17  CA         6.3750   -2.6480   46.2060 C.3   504  ALA504      0.1562
     18  C          6.0810   -2.8450   47.6820 C.2   504  ALA504      0.2260
     19  O          7.0210   -3.0440   48.4640 O.2   504  ALA504     -0.2867
     20  CB         6.5470   -1.1500   45.9270 C.3   504  ALA504      0.0290
     21  N          5.5760    0.8340   42.1030 N.3   526  ASP526     -0.1239
     22  CA         6.1790    1.6760   41.0820 C.3   526  ASP526      0.1674
     23  C          5.3710    1.5130   39.7850 C.2   526  ASP526      0.2266
     24  O          4.7270    0.4700   39.6070 O.2   526  ASP526     -0.2867
     25  CB         7.6170    1.2710   40.8220 C.3   526  ASP526      0.1410
     26  CG         8.5500    1.6790   41.9410 C.2   526  ASP526      0.3668
     27  OD1        8.6040    2.8930   42.2470 O.co2 526  ASP526     -0.2456
     28  OD2        9.2580    0.7950   42.4820 O.co2 526  ASP526     -0.2456
     29  N          4.9180   -1.5140   37.5590 N.3   532  ARG532     -0.1245
     30  CA         6.0110   -2.4620   37.5780 C.3   532  ARG532      0.1563
     31  C          5.5610   -3.7010   38.3430 C.2   532  ARG532      0.2260
     32  O          5.3540   -3.6390   39.5560 O.2   532  ARG532     -0.2867
     33  CB         7.1940   -1.8190   38.2860 C.3   532  ARG532      0.0307
     34  CG         8.3540   -2.7500   38.5800 C.3   532  ARG532      0.0489
     35  CD         9.2290   -2.1400   39.6410 C.3   532  ARG532      0.2205
     36  NE        10.2090   -3.0840   40.1340 N.pl3 532  ARG532     -0.0865
     37  CZ        11.1940   -2.7720   40.9700 C.cat 532  ARG532      0.5346
     38  NH1       11.3510   -1.5210   41.4280 N.pl3 532  ARG532      0.1354
     39  NH2       12.0380   -3.7240   41.3490 N.pl3 532  ARG532      0.1354
     40  N          3.6600    4.8680   42.7140 N.3   577  LEU577     -0.1245
     41  CA         4.7850    5.6180   43.2920 C.3   577  LEU577      0.1561
     42  C          5.3080    6.6490   42.2910 C.2   577  LEU577      0.2260
     43  O          6.4030    6.5450   41.7420 O.2   577  LEU577     -0.2867
     44  CB         5.8820    4.6790   43.8110 C.3   577  LEU577      0.0270
     45  CG         5.4290    3.6670   44.8760 C.3   577  LEU577      0.0019
     46  CD1        6.5660    2.7250   45.2500 C.3   577  LEU577      0.0001
     47  CD2        4.8810    4.3430   46.1210 C.3   577  LEU577      0.0001
     48  N         18.3160   10.5310   37.0280 N.3   591  ARG591     -0.1245
     49  CA        16.8510   10.3260   37.0620 C.3   591  ARG591      0.1563
     50  C         16.0170   11.4710   36.4620 C.2   591  ARG591      0.2260
     51  O         14.7840   11.4710   36.6250 O.2   591  ARG591     -0.2867
     52  CB        16.3640   10.0540   38.4950 C.3   591  ARG591      0.0307
     53  CG        16.7600    8.7030   39.0240 C.3   591  ARG591      0.0489
     54  CD        16.1560    8.4370   40.3910 C.3   591  ARG591      0.2205
     55  NE        14.8580    7.7610   40.3160 N.pl3 591  ARG591     -0.0865
     56  CZ        14.2580    7.1520   41.3380 C.cat 591  ARG591      0.5346
     57  NH1       14.8260    7.1250   42.5420 N.pl3 591  ARG591      0.1354
     58  NH2       13.0740    6.5570   41.1600 N.pl3 591  ARG591      0.1354
     59  N          7.1360   12.1940   44.9960 N.3   624  LYS624     -0.1231
     60  CA         8.4930   11.8550   45.4410 C.3   624  LYS624      0.1693
     61  C          9.5430   12.6340   44.6630 C.2   624  LYS624      0.2592
     62  O          9.2320   13.1370   43.5760 O.2   624  LYS624     -0.2718
     63  CB         8.7360   10.3590   45.2590 C.3   624  LYS624      0.0285
     64  CG         8.8830    9.9040   43.8110 C.3   624  LYS624      0.0035
     65  CD         8.8520    8.3810   43.6760 C.3   624  LYS624      0.0206
     66  CE         9.2790    7.9700   42.2770 C.3   624  LYS624      0.1093
     67  NZ         9.2260    6.5010   42.0590 N.3   624  LYS624     -0.1314
     68  N         10.7770   12.7710   45.1630 N.am  625  HIS625     -0.1976
     69  CA        11.2400   12.3900   46.5140 C.3   625  HIS625      0.1656
     70  C         11.4020   13.6740   47.3140 C.2   625  HIS625      0.2291
     71  O         12.0920   14.5930   46.8790 O.2   625  HIS625     -0.2864
     72  CB        12.5790   11.6650   46.4160 C.3   625  HIS625      0.0771
     73  CG        12.5880   10.5780   45.3930 C.ar  625  HIS625      0.0820
     74  ND1       12.8760   10.8100   44.0680 N.ar  625  HIS625     -0.2267
     75  CD2       12.3240    9.2550   45.4960 C.ar  625  HIS625      0.1154
     76  CE1       12.7930    9.6770   43.3970 C.ar  625  HIS625      0.1986
     77  NE2       12.4680    8.7160   44.2420 N.ar  625  HIS625     -0.2212
     78  N         23.6860    9.0020   46.9690 N.3   635  ARG635     -0.1245
     79  CA        22.3240    9.3300   47.4350 C.3   635  ARG635      0.1563
     80  C         21.8930    8.6650   48.7500 C.2   635  ARG635      0.2260
     81  O         20.9060    9.0880   49.3530 O.2   635  ARG635     -0.2867
     82  CB        21.2840    9.0660   46.3340 C.3   635  ARG635      0.0307
     83  CG        21.1110    7.6040   45.9460 C.3   635  ARG635      0.0489
     84  CD        19.9250    7.4140   45.0170 C.3   635  ARG635      0.2205
     85  NE        19.6920    5.9970   44.7830 N.pl3 635  ARG635     -0.0865
     86  CZ        18.5280    5.4400   44.4580 C.cat 635  ARG635      0.5346
     87  NH1       17.4170    6.1580   44.3060 N.pl3 635  ARG635      0.1354
     88  NH2       18.4780    4.1260   44.2910 N.pl3 635  ARG635      0.1354
     89  N          6.6010   10.6670   49.5030 N.3   668  MET668     -0.1245
     90  CA         7.7340    9.8030   49.7960 C.3   668  MET668      0.1570
     91  C          8.9280   10.6910   50.0560 C.2   668  MET668      0.2261
     92  O          9.1940   11.5990   49.2660 O.2   668  MET668     -0.2867
     93  CB         8.0390    8.8670   48.6270 C.3   668  MET668      0.0387
     94  CG         9.1210    7.8240   48.9050 C.3   668  MET668      0.0595
     95  SD         9.7050    6.9220   47.4470 S.3   668  MET668     -0.1393
     96  CE         8.1580    6.2980   46.7930 C.3   668  MET668      0.0692
     97  N         16.4220    9.1660   50.1870 N.3   671  TYR671     -0.1241
     98  CA        17.5120    8.3610   50.7310 C.3   671  TYR671      0.1605
     99  C         18.5870    9.2070   51.4120 C.2   671  TYR671      0.2264
    100  O         19.4450    8.6630   52.1060 O.2   671  TYR671     -0.2867
    101  CB        18.1930    7.5520   49.6120 C.3   671  TYR671      0.0534
    102  CG        17.4660    6.3000   49.1770 C.ar  671  TYR671     -0.0201
    103  CD1       17.2010    5.2810   50.0890 C.ar  671  TYR671     -0.0009
    104  CD2       17.0960    6.1050   47.8380 C.ar  671  TYR671     -0.0009
    105  CE1       16.5550    4.1200   49.6980 C.ar  671  TYR671      0.0417
    106  CE2       16.4510    4.9500   47.4380 C.ar  671  TYR671      0.0417
    107  CZ        16.1770    3.9650   48.3670 C.ar  671  TYR671      0.1957
    108  OH        15.5410    2.8260   47.9660 O.3   671  TYR671     -0.2866
    109  N         11.5300    6.3190   51.4580 N.3   703  ASP703     -0.1225
    110  CA        12.0030    5.6180   50.2920 C.3   703  ASP703      0.1805
    111  C         12.4280    4.2030   50.7650 C.2   703  ASP703      0.2597
    112  O         12.6020    3.9620   51.9600 O.2   703  ASP703     -0.2718
    113  CB        13.1310    6.4020   49.6070 C.3   703  ASP703      0.1424
    114  CG        13.2660    6.0660   48.1200 C.2   703  ASP703      0.3668
    115  OD1       12.8450    4.9660   47.7460 O.co2 703  ASP703     -0.2456
    116  OD2       13.7950    6.8770   47.3260 O.co2 703  ASP703     -0.2456
    117  N         12.5580    3.2800   49.8220 N.am  704  TRP704     -0.1976
    118  CA        12.6260    1.8330   50.1040 C.3   704  TRP704      0.1640
    119  C         13.9510    1.4050   50.7550 C.2   704  TRP704      0.2290
    120  O         15.0140    1.4220   50.1190 O.2   704  TRP704     -0.2864
    121  CB        12.3610    1.0220   48.8140 C.3   704  TRP704      0.0576
    122  CG        10.9480    0.5190   48.7050 C.ar  704  TRP704      0.0006
    123  CD1       10.5590   -0.7810   48.5690 C.ar  704  TRP704      0.0946
    124  CD2        9.7430    1.2910   48.7760 C.ar  704  TRP704      0.0152
    125  NE1        9.1910   -0.8680   48.5340 N.ar  704  TRP704     -0.2442
    126  CE2        8.6640    0.3900   48.6670 C.ar  704  TRP704      0.0810
    127  CE3        9.4680    2.6550   48.9320 C.ar  704  TRP704      0.0012
    128  CZ2        7.3270    0.8080   48.6960 C.ar  704  TRP704      0.0191
    129  CZ3        8.1270    3.0730   48.9680 C.ar  704  TRP704      0.0001
    130  CH2        7.0830    2.1480   48.8490 C.ar  704  TRP704      0.0015
@<TRIPOS>BOND
     1    50    51    2
     2    50    49    1
     3    48    49    1
     4    49    52    1
     5    29    30    1
     6    30    33    1
     7    30    31    1
     8     7     8    1
     9    33    34    1
    10    31    32    2
    11    52    53    1
    12    34    35    1
    13     4     3    2
    14     3     2    1
    15    53    54    1
    16    10     9    2
    17     1     2    1
    18     8     9    1
    19     8    11    1
    20    24    23    2
    21    35    36    1
    22     2     5    1
    23    23    22    1
    24    11    12    1
    25    36    37    2
    26    55    54    1
    27    55    56    2
    28    25    22    1
    29    25    26    1
    30     6     5    1
    31    14    13   ar
    32    37    39    1
    33    37    38    1
    34    22    21    1
    35    58    56    1
    36    12    13    1
    37    56    57    1
    38    43    42    2
    39    13    15   ar
    40    26    27   ar
    41    26    28   ar
    42    67    66    1
    43    66    65    1
    44    42    41    1
    45    40    41    1
    46    41    44    1
    47    76    74   ar
    48    76    77   ar
    49    62    61    2
    50    65    64    1
    51    44    45    1
    52    64    63    1
    53    74    73   ar
    54    77    75   ar
    55    88    86    1
    56    87    86    1
    57    86    85    2
    58    61    68   am
    59    61    60    1
    60    85    84    1
    61    45    46    1
    62    45    47    1
    63    59    60    1
    64    84    83    1
    65    68    69    1
    66    63    60    1
    67    16    17    1
    68    73    75   ar
    69    73    72    1
    70    20    17    1
    71    83    82    1
    72    17    18    1
    73    82    79    1
    74    72    69    1
    75    69    70    1
    76    96    95    1
    77    71    70    2
    78    78    79    1
    79   116   114   ar
    80    79    80    1
    81   106   104   ar
    82   106   107   ar
    83    95    94    1
    84    18    19    2
    85   115   114   ar
    86   104   102   ar
    87   108   107    1
    88   114   113    1
    89   107   105   ar
    90   125   123   ar
    91   125   126   ar
    92   123   122   ar
    93    93    94    1
    94    93    90    1
    95   126   128   ar
    96   126   124   ar
    97   128   130   ar
    98   122   124   ar
    99   122   121    1
   100    80    81    2
   101   124   127   ar
   102   121   118    1
   103   130   129   ar
   104   127   129   ar
   105   102   101    1
   106   102   103   ar
   107    92    91    2
   108    89    90    1
   109   113   110    1
   110   101    98    1
   111   105   103   ar
   112    90    91    1
   113   117   118    1
   114   117   111   am
   115   118   119    1
   116   120   119    2
   117    97    98    1
   118   110   111    1
   119   110   109    1
   120    98    99    1
   121   111   112    2
   122    99   100    2
