@<TRIPOS>MOLECULE
tmp/5k6oA00.pdb
 166 160 0 0 0
SMALL
GASTEIGER

@<TRIPOS>ATOM
      1  N         13.7180    1.8020   39.0420 N.3    56  SER56      -0.1217
      2  CA        12.3570    1.5520   39.5990 C.3    56  SER56       0.1889
      3  C         11.2250    2.0440   38.7130 C.2    56  SER56       0.2288
      4  O         10.2030    1.3800   38.6290 O.2    56  SER56      -0.2866
      5  CB        12.1830    2.1630   41.0120 C.3    56  SER56       0.2089
      6  OG        12.2550    3.5910   41.0000 O.3    56  SER56      -0.2183
      7  N         21.3960   -4.0320   38.3880 N.3   103  TRP103     -0.1241
      8  CA        20.4360   -2.9820   38.7870 C.3   103  TRP103      0.1605
      9  C         20.6160   -1.6490   38.0240 C.2   103  TRP103      0.2264
     10  O         19.7430   -1.2470   37.2310 O.2   103  TRP103     -0.2867
     11  CB        20.5200   -2.7550   40.3130 C.3   103  TRP103      0.0550
     12  CG        19.7180   -1.5670   40.8210 C.ar  103  TRP103      0.0003
     13  CD1       20.2150   -0.3770   41.3120 C.ar  103  TRP103      0.0946
     14  CD2       18.2860   -1.4530   40.8690 C.ar  103  TRP103      0.0152
     15  NE1       19.1780    0.4590   41.6620 N.ar  103  TRP103     -0.2442
     16  CE2       17.9850   -0.1720   41.4040 C.ar  103  TRP103      0.0810
     17  CE3       17.2250   -2.3080   40.5180 C.ar  103  TRP103      0.0012
     18  CZ2       16.6650    0.2680   41.6030 C.ar  103  TRP103      0.0191
     19  CZ3       15.9080   -1.8630   40.7160 C.ar  103  TRP103      0.0001
     20  CH2       15.6440   -0.5870   41.2530 C.ar  103  TRP103      0.0015
     21  N         18.3770    5.3920   38.0680 N.3   140  GLU140     -0.1245
     22  CA        18.7860    5.3190   39.4560 C.3   140  GLU140      0.1567
     23  C         20.2480    4.9210   39.6040 C.2   140  GLU140      0.2260
     24  O         20.7320    4.0270   38.9210 O.2   140  GLU140     -0.2867
     25  CB        17.9430    4.3070   40.2160 C.3   140  GLU140      0.0388
     26  CG        16.5340    4.7490   40.5120 C.3   140  GLU140      0.1160
     27  CD        15.8920    3.9170   41.6080 C.2   140  GLU140      0.3649
     28  OE1       15.1040    3.0170   41.2700 O.co2 140  GLU140     -0.2457
     29  OE2       16.1840    4.1520   42.8040 O.co2 140  GLU140     -0.2457
     30  N          9.5140   -6.2510   49.9130 N.3   497  MET497     -0.1245
     31  CA         8.7310   -6.1590   48.6760 C.3   497  MET497      0.1570
     32  C          8.0190   -7.4820   48.3970 C.2   497  MET497      0.2261
     33  O          8.4930   -8.5760   48.7780 O.2   497  MET497     -0.2867
     34  CB         9.6160   -5.7820   47.4870 C.3   497  MET497      0.0387
     35  CG        10.0700   -4.3260   47.4940 C.3   497  MET497      0.0595
     36  SD        11.1410   -3.9340   46.0910 S.3   497  MET497     -0.1393
     37  CE         9.9040   -3.6940   44.8090 C.3   497  MET497      0.0692
     38  N          5.3870   -3.2030   45.2990 N.3   507  ALA507     -0.1245
     39  CA         6.4230   -2.6660   46.1880 C.3   507  ALA507      0.1562
     40  C          6.1270   -2.7920   47.6810 C.2   507  ALA507      0.2260
     41  O          7.0650   -2.9370   48.4700 O.2   507  ALA507     -0.2867
     42  CB         6.6910   -1.1960   45.8540 C.3   507  ALA507      0.0290
     43  N          5.5520    0.9910   42.1810 N.3   529  ASP529     -0.1239
     44  CA         6.1500    1.8110   41.1110 C.3   529  ASP529      0.1674
     45  C          5.3320    1.6630   39.8420 C.2   529  ASP529      0.2266
     46  O          4.7890    0.5930   39.5950 O.2   529  ASP529     -0.2867
     47  CB         7.5520    1.3320   40.7510 C.3   529  ASP529      0.1410
     48  CG         8.5840    1.6930   41.7940 C.2   529  ASP529      0.3668
     49  OD1        8.7260    2.9100   42.0620 O.co2 529  ASP529     -0.2456
     50  OD2        9.2700    0.7640   42.3120 O.co2 529  ASP529     -0.2456
     51  N          5.0080   -1.3970   37.5090 N.3   535  ARG535     -0.1245
     52  CA         6.0880   -2.3610   37.5760 C.3   535  ARG535      0.1563
     53  C          5.5830   -3.5480   38.3590 C.2   535  ARG535      0.2260
     54  O          5.2730   -3.4130   39.5240 O.2   535  ARG535     -0.2867
     55  CB         7.2770   -1.7370   38.3120 C.3   535  ARG535      0.0307
     56  CG         8.3950   -2.6930   38.6690 C.3   535  ARG535      0.0489
     57  CD         9.2940   -2.0930   39.7190 C.3   535  ARG535      0.2205
     58  NE        10.2810   -3.0580   40.1960 N.pl3 535  ARG535     -0.0865
     59  CZ        11.2910   -2.7710   41.0200 C.cat 535  ARG535      0.5346
     60  NH1       11.4870   -1.5210   41.4790 N.pl3 535  ARG535      0.1354
     61  NH2       12.1110   -3.7510   41.3890 N.pl3 535  ARG535      0.1354
     62  N          3.6500    4.9540   42.9500 N.3   580  LEU580     -0.1245
     63  CA         4.7970    5.7010   43.4770 C.3   580  LEU580      0.1561
     64  C          5.2840    6.6960   42.4220 C.2   580  LEU580      0.2260
     65  O          6.2600    6.4820   41.7190 O.2   580  LEU580     -0.2867
     66  CB         5.9010    4.7550   43.9750 C.3   580  LEU580      0.0270
     67  CG         5.4590    3.7750   45.0830 C.3   580  LEU580      0.0019
     68  CD1        6.5700    2.8030   45.4470 C.3   580  LEU580      0.0001
     69  CD2        4.9800    4.4900   46.3310 C.3   580  LEU580      0.0001
     70  N         18.2970   10.5630   37.0210 N.3   594  ARG594     -0.1245
     71  CA        16.8470   10.3890   37.0890 C.3   594  ARG594      0.1563
     72  C         16.0570   11.5410   36.4760 C.2   594  ARG594      0.2260
     73  O         14.8220   11.5370   36.5760 O.2   594  ARG594     -0.2867
     74  CB        16.3680   10.1680   38.5320 C.3   594  ARG594      0.0307
     75  CG        16.7150    8.8180   39.0660 C.3   594  ARG594      0.0489
     76  CD        16.1050    8.5930   40.4290 C.3   594  ARG594      0.2205
     77  NE        14.8040    7.9230   40.3630 N.pl3 594  ARG594     -0.0865
     78  CZ        14.2340    7.2890   41.3860 C.cat 594  ARG594      0.5346
     79  NH1       14.8430    7.2320   42.5750 N.pl3 594  ARG594      0.1354
     80  NH2       13.0460    6.7060   41.2320 N.pl3 594  ARG594      0.1354
     81  N          7.0890   12.1750   45.1150 N.3   627  LYS627     -0.1231
     82  CA         8.4560   11.8630   45.5810 C.3   627  LYS627      0.1693
     83  C          9.4550   12.7020   44.8040 C.2   627  LYS627      0.2592
     84  O          9.0610   13.3130   43.8010 O.2   627  LYS627     -0.2718
     85  CB         8.7610   10.3810   45.3640 C.3   627  LYS627      0.0285
     86  CG         8.9420    9.9630   43.9040 C.3   627  LYS627      0.0035
     87  CD         8.7180    8.4690   43.6720 C.3   627  LYS627      0.0206
     88  CE         9.3320    8.0270   42.3490 C.3   627  LYS627      0.1093
     89  NZ         9.1320    6.5700   42.0910 N.3   627  LYS627     -0.1314
     90  N         10.7200   12.8050   45.2400 N.am  628  HIS628     -0.1976
     91  CA        11.2300   12.4590   46.6010 C.3   628  HIS628      0.1656
     92  C         11.4470   13.7540   47.3920 C.2   628  HIS628      0.2291
     93  O         12.2290   14.6130   46.9870 O.2   628  HIS628     -0.2864
     94  CB        12.5450   11.7180   46.4930 C.3   628  HIS628      0.0771
     95  CG        12.5210   10.6250   45.4800 C.ar  628  HIS628      0.0820
     96  ND1       12.8080   10.8440   44.1520 N.ar  628  HIS628     -0.2267
     97  CD2       12.2270    9.3090   45.5940 C.ar  628  HIS628      0.1154
     98  CE1       12.7010    9.7060   43.4910 C.ar  628  HIS628      0.1986
     99  NE2       12.3600    8.7580   44.3470 N.ar  628  HIS628     -0.2212
    100  N         23.6550    9.0340   46.9260 N.3   638  ARG638     -0.1245
    101  CA        22.3470    9.4600   47.4350 C.3   638  ARG638      0.1563
    102  C         21.9100    8.7890   48.7460 C.2   638  ARG638      0.2260
    103  O         20.8750    9.1690   49.3020 O.2   638  ARG638     -0.2867
    104  CB        21.2690    9.2280   46.3650 C.3   638  ARG638      0.0307
    105  CG        20.9020    7.7560   46.1850 C.3   638  ARG638      0.0489
    106  CD        20.4320    7.4630   44.7830 C.3   638  ARG638      0.2205
    107  NE        19.8190    6.1420   44.6690 N.pl3 638  ARG638     -0.0865
    108  CZ        18.5140    5.8960   44.5810 C.cat 638  ARG638      0.5346
    109  NH1       17.5970    6.8740   44.6110 N.pl3 638  ARG638      0.1354
    110  NH2       18.1150    4.6420   44.4690 N.pl3 638  ARG638      0.1354
    111  N          6.5850   10.7940   49.6780 N.3   671  MET671     -0.1245
    112  CA         7.7220    9.9120   49.9540 C.3   671  MET671      0.1570
    113  C          8.9610   10.7580   50.2090 C.2   671  MET671      0.2261
    114  O          9.2710   11.6210   49.4060 O.2   671  MET671     -0.2867
    115  CB         8.0030    8.9580   48.7730 C.3   671  MET671      0.0387
    116  CG         9.0910    7.9130   49.0610 C.3   671  MET671      0.0595
    117  SD         9.7390    6.9580   47.6630 S.3   671  MET671     -0.1393
    118  CE         8.1990    6.3640   46.9670 C.3   671  MET671      0.0692
    119  N         16.4490    9.3070   50.3450 N.3   674  TYR674     -0.1241
    120  CA        17.5450    8.5110   50.8730 C.3   674  TYR674      0.1605
    121  C         18.6550    9.3620   51.4800 C.2   674  TYR674      0.2264
    122  O         19.5250    8.8160   52.1590 O.2   674  TYR674     -0.2867
    123  CB        18.1770    7.7010   49.7440 C.3   674  TYR674      0.0534
    124  CG        17.4540    6.4410   49.3260 C.ar  674  TYR674     -0.0201
    125  CD1       17.2320    5.4160   50.2430 C.ar  674  TYR674     -0.0009
    126  CD2       17.0980    6.2200   47.9930 C.ar  674  TYR674     -0.0009
    127  CE1       16.6250    4.2350   49.8650 C.ar  674  TYR674      0.0417
    128  CE2       16.4950    5.0380   47.6100 C.ar  674  TYR674      0.0417
    129  CZ        16.2560    4.0530   48.5490 C.ar  674  TYR674      0.1957
    130  OH        15.6660    2.8810   48.1830 O.3   674  TYR674     -0.2866
    131  N         11.5660    6.3780   51.6410 N.3   706  ASP706     -0.1225
    132  CA        12.0330    5.6730   50.4590 C.3   706  ASP706      0.1805
    133  C         12.4200    4.2300   50.8950 C.2   706  ASP706      0.2598
    134  O         12.5450    3.9270   52.0810 O.2   706  ASP706     -0.2718
    135  CB        13.1860    6.4330   49.7860 C.3   706  ASP706      0.1424
    136  CG        13.2590    6.1850   48.2680 C.2   706  ASP706      0.3668
    137  OD1       12.8120    5.1050   47.8240 O.co2 706  ASP706     -0.2456
    138  OD2       13.7700    7.0630   47.5270 O.co2 706  ASP706     -0.2456
    139  N         12.5770    3.3320   49.9440 N.am  707  TRP707     -0.1962
    140  CA        12.6700    1.9050   50.2540 C.3   707  TRP707      0.1771
    141  C         14.0080    1.4790   50.8960 C.2   707  TRP707      0.2619
    142  O         15.0710    1.4760   50.2420 O.2   707  TRP707     -0.2715
    143  CB        12.4090    1.0840   48.9850 C.3   707  TRP707      0.0590
    144  CG        11.0140    0.5710   48.8750 C.ar  707  TRP707      0.0006
    145  CD1       10.6550   -0.7260   48.7240 C.ar  707  TRP707      0.0946
    146  CD2        9.8030    1.3210   48.9390 C.ar  707  TRP707      0.0152
    147  NE1        9.2960   -0.8430   48.6730 N.ar  707  TRP707     -0.2442
    148  CE2        8.7420    0.4050   48.7940 C.ar  707  TRP707      0.0810
    149  CE3        9.5040    2.6760   49.0660 C.ar  707  TRP707      0.0012
    150  CZ2        7.3950    0.8000   48.7940 C.ar  707  TRP707      0.0191
    151  CZ3        8.1490    3.0730   49.0670 C.ar  707  TRP707      0.0001
    152  CH2        7.1290    2.1310   48.9440 C.ar  707  TRP707      0.0015
    153  N         13.9310    1.0850   52.1630 N.am  708  TRP708     -0.1974
    154  CA        15.1020    0.7450   52.9870 C.3   708  TRP708      0.1640
    155  C         16.0020    1.9500   53.2460 C.2   708  TRP708      0.2290
    156  O         17.2370    1.8230   53.3800 O.2   708  TRP708     -0.2864
    157  CB        15.9190   -0.4300   52.4090 C.3   708  TRP708      0.0576
    158  CG        15.1340   -1.6490   52.2160 C.ar  708  TRP708      0.0006
    159  CD1       14.6120   -2.4540   53.1910 C.ar  708  TRP708      0.0946
    160  CD2       14.7630   -2.2260   50.9630 C.ar  708  TRP708      0.0152
    161  NE1       13.9210   -3.4880   52.6180 N.ar  708  TRP708     -0.2442
    162  CE2       14.0050   -3.3830   51.2510 C.ar  708  TRP708      0.0810
    163  CE3       15.0020   -1.8800   49.6230 C.ar  708  TRP708      0.0012
    164  CZ2       13.4810   -4.2090   50.2430 C.ar  708  TRP708      0.0191
    165  CZ3       14.4760   -2.6990   48.6120 C.ar  708  TRP708      0.0001
    166  CH2       13.7210   -3.8510   48.9330 C.ar  708  TRP708      0.0015
@<TRIPOS>BOND
     1    72    73    2
     2    72    71    1
     3    70    71    1
     4    71    74    1
     5    10     9    2
     6    51    52    1
     7    52    55    1
     8    52    53    1
     9     9     8    1
    10    21    22    1
    11    55    56    1
    12    53    54    2
    13     7     8    1
    14    74    75    1
    15     4     3    2
    16    56    57    1
    17     3     2    1
    18     8    11    1
    19    24    23    2
    20     1     2    1
    21    75    76    1
    22    22    23    1
    23    22    25    1
    24    46    45    2
    25     2     5    1
    26    57    58    1
    27    45    44    1
    28    58    59    2
    29    25    26    1
    30    11    12    1
    31    77    76    1
    32    77    78    2
    33    26    27    1
    34    17    19   ar
    35    17    14   ar
    36    19    20   ar
    37    47    44    1
    38    47    48    1
    39    12    14   ar
    40    12    13   ar
    41    14    16   ar
    42     6     5    1
    43    59    61    1
    44    59    60    1
    45    44    43    1
    46    80    78    1
    47    20    18   ar
    48    28    27   ar
    49    13    15   ar
    50    78    79    1
    51    16    18   ar
    52    16    15   ar
    53    27    29   ar
    54    65    64    2
    55    48    49   ar
    56    48    50   ar
    57    89    88    1
    58    88    87    1
    59    64    63    1
    60    62    63    1
    61    63    66    1
    62    98    96   ar
    63    98    99   ar
    64    87    86    1
    65    84    83    2
    66    86    85    1
    67    66    67    1
    68    96    95   ar
    69    99    97   ar
    70   110   108    1
    71   108   109    1
    72   108   107    2
    73   107   106    1
    74   106   105    1
    75    83    90   am
    76    83    82    1
    77    37    36    1
    78    67    68    1
    79    67    69    1
    80    81    82    1
    81    90    91    1
    82    38    39    1
    83    85    82    1
    84    95    97   ar
    85    95    94    1
    86    42    39    1
    87    36    35    1
    88   105   104    1
    89    39    40    1
    90   104   101    1
    91    94    91    1
    92    91    92    1
    93   100   101    1
    94   118   117    1
    95    93    92    2
    96   101   102    1
    97    34    35    1
    98    34    31    1
    99   138   136   ar
   100   128   126   ar
   101   128   129   ar
   102   117   116    1
   103    40    41    2
   104   137   136   ar
   105   126   124   ar
   106   130   129    1
   107   136   135    1
   108    32    31    1
   109    32    33    2
   110   129   127   ar
   111   165   166   ar
   112   165   163   ar
   113   147   145   ar
   114   147   148   ar
   115    31    30    1
   116   145   144   ar
   117   102   103    2
   118   115   116    1
   119   115   112    1
   120   150   148   ar
   121   150   152   ar
   122   148   146   ar
   123   144   146   ar
   124   144   143    1
   125   166   164   ar
   126   146   149   ar
   127   152   151   ar
   128   143   140    1
   129   149   151   ar
   130   124   123    1
   131   124   125   ar
   132   114   113    2
   133   163   160   ar
   134   111   112    1
   135   123   120    1
   136   135   132    1
   137   127   125   ar
   138   139   140    1
   139   139   133   am
   140   112   113    1
   141   142   141    2
   142   164   162   ar
   143   140   141    1
   144   119   120    1
   145   132   133    1
   146   132   131    1
   147   120   121    1
   148   133   134    2
   149   141   153   am
   150   160   162   ar
   151   160   158   ar
   152   162   161   ar
   153   121   122    2
   154   153   154    1
   155   158   157    1
   156   158   159   ar
   157   157   154    1
   158   161   159   ar
   159   154   155    1
   160   155   156    2
