@<TRIPOS>MOLECULE
tmp/5k6tA03.pdb
 152 148 0 0 0
SMALL
GASTEIGER

@<TRIPOS>ATOM
      1  N         73.3920  -66.7660  -17.0680 N.3   399  VAL399     -0.1231
      2  CA        73.0360  -68.0680  -16.5250 C.3   399  VAL399      0.1692
      3  C         74.2750  -68.9480  -16.4790 C.2   399  VAL399      0.2593
      4  O         75.0220  -69.0210  -17.4490 O.2   399  VAL399     -0.2718
      5  CB        71.9350  -68.7510  -17.3620 C.3   399  VAL399      0.0266
      6  CG1       71.7570  -70.2030  -16.9410 C.3   399  VAL399      0.0020
      7  CG2       70.6240  -67.9900  -17.2390 C.3   399  VAL399      0.0020
      8  N         74.4990  -69.6020  -15.3450 N.am  400  GLY400     -0.1942
      9  CA        75.6590  -70.4560  -15.1810 C.3   400  GLY400      0.2014
     10  C         76.2720  -70.3230  -13.8020 C.2   400  GLY400      0.2639
     11  O         75.5810  -70.0060  -12.8330 O.2   400  GLY400     -0.2714
     12  N         77.5760  -70.5660  -13.7170 N.am  401  GLN401     -0.1963
     13  CA        78.2930  -70.4910  -12.4500 C.3   401  GLN401      0.1733
     14  C         78.2640  -69.0850  -11.8600 C.2   401  GLN401      0.2616
     15  O         78.0190  -68.9110  -10.6650 O.2   401  GLN401     -0.2715
     16  CB        79.7400  -70.9460  -12.6300 C.3   401  GLN401      0.0408
     17  CG        79.9050  -72.4330  -12.8700 C.3   401  GLN401      0.0908
     18  CD        81.3590  -72.8290  -13.0200 C.2   401  GLN401      0.2608
     19  OE1       82.1690  -72.0660  -13.5470 O.2   401  GLN401     -0.2717
     20  NE2       81.7010  -74.0210  -12.5470 N.am  401  GLN401     -0.0878
     21  N         78.5180  -68.0880  -12.7030 N.am  402  HIS402     -0.1973
     22  CA        78.5480  -66.6980  -12.2610 C.3   402  HIS402      0.1656
     23  C         77.1880  -66.2610  -11.7260 C.2   402  HIS402      0.2291
     24  O         77.1030  -65.4030  -10.8490 O.2   402  HIS402     -0.2864
     25  CB        78.9820  -65.7780  -13.4040 C.3   402  HIS402      0.0771
     26  CG        77.9420  -65.6040  -14.4660 C.ar  402  HIS402      0.0820
     27  ND1       77.7400  -66.5280  -15.4680 N.ar  402  HIS402     -0.2267
     28  CD2       77.0430  -64.6140  -14.6790 C.ar  402  HIS402      0.1154
     29  CE1       76.7610  -66.1140  -16.2540 C.ar  402  HIS402      0.1986
     30  NE2       76.3220  -64.9550  -15.7970 N.ar  402  HIS402     -0.2212
     31  N         77.0340  -67.5320   -8.0810 N.3   405  TRP405     -0.1241
     32  CA        77.9290  -66.7640   -7.2260 C.3   405  TRP405      0.1605
     33  C         77.3920  -65.3560   -6.9800 C.2   405  TRP405      0.2264
     34  O         77.5950  -64.7850   -5.9090 O.2   405  TRP405     -0.2867
     35  CB        79.3280  -66.7080   -7.8410 C.3   405  TRP405      0.0550
     36  CG        80.0430  -68.0260   -7.7940 C.ar  405  TRP405      0.0003
     37  CD1       79.9790  -68.9580   -6.7980 C.ar  405  TRP405      0.0946
     38  CD2       80.9140  -68.5680   -8.7940 C.ar  405  TRP405      0.0152
     39  NE1       80.7640  -70.0410   -7.1100 N.ar  405  TRP405     -0.2442
     40  CE2       81.3480  -69.8270   -8.3320 C.ar  405  TRP405      0.0810
     41  CE3       81.3730  -68.1100  -10.0330 C.ar  405  TRP405      0.0012
     42  CZ2       82.2160  -70.6330   -9.0640 C.ar  405  TRP405      0.0191
     43  CZ3       82.2340  -68.9130  -10.7600 C.ar  405  TRP405      0.0001
     44  CH2       82.6470  -70.1590  -10.2720 C.ar  405  TRP405      0.0015
     45  N         63.4200  -70.6340  -16.8240 N.3   424  LEU424     -0.1231
     46  CA        63.9220  -71.0340  -18.1300 C.3   424  LEU424      0.1693
     47  C         65.4480  -71.0680  -18.1420 C.2   424  LEU424      0.2593
     48  O         66.0530  -71.9290  -18.7790 O.2   424  LEU424     -0.2718
     49  CB        63.4020  -70.0860  -19.2140 C.3   424  LEU424      0.0284
     50  CG        63.6570  -70.4820  -20.6690 C.3   424  LEU424      0.0019
     51  CD1       62.9090  -71.7580  -21.0080 C.3   424  LEU424      0.0001
     52  CD2       63.2590  -69.3580  -21.6140 C.3   424  LEU424      0.0001
     53  N         66.0630  -70.1290  -17.4300 N.am  425  GLY425     -0.1942
     54  CA        67.5110  -70.0380  -17.3840 C.3   425  GLY425      0.2014
     55  C         68.0940  -69.7190  -18.7460 C.2   425  GLY425      0.2639
     56  O         68.8940  -70.4830  -19.2850 O.2   425  GLY425     -0.2714
     57  N         67.6910  -68.5800  -19.2990 N.am  426  ALA426     -0.1963
     58  CA        68.1040  -68.1810  -20.6400 C.3   426  ALA426      0.1728
     59  C         69.3860  -67.3550  -20.6320 C.2   426  ALA426      0.2616
     60  O         69.4560  -66.3120  -19.9840 O.2   426  ALA426     -0.2715
     61  CB        66.9880  -67.4010  -21.3200 C.3   426  ALA426      0.0334
     62  N         70.3950  -67.8240  -21.3590 N.am  427  MET427     -0.1977
     63  CA        71.6180  -67.0530  -21.5460 C.3   427  MET427      0.1605
     64  C         71.3570  -65.8190  -22.4100 C.2   427  MET427      0.2287
     65  O         70.4060  -65.7910  -23.1930 O.2   427  MET427     -0.2864
     66  CB        72.7080  -67.9180  -22.1780 C.3   427  MET427      0.0413
     67  CG        73.2190  -69.0250  -21.2760 C.3   427  MET427      0.0598
     68  SD        74.3910  -70.1120  -22.1120 S.3   427  MET427     -0.1393
     69  CE        75.7240  -68.9730  -22.4800 C.3   427  MET427      0.0692
     70  N         78.6990  -63.8370  -17.6670 N.3   451  GLY451     -0.1210
     71  CA        79.7390  -64.7580  -18.0810 C.3   451  GLY451      0.1956
     72  C         80.0640  -64.5100  -19.5400 C.2   451  GLY451      0.2612
     73  O         79.2440  -63.9570  -20.2720 O.2   451  GLY451     -0.2717
     74  N         81.2540  -64.9190  -19.9670 N.am  452  ASP452     -0.1959
     75  CA        81.7220  -64.6340  -21.3200 C.3   452  ASP452      0.1840
     76  C         80.8830  -65.3370  -22.3870 C.2   452  ASP452      0.2623
     77  O         80.8000  -64.8760  -23.5250 O.2   452  ASP452     -0.2715
     78  CB        83.1950  -65.0240  -21.4640 C.3   452  ASP452      0.1450
     79  CG        83.4730  -66.4390  -21.0010 C.2   452  ASP452      0.3671
     80  OD1       82.8630  -66.8750  -20.0020 O.co2 452  ASP452     -0.2456
     81  OD2       84.3040  -67.1170  -21.6390 O.co2 452  ASP452     -0.2456
     82  N         80.2580  -66.4480  -22.0140 N.am  453  GLY453     -0.1940
     83  CA        79.3830  -67.1660  -22.9220 C.3   453  GLY453      0.2014
     84  C         78.0370  -66.4860  -23.0760 C.2   453  GLY453      0.2639
     85  O         77.5230  -66.3490  -24.1850 O.2   453  GLY453     -0.2714
     86  N         77.4660  -66.0570  -21.9550 N.am  454  SER454     -0.1949
     87  CA        76.1640  -65.4010  -21.9570 C.3   454  SER454      0.1924
     88  C         76.2550  -63.9780  -22.4960 C.2   454  SER454      0.2314
     89  O         75.3430  -63.5030  -23.1720 O.2   454  SER454     -0.2863
     90  CB        75.5680  -65.3870  -20.5450 C.3   454  SER454      0.2116
     91  OG        75.4310  -66.6990  -20.0310 O.3   454  SER454     -0.2180
     92  N         76.2530  -63.4830  -26.3680 N.3   457  MET457     -0.1245
     93  CA        75.0170  -63.8810  -27.0380 C.3   457  MET457      0.1570
     94  C         74.1650  -62.6920  -27.4740 C.2   457  MET457      0.2261
     95  O         73.5250  -62.7380  -28.5220 O.2   457  MET457     -0.2867
     96  CB        74.1900  -64.7970  -26.1380 C.3   457  MET457      0.0387
     97  CG        74.6930  -66.2230  -26.0950 C.3   457  MET457      0.0595
     98  SD        73.3890  -67.3750  -25.6410 S.3   457  MET457     -0.1393
     99  CE        74.2400  -68.9390  -25.8360 C.3   457  MET457      0.0692
    100  N         82.6510  -61.7730  -15.6740 N.3   477  LEU477     -0.1245
    101  CA        83.4630  -62.8390  -15.1040 C.3   477  LEU477      0.1561
    102  C         83.8780  -63.8000  -16.2150 C.2   477  LEU477      0.2260
    103  O         83.0910  -64.6360  -16.6570 O.2   477  LEU477     -0.2867
    104  CB        82.6990  -63.5690  -13.9970 C.3   477  LEU477      0.0270
    105  CG        82.1930  -62.6700  -12.8640 C.3   477  LEU477      0.0019
    106  CD1       81.4560  -63.4770  -11.8040 C.3   477  LEU477      0.0001
    107  CD2       83.3420  -61.8860  -12.2430 C.3   477  LEU477      0.0001
    108  N         85.9450  -66.7830  -17.7000 N.3   479  ASN479     -0.1240
    109  CA        86.6860  -68.0100  -17.4260 C.3   479  ASN479      0.1653
    110  C         86.9720  -68.8090  -18.6970 C.2   479  ASN479      0.2266
    111  O         87.4470  -69.9430  -18.6300 O.2   479  ASN479     -0.2867
    112  CB        85.9250  -68.8760  -16.4160 C.3   479  ASN479      0.1155
    113  CG        84.5700  -69.3260  -16.9290 C.2   479  ASN479      0.2627
    114  OD1       84.0590  -68.8030  -17.9200 O.2   479  ASN479     -0.2716
    115  ND2       83.9720  -70.2900  -16.2410 N.am  479  ASN479     -0.0877
    116  N         85.2340  -70.4180  -20.6040 N.3   481  HIS481     -0.1226
    117  CA        84.5000  -71.6690  -20.7530 C.3   481  HIS481      0.1752
    118  C         83.0140  -71.4990  -20.4720 C.2   481  HIS481      0.2596
    119  O         82.5780  -70.4720  -19.9510 O.2   481  HIS481     -0.2718
    120  CB        85.0640  -72.7450  -19.8170 C.3   481  HIS481      0.0759
    121  CG        86.4320  -73.2280  -20.1900 C.ar  481  HIS481      0.0818
    122  ND1       87.5790  -72.5320  -19.8750 N.ar  481  HIS481     -0.2268
    123  CD2       86.8360  -74.3470  -20.8370 C.ar  481  HIS481      0.1154
    124  CE1       88.6310  -73.1970  -20.3200 C.ar  481  HIS481      0.1986
    125  NE2       88.2070  -74.3020  -20.9070 N.ar  481  HIS481     -0.2212
    126  N         82.2420  -72.5170  -20.8300 N.am  482  LEU482     -0.1966
    127  CA        80.8890  -72.6560  -20.3200 C.3   482  LEU482      0.1728
    128  C         80.9970  -73.3410  -18.9610 C.2   482  LEU482      0.2617
    129  O         81.0290  -74.5680  -18.8750 O.2   482  LEU482     -0.2715
    130  CB        80.0090  -73.4540  -21.2860 C.3   482  LEU482      0.0311
    131  CG        79.8240  -72.8480  -22.6820 C.3   482  LEU482      0.0022
    132  CD1       79.0280  -73.7730  -23.5900 C.3   482  LEU482      0.0001
    133  CD2       79.1510  -71.4880  -22.5920 C.3   482  LEU482      0.0001
    134  N         81.0590  -72.5350  -17.9050 N.am  483  GLY483     -0.1940
    135  CA        81.3840  -73.0090  -16.5700 C.3   483  GLY483      0.2014
    136  C         80.5600  -74.1470  -15.9920 C.2   483  GLY483      0.2639
    137  O         81.1130  -75.1690  -15.5820 O.2   483  GLY483     -0.2714
    138  N         79.2420  -73.9700  -15.9500 N.am  484  MET484     -0.1963
    139  CA        78.3560  -74.9360  -15.3020 C.3   484  MET484      0.1736
    140  C         78.3500  -76.2980  -16.0000 C.2   484  MET484      0.2616
    141  O         78.3950  -77.3380  -15.3410 O.2   484  MET484     -0.2715
    142  CB        76.9320  -74.3830  -15.2360 C.3   484  MET484      0.0427
    143  CG        75.9890  -75.2340  -14.4100 C.3   484  MET484      0.0599
    144  SD        76.4850  -75.3060  -12.6780 S.3   484  MET484     -0.1393
    145  CE        76.2670  -73.5930  -12.2010 C.3   484  MET484      0.0692
    146  N         78.2840  -76.2900  -17.3300 N.am  485  VAL485     -0.1977
    147  CA        78.3260  -77.5240  -18.1110 C.3   485  VAL485      0.1596
    148  C         79.6630  -78.2170  -17.8950 C.2   485  VAL485      0.2287
    149  O         79.7330  -79.4400  -17.7520 O.2   485  VAL485     -0.2864
    150  CB        78.1160  -77.2570  -19.6190 C.3   485  VAL485      0.0276
    151  CG1       78.2450  -78.5470  -20.4170 C.3   485  VAL485      0.0022
    152  CG2       76.7580  -76.6150  -19.8600 C.3   485  VAL485      0.0022
@<TRIPOS>BOND
     1    95    94    2
     2    94    93    1
     3    93    92    1
     4    93    96    1
     5    96    97    1
     6    97    98    1
     7    99    98    1
     8    85    84    2
     9   132   131    1
    10    77    76    2
    11    65    64    2
    12    89    88    2
    13    84    83    1
    14    84    86   am
    15    83    82    1
    16   131   133    1
    17   131   130    1
    18    88    87    1
    19    69    68    1
    20    64    63    1
    21    76    82   am
    22    76    75    1
    23    66    63    1
    24    66    67    1
    25    68    67    1
    26    87    86    1
    27    87    90    1
    28    81    79   ar
    29    52    50    1
    30    63    62    1
    31    78    75    1
    32    78    79    1
    33    62    59   am
    34    61    58    1
    35    75    74    1
    36   130   127    1
    37    51    50    1
    38    79    80   ar
    39   125   123   ar
    40   125   124   ar
    41   123   121   ar
    42   126   118   am
    43   126   127    1
    44   117   116    1
    45   117   118    1
    46   117   120    1
    47    50    49    1
    48    58    59    1
    49    58    57    1
    50    59    60    2
    51    90    91    1
    52   118   119    2
    53   151   150    1
    54   124   122   ar
    55   127   128    1
    56    73    72    2
    57   121   122   ar
    58   121   120    1
    59    74    72   am
    60   152   150    1
    61   150   147    1
    62    72    71    1
    63    57    55   am
    64    56    55    2
    65    49    46    1
    66   128   129    2
    67   128   134   am
    68    48    47    2
    69    55    54    1
    70   110   111    2
    71   110   109    1
    72    47    46    1
    73    47    53   am
    74    46    45    1
    75   147   148    1
    76   147   146    1
    77    71    70    1
    78   114   113    2
    79   134   135    1
    80   148   149    2
    81   108   109    1
    82     4     3    2
    83    53    54    1
    84   109   112    1
    85     5     7    1
    86     5     6    1
    87     5     2    1
    88   146   140   am
    89     1     2    1
    90   113   112    1
    91   113   115   am
    92   103   102    2
    93   135   136    1
    94     2     3    1
    95     3     8   am
    96    29    30   ar
    97    29    27   ar
    98   102   101    1
    99   140   141    2
   100   140   139    1
   101   136   138   am
   102   136   137    2
   103   138   139    1
   104    30    28   ar
   105   100   101    1
   106    27    26   ar
   107     8     9    1
   108   139   142    1
   109   142   143    1
   110     9    10    1
   111   101   104    1
   112    28    26   ar
   113    26    25    1
   114   143   144    1
   115   104   105    1
   116    10    12   am
   117    10    11    2
   118    12    13    1
   119    19    18    2
   120    25    22    1
   121    18    17    1
   122    18    20   am
   123    17    16    1
   124   105   107    1
   125   105   106    1
   126    21    22    1
   127    21    14   am
   128   144   145    1
   129    16    13    1
   130    13    14    1
   131    22    23    1
   132    14    15    2
   133    23    24    2
   134    43    44   ar
   135    43    41   ar
   136    44    42   ar
   137    41    38   ar
   138    42    40   ar
   139    38    40   ar
   140    38    36   ar
   141    40    39   ar
   142    31    32    1
   143    35    36    1
   144    35    32    1
   145    36    37   ar
   146    32    33    1
   147    39    37   ar
   148    33    34    2
