@<TRIPOS>MOLECULE
tmp/5k72B00.pdb
 162 151 0 0 0
SMALL
GASTEIGER

@<TRIPOS>ATOM
      1  N        -24.6290    9.1000  -43.4390 N.3    28  MET28      -0.1230
      2  CA       -23.5950    9.1730  -42.4140 C.3    28  MET28       0.1702
      3  C        -23.3350   10.6170  -42.0000 C.2    28  MET28       0.2593
      4  O        -23.0430   10.8650  -40.8370 O.2    28  MET28      -0.2718
      5  CB       -22.2940    8.5230  -42.9020 C.3    28  MET28       0.0401
      6  CG       -22.4150    7.0400  -43.0990 C.3    28  MET28       0.0596
      7  SD       -20.8080    6.2500  -43.1180 S.3    28  MET28      -0.1393
      8  CE       -20.4070    6.4010  -44.7760 C.3    28  MET28       0.0692
      9  N        -23.4030   11.5350  -42.9590 N.am   29  GLY29      -0.1942
     10  CA       -23.1180   12.9510  -42.7680 C.3    29  GLY29       0.2014
     11  C        -23.2310   13.7340  -44.0600 C.2    29  GLY29       0.2639
     12  O        -23.4800   13.1490  -45.1220 O.2    29  GLY29      -0.2714
     13  N        -23.0010   15.0620  -43.9850 N.am   30  GLU30      -0.1963
     14  CA       -23.1710   15.9810  -45.1140 C.3    30  GLU30       0.1733
     15  C        -22.1120   17.1070  -45.2680 C.2    30  GLU30       0.2616
     16  O        -22.4600   18.2530  -45.5790 O.2    30  GLU30      -0.2715
     17  CB       -24.5590   16.6050  -44.9490 C.3    30  GLU30       0.0429
     18  CG       -25.2920   16.9250  -46.2270 C.3    30  GLU30       0.1163
     19  CD       -26.5070   17.7800  -45.9530 C.2    30  GLU30       0.3649
     20  OE1      -27.5970   17.2020  -45.7590 O.co2  30  GLU30      -0.2457
     21  OE2      -26.3690   19.0230  -45.8860 O.co2  30  GLU30      -0.2457
     22  N        -20.8390   16.7390  -45.2200 N.am   31  GLY31      -0.1955
     23  CA       -19.7200   17.6700  -45.3560 C.3    31  GLY31       0.1869
     24  C        -19.4800   18.3630  -46.6890 C.2    31  GLY31       0.2309
     25  O        -19.1790   17.7120  -47.6920 O.2    31  GLY31      -0.2863
     26  N        -22.6250   11.9350  -47.5490 N.3    36  VAL36      -0.1245
     27  CA       -21.8860   10.6880  -47.3690 C.3    36  VAL36       0.1561
     28  C        -22.8650    9.5930  -46.9450 C.2    36  VAL36       0.2260
     29  O        -23.6230    9.7670  -45.9880 O.2    36  VAL36      -0.2867
     30  CB       -20.6910   10.8420  -46.3810 C.3    36  VAL36       0.0252
     31  CG1      -19.7960    9.6030  -46.3900 C.3    36  VAL36       0.0019
     32  CG2      -19.8710   12.0900  -46.7010 C.3    36  VAL36       0.0019
     33  N        -17.9300    3.7760  -47.9750 N.3    47  ALA47      -0.1245
     34  CA       -18.4150    5.1370  -47.7910 C.3    47  ALA47       0.1562
     35  C        -18.5530    5.7050  -49.1830 C.2    47  ALA47       0.2260
     36  O        -17.5810    5.7060  -49.9420 O.2    47  ALA47      -0.2867
     37  CB       -17.4210    5.9550  -46.9900 C.3    47  ALA47       0.0290
     38  N        -19.5930    9.0360  -51.2970 N.3    49  LYS49      -0.1245
     39  CA       -19.8220   10.4750  -51.2840 C.3    49  LYS49       0.1561
     40  C        -20.4760   10.8700  -52.5890 C.2    49  LYS49       0.2260
     41  O        -19.8320   10.8090  -53.6410 O.2    49  LYS49      -0.2867
     42  CB       -18.5200   11.2670  -51.0510 C.3    49  LYS49       0.0271
     43  CG       -18.7140   12.7950  -51.0090 C.3    49  LYS49       0.0035
     44  CD       -17.4620   13.6460  -51.3250 C.3    49  LYS49       0.0206
     45  CE       -16.3800   13.6570  -50.3040 C.3    49  LYS49       0.1093
     46  NZ       -15.1110   14.2630  -50.7980 N.3    49  LYS49      -0.1314
     47  N         -9.2610   14.9170  -56.0930 N.3    58  GLU58      -0.1245
     48  CA        -9.3130   13.8260  -55.1230 C.3    58  GLU58       0.1567
     49  C         -8.7630   12.5380  -55.7440 C.2    58  GLU58       0.2260
     50  O         -7.8900   11.9090  -55.1450 O.2    58  GLU58      -0.2867
     51  CB       -10.7410   13.6490  -54.5900 C.3    58  GLU58       0.0388
     52  CG       -10.8130   12.8280  -53.3210 C.3    58  GLU58       0.1160
     53  CD       -11.7010   13.3330  -52.1940 C.2    58  GLU58       0.3649
     54  OE1      -11.6240   12.7410  -51.0940 O.co2  58  GLU58      -0.2457
     55  OE2      -12.4670   14.3040  -52.3910 O.co2  58  GLU58      -0.2457
     56  N         -6.7980    8.0260  -46.0410 N.3    71  VAL71      -0.1245
     57  CA        -7.9800    7.2440  -46.4300 C.3    71  VAL71       0.1561
     58  C         -7.7700    6.7250  -47.8400 C.2    71  VAL71       0.2260
     59  O         -7.2580    7.4420  -48.6960 O.2    71  VAL71      -0.2867
     60  CB        -9.3690    7.9400  -46.2800 C.3    71  VAL71       0.0252
     61  CG1       -9.6210    8.3640  -44.8420 C.3    71  VAL71       0.0019
     62  CG2       -9.5350    9.1310  -47.2190 C.3    71  VAL71       0.0019
     63  N        -14.9510    5.1040  -50.9410 N.3    85  TYR85      -0.1227
     64  CA       -13.7960    4.9660  -50.0560 C.3    85  TYR85       0.1736
     65  C        -13.9210    3.7650  -49.1550 C.2    85  TYR85       0.2595
     66  O        -15.0230    3.2630  -48.9180 O.2    85  TYR85      -0.2718
     67  CB       -13.6810    6.1970  -49.1200 C.3    85  TYR85       0.0548
     68  CG       -13.7830    7.5470  -49.7790 C.ar   85  TYR85      -0.0200
     69  CD1      -15.0220    8.1460  -49.9990 C.ar   85  TYR85      -0.0009
     70  CD2      -12.6420    8.2780  -50.0900 C.ar   85  TYR85      -0.0009
     71  CE1      -15.1240    9.4000  -50.5840 C.ar   85  TYR85       0.0417
     72  CE2      -12.7340    9.5440  -50.6560 C.ar   85  TYR85       0.0417
     73  CZ       -13.9790   10.1030  -50.8950 C.ar   85  TYR85       0.1957
     74  OH       -14.0980   11.3550  -51.4360 O.3    85  TYR85      -0.2866
     75  N        -12.7910    3.3820  -48.5620 N.am   86  VAL86      -0.1966
     76  CA       -12.7200    2.3590  -47.5270 C.3    86  VAL86       0.1727
     77  C        -13.5110    2.9630  -46.3410 C.2    86  VAL86       0.2616
     78  O        -13.3370    4.1560  -46.0130 O.2    86  VAL86      -0.2715
     79  CB       -11.2440    2.0220  -47.1390 C.3    86  VAL86       0.0290
     80  CG1      -11.1850    1.0870  -45.9290 C.3    86  VAL86       0.0023
     81  CG2      -10.5010    1.3960  -48.3060 C.3    86  VAL86       0.0023
     82  N        -14.4180    2.1540  -45.7650 N.am   87  TYR87      -0.1960
     83  CA       -15.2400    2.5450  -44.6290 C.3    87  TYR87       0.1771
     84  C        -14.3940    2.6480  -43.3690 C.2    87  TYR87       0.2619
     85  O        -13.5910    1.7530  -43.0820 O.2    87  TYR87      -0.2715
     86  CB       -16.3850    1.5410  -44.4340 C.3    87  TYR87       0.0574
     87  CG       -17.3040    1.8890  -43.2880 C.ar   87  TYR87      -0.0198
     88  CD1      -18.2450    2.9090  -43.4080 C.ar   87  TYR87      -0.0009
     89  CD2      -17.3020    1.1360  -42.1170 C.ar   87  TYR87      -0.0009
     90  CE1      -19.1090    3.2200  -42.3610 C.ar   87  TYR87       0.0417
     91  CE2      -18.1850    1.4140  -41.0780 C.ar   87  TYR87       0.0417
     92  CZ       -19.0800    2.4660  -41.1980 C.ar   87  TYR87       0.1957
     93  OH       -19.9260    2.7750  -40.1590 O.3    87  TYR87      -0.2866
     94  N        -14.5650    3.7530  -42.6360 N.am   88  MET88      -0.1977
     95  CA       -13.8630    4.0350  -41.3910 C.3    88  MET88       0.1605
     96  C        -14.8670    3.8210  -40.2810 C.2    88  MET88       0.2287
     97  O        -15.7400    4.6690  -40.0930 O.2    88  MET88      -0.2864
     98  CB       -13.2880    5.4660  -41.4010 C.3    88  MET88       0.0413
     99  CG       -12.3490    5.7120  -42.5680 C.3    88  MET88       0.0598
    100  SD       -10.9500    4.5470  -42.5920 S.3    88  MET88      -0.1393
    101  CE       -10.0360    5.3190  -41.5010 C.3    88  MET88       0.0692
    102  N        -15.3860    6.6690  -37.4360 N.3    91  GLY91      -0.1210
    103  CA       -15.6980    8.0220  -37.8860 C.3    91  GLY91       0.1956
    104  C        -14.5360    8.9830  -37.8210 C.2    91  GLY91       0.2612
    105  O        -13.4130    8.5930  -38.1140 O.2    91  GLY91      -0.2717
    106  N        -14.8010   10.2550  -37.4460 N.am   92  SER92      -0.1952
    107  CA       -13.7560   11.2550  -37.3850 C.3    92  SER92       0.1924
    108  C        -13.2200   11.4650  -35.9660 C.2    92  SER92       0.2314
    109  O        -13.8870   11.1350  -34.9910 O.2    92  SER92      -0.2863
    110  CB       -14.2370   12.5660  -37.9900 C.3    92  SER92       0.2116
    111  OG       -15.1870   13.1780  -37.1450 O.3    92  SER92      -0.2180
    112  N        -15.5800   13.8080  -33.9460 N.3    95  ASP95      -0.1239
    113  CA       -16.7230   13.0950  -33.3620 C.3    95  ASP95       0.1674
    114  C        -16.3080   12.2790  -32.1430 C.2    95  ASP95       0.2266
    115  O        -17.0500   12.2180  -31.1830 O.2    95  ASP95      -0.2867
    116  CB       -17.3620   12.1790  -34.4110 C.3    95  ASP95       0.1410
    117  CG       -17.9110   12.8940  -35.6460 C.2    95  ASP95       0.3668
    118  OD1      -18.1270   14.1240  -35.5780 O.co2  95  ASP95      -0.2456
    119  OD2      -18.1360   12.2240  -36.6650 O.co2  95  ASP95      -0.2456
    120  N        -19.5370   11.8620  -29.5980 N.3   100  LEU100     -0.1231
    121  CA       -20.7710   11.8740  -30.3840 C.3   100  LEU100      0.1693
    122  C        -21.4180   10.4980  -30.4370 C.2   100  LEU100      0.2592
    123  O        -20.7190    9.5030  -30.6150 O.2   100  LEU100     -0.2718
    124  CB       -20.4480   12.3770  -31.7940 C.3   100  LEU100      0.0284
    125  CG       -21.6260   12.5790  -32.7750 C.3   100  LEU100      0.0019
    126  CD1      -22.4490   13.8520  -32.4650 C.3   100  LEU100      0.0001
    127  CD2      -21.1150   12.6860  -34.2010 C.3   100  LEU100      0.0001
    128  N        -22.7580   10.4670  -30.2300 N.am  101  ASP101     -0.1974
    129  CA       -23.6200    9.2950  -30.2600 C.3   101  ASP101      0.1709
    130  C        -23.2810    8.2460  -29.1880 C.2   101  ASP101      0.2293
    131  O        -23.4610    7.0510  -29.4170 O.2   101  ASP101     -0.2864
    132  CB       -23.6740    8.6690  -31.6740 C.3   101  ASP101      0.1436
    133  CG       -24.1480    9.6340  -32.7330 C.2   101  ASP101      0.3671
    134  OD1      -25.2470   10.2200  -32.5610 O.co2 101  ASP101     -0.2456
    135  OD2      -23.4240    9.8110  -33.7310 O.co2 101  ASP101     -0.2456
    136  N        -12.0190   16.9420  -38.1910 N.3   138  ALA138     -0.1245
    137  CA       -13.1100   16.3720  -39.0060 C.3   138  ALA138      0.1562
    138  C        -12.5200   15.6420  -40.2260 C.2   138  ALA138      0.2260
    139  O        -13.1830   14.7540  -40.7770 O.2   138  ALA138     -0.2867
    140  CB       -14.0610   17.4750  -39.4770 C.3   138  ALA138      0.0290
    141  N         -9.8200   10.6290  -40.0340 N.3   141  LEU141     -0.1245
    142  CA       -10.7120    9.4890  -39.8370 C.3   141  LEU141      0.1561
    143  C        -10.0390    8.3650  -39.0650 C.2   141  LEU141      0.2260
    144  O         -8.8110    8.3220  -38.9460 O.2   141  LEU141     -0.2867
    145  CB       -11.3180    9.0170  -41.1720 C.3   141  LEU141      0.0270
    146  CG       -11.9900   10.1430  -42.0240 C.3   141  LEU141      0.0019
    147  CD1      -12.6260    9.5710  -43.2280 C.3   141  LEU141      0.0001
    148  CD2      -13.0810   10.8820  -41.2480 C.3   141  LEU141      0.0001
    149  N         -8.0330   12.5470  -44.5170 N.3   151  SER151     -0.1202
    150  CA        -9.0500   12.5460  -45.5740 C.3   151  SER151      0.2020
    151  C         -9.2590   13.9100  -46.1900 C.2   151  SER151      0.2618
    152  O         -8.7610   14.9080  -45.6730 O.2   151  SER151     -0.2717
    153  CB       -10.3780   12.0060  -45.0560 C.3   151  SER151      0.2103
    154  OG       -10.8410   12.7960  -43.9810 O.3   151  SER151     -0.2182
    155  N        -10.0620   13.9350  -47.2640 N.am  152  ASP152     -0.1973
    156  CA       -10.5020   15.0730  -48.0580 C.3   152  ASP152      0.1709
    157  C         -9.3460   15.7850  -48.7520 C.2   152  ASP152      0.2293
    158  O         -8.8000   16.7580  -48.2430 O.2   152  ASP152     -0.2864
    159  CB       -11.3940   16.0330  -47.2500 C.3   152  ASP152      0.1436
    160  CG       -12.7620   16.2290  -47.8780 C.2   152  ASP152      0.3671
    161  OD1      -12.8220   16.4700  -49.1090 O.co2 152  ASP152     -0.2456
    162  OD2      -13.7750   16.1490  -47.1370 O.co2 152  ASP152     -0.2456
@<TRIPOS>BOND
     1    47    48    1
     2    49    50    2
     3    49    48    1
     4    48    51    1
     5    51    52    1
     6    41    40    2
     7    52    53    1
     8    40    39    1
     9    55    53   ar
    10    53    54   ar
    11    74    73    1
    12    44    43    1
    13    44    45    1
    14    38    39    1
    15    39    42    1
    16    42    43    1
    17    63    64    1
    18    73    72   ar
    19    73    71   ar
    20    46    45    1
    21    72    70   ar
    22    71    69   ar
    23    70    68   ar
    24    64    65    1
    25    64    67    1
    26    69    68   ar
    27    36    35    2
    28    68    67    1
    29    35    34    1
    30    65    66    2
    31    65    75   am
    32   161   160   ar
    33   157   158    2
    34   157   156    1
    35    59    58    2
    36    75    76    1
    37    81    79    1
    38   156   155    1
    39   156   159    1
    40    33    34    1
    41   160   159    1
    42   160   162   ar
    43    58    57    1
    44    34    37    1
    45    25    24    2
    46    26    27    1
    47    76    79    1
    48    76    77    1
    49    27    28    1
    50    27    30    1
    51   155   151   am
    52    62    60    1
    53    79    80    1
    54    28    29    2
    55    32    30    1
    56    24    23    1
    57    57    60    1
    58    57    56    1
    59    31    30    1
    60    77    78    2
    61    77    82   am
    62    60    61    1
    63    18    19    1
    64    18    17    1
    65   151   152    2
    66   151   150    1
    67    19    21   ar
    68    19    20   ar
    69    82    83    1
    70    16    15    2
    71   150   153    1
    72   150   149    1
    73    23    22    1
    74    15    22   am
    75    15    14    1
    76    12    11    2
    77    14    17    1
    78    14    13    1
    79   153   154    1
    80     8     7    1
    81    83    86    1
    82    83    84    1
    83    86    87    1
    84    11    13   am
    85    11    10    1
    86     1     2    1
    87    88    87   ar
    88    88    90   ar
    89    84    85    2
    90    84    94   am
    91    87    89   ar
    92   147   146    1
    93     7     6    1
    94     6     5    1
    95     9    10    1
    96     9     3   am
    97     5     2    1
    98    94    95    1
    99   100    99    1
   100   100   101    1
   101    99    98    1
   102     2     3    1
   103    90    92   ar
   104    89    91   ar
   105   146   148    1
   106   146   145    1
   107     3     4    2
   108    98    95    1
   109    95    96    1
   110    92    91   ar
   111    92    93    1
   112   145   142    1
   113   139   138    2
   114    96    97    2
   115   138   137    1
   116   141   142    1
   117   142   143    1
   118   140   137    1
   119   143   144    2
   120   137   136    1
   121   105   104    2
   122   110   107    1
   123   110   111    1
   124   103   104    1
   125   103   102    1
   126   104   106   am
   127   106   107    1
   128   107   108    1
   129   119   117   ar
   130   108   109    2
   131   117   118   ar
   132   117   116    1
   133   116   113    1
   134   127   125    1
   135   112   113    1
   136   135   133   ar
   137   113   114    1
   138   125   126    1
   139   125   124    1
   140   133   134   ar
   141   133   132    1
   142   114   115    2
   143   124   121    1
   144   132   129    1
   145   123   122    2
   146   122   121    1
   147   122   128   am
   148   121   120    1
   149   129   128    1
   150   129   130    1
   151   131   130    2
