@<TRIPOS>MOLECULE
tmp/5k74A00.pdb
 253 244 0 0 0
SMALL
GASTEIGER

@<TRIPOS>ATOM
      1  N        -66.7240   -8.4690   -0.2650 N.3    21  CYS21      -0.1221
      2  CA       -66.9800   -7.2840   -1.0780 C.3    21  CYS21       0.1808
      3  C        -67.9490   -6.3120   -0.4030 C.2    21  CYS21       0.2601
      4  O        -68.2380   -5.2490   -0.9520 O.2    21  CYS21      -0.2717
      5  CB       -67.5200   -7.6890   -2.4490 C.3    21  CYS21       0.0970
      6  SG       -69.1040   -8.5370   -2.3810 S.3    21  CYS21      -0.0800
      7  N        -68.4400   -6.6930    0.7770 N.am   22  GLN22      -0.1965
      8  CA       -69.2520   -5.8310    1.6360 C.3    22  GLN22       0.1733
      9  C        -70.6760   -5.6230    1.1320 C.2    22  GLN22       0.2616
     10  O        -71.6340   -5.9790    1.8130 O.2    22  GLN22      -0.2715
     11  CB       -68.5680   -4.4760    1.8130 C.3    22  GLN22       0.0408
     12  CG       -69.4200   -3.4380    2.4920 C.3    22  GLN22       0.0908
     13  CD       -68.5940   -2.3560    3.1460 C.2    22  GLN22       0.2608
     14  OE1      -67.5420   -1.9670    2.6400 O.2    22  GLN22      -0.2717
     15  NE2      -69.0700   -1.8570    4.2760 N.am   22  GLN22      -0.0878
     16  N        -70.8190   -5.0530   -0.0570 N.am   23  LEU23      -0.1977
     17  CA       -72.1430   -4.8490   -0.6470 C.3    23  LEU23       0.1596
     18  C        -72.2910   -5.6100   -1.9630 C.2    23  LEU23       0.2287
     19  O        -71.4010   -5.5640   -2.8260 O.2    23  LEU23      -0.2864
     20  CB       -72.4190   -3.3640   -0.8850 C.3    23  LEU23       0.0297
     21  CG       -72.7780   -2.4750    0.3060 C.3    23  LEU23       0.0022
     22  CD1      -73.1770   -1.0660   -0.1450 C.3    23  LEU23       0.0001
     23  CD2      -73.8940   -3.1040    1.0960 C.3    23  LEU23       0.0001
     24  N        -76.6950   -2.9790   -5.1710 N.3    28  LEU28      -0.1245
     25  CA       -76.2140   -1.6790   -5.6150 C.3    28  LEU28       0.1561
     26  C        -76.9530   -1.2200   -6.8580 C.2    28  LEU28       0.2260
     27  O        -77.4430   -0.0980   -6.9190 O.2    28  LEU28      -0.2867
     28  CB       -74.7100   -1.7220   -5.8940 C.3    28  LEU28       0.0270
     29  CG       -73.7890   -1.6290   -4.6770 C.3    28  LEU28       0.0019
     30  CD1      -72.3610   -1.9800   -5.0300 C.3    28  LEU28       0.0001
     31  CD2      -73.8550   -0.2360   -4.1130 C.3    28  LEU28       0.0001
     32  N        -68.6700   14.2140    9.2010 N.3    53  TRP53      -0.1241
     33  CA       -67.4250   13.5140    9.4930 C.3    53  TRP53       0.1605
     34  C        -67.6620   12.2170   10.2480 C.2    53  TRP53       0.2264
     35  O        -67.0370   11.2010    9.9680 O.2    53  TRP53      -0.2867
     36  CB       -66.4960   14.4040   10.3010 C.3    53  TRP53       0.0550
     37  CG       -65.4710   13.6240   11.0420 C.ar   53  TRP53       0.0003
     38  CD1      -65.3120   13.5680   12.3990 C.ar   53  TRP53       0.0946
     39  CD2      -64.4840   12.7520   10.4860 C.ar   53  TRP53       0.0152
     40  NE1      -64.2700   12.7310   12.7200 N.ar   53  TRP53      -0.2442
     41  CE2      -63.7480   12.2140   11.5640 C.ar   53  TRP53       0.0810
     42  CE3      -64.1430   12.3800    9.1840 C.ar   53  TRP53       0.0012
     43  CZ2      -62.6950   11.3260   11.3760 C.ar   53  TRP53       0.0191
     44  CZ3      -63.1000   11.5010    9.0010 C.ar   53  TRP53       0.0001
     45  CH2      -62.3850   10.9840   10.0900 C.ar   53  TRP53       0.0015
     46  N        -69.1970    9.6500    7.6270 N.3    56  CYS56      -0.1235
     47  CA       -68.1850    9.2460    6.6630 C.3    56  CYS56       0.1677
     48  C        -67.0860    8.3850    7.2810 C.2    56  CYS56       0.2270
     49  O        -66.6490    7.4050    6.6840 O.2    56  CYS56      -0.2867
     50  CB       -67.5800   10.4860    6.0120 C.3    56  CYS56       0.0956
     51  SG       -68.7810   11.4540    5.0410 S.3    56  CYS56      -0.0801
     52  N        -68.4640    4.9070    7.8690 N.3    59  HIS59      -0.1226
     53  CA       -68.5440    4.1820    6.6090 C.3    59  HIS59       0.1752
     54  C        -67.1790    3.7700    6.1100 C.2    59  HIS59       0.2595
     55  O        -67.0190    2.6970    5.5270 O.2    59  HIS59      -0.2718
     56  CB       -69.2650    5.0170    5.5540 C.3    59  HIS59       0.0759
     57  CG       -70.6990    5.2660    5.8870 C.ar   59  HIS59       0.0818
     58  ND1      -71.5570    4.2530    6.2590 N.ar   59  HIS59      -0.2268
     59  CD2      -71.4230    6.4080    5.9320 C.ar   59  HIS59       0.1154
     60  CE1      -72.7500    4.7590    6.5070 C.ar   59  HIS59       0.1986
     61  NE2      -72.6960    6.0650    6.3170 N.ar   59  HIS59      -0.2212
     62  N        -66.1840    4.6050    6.3640 N.am   60  LEU60      -0.1980
     63  CA       -64.8480    4.2840    5.9100 C.3    60  LEU60       0.1596
     64  C        -64.1910    3.2860    6.8460 C.2    60  LEU60       0.2287
     65  O        -63.4280    2.4320    6.4130 O.2    60  LEU60      -0.2864
     66  CB       -63.9970    5.5400    5.8060 C.3    60  LEU60       0.0297
     67  CG       -63.3080    5.6600    4.4500 C.3    60  LEU60       0.0022
     68  CD1      -64.3110    5.9620    3.3470 C.3    60  LEU60       0.0001
     69  CD2      -62.2230    6.7160    4.4970 C.3    60  LEU60       0.0001
     70  N        -65.8220   -0.0140    5.7740 N.3    63  ALA63      -0.1245
     71  CA       -65.2130   -0.3960    4.5090 C.3    63  ALA63       0.1562
     72  C        -63.8150   -0.9940    4.6820 C.2    63  ALA63       0.2260
     73  O        -63.4840   -2.0000    4.0580 O.2    63  ALA63      -0.2867
     74  CB       -65.1580    0.8200    3.5760 C.3    63  ALA63       0.0290
     75  N        -60.1140    0.9170   -0.9590 N.3    97  VAL97      -0.1231
     76  CA       -61.4350    1.4510   -0.6790 C.3    97  VAL97       0.1692
     77  C        -61.8740    2.4160   -1.7700 C.2    97  VAL97       0.2591
     78  O        -63.0160    2.3790   -2.2190 O.2    97  VAL97      -0.2718
     79  CB       -61.4700    2.1800    0.6760 C.3    97  VAL97       0.0266
     80  CG1      -62.7740    2.9400    0.8240 C.3    97  VAL97       0.0020
     81  CG2      -61.3240    1.1940    1.8040 C.3    97  VAL97       0.0020
     82  N        -60.9560    3.2770   -2.2040 N.am   98  LEU98      -0.1980
     83  CA       -61.2810    4.2500   -3.2450 C.3    98  LEU98       0.1596
     84  C        -61.5770    3.5330   -4.5480 C.2    98  LEU98       0.2287
     85  O        -62.3790    3.9960   -5.3560 O.2    98  LEU98      -0.2864
     86  CB       -60.1480    5.2560   -3.4380 C.3    98  LEU98       0.0297
     87  CG       -59.8100    6.0820   -2.1970 C.3    98  LEU98       0.0022
     88  CD1      -58.5520    6.9190   -2.4120 C.3    98  LEU98       0.0001
     89  CD2      -60.9870    6.9540   -1.7900 C.3    98  LEU98       0.0001
     90  N        -62.7580    0.1820   -4.6920 N.3   100  ARG100     -0.1231
     91  CA       -64.0220   -0.5240   -4.4730 C.3   100  ARG100      0.1694
     92  C        -65.2200    0.4060   -4.6200 C.2   100  ARG100      0.2591
     93  O        -66.3180   -0.0210   -4.9880 O.2   100  ARG100     -0.2718
     94  CB       -64.0660   -1.1530   -3.0840 C.3   100  ARG100      0.0321
     95  CG       -63.1720   -2.3520   -2.8840 C.3   100  ARG100      0.0489
     96  CD       -63.3940   -2.9110   -1.4920 C.3   100  ARG100      0.2205
     97  NE       -62.8210   -4.2410   -1.3380 N.pl3 100  ARG100     -0.0865
     98  CZ       -63.3800   -5.2160   -0.6330 C.cat 100  ARG100      0.5346
     99  NH1      -64.5350   -5.0060   -0.0170 N.pl3 100  ARG100      0.1354
    100  NH2      -62.7860   -6.4020   -0.5500 N.pl3 100  ARG100      0.1354
    101  N        -64.9920    1.6750   -4.2980 N.am  101  MET101     -0.1979
    102  CA       -66.0230    2.7030   -4.3250 C.3   101  MET101      0.1605
    103  C        -66.8040    2.7800   -5.6430 C.2   101  MET101      0.2287
    104  O        -67.9910    3.0930   -5.6390 O.2   101  MET101     -0.2864
    105  CB       -65.3910    4.0570   -4.0120 C.3   101  MET101      0.0413
    106  CG       -66.3860    5.1610   -3.7050 C.3   101  MET101      0.0598
    107  SD       -65.6370    6.4690   -2.7050 S.3   101  MET101     -0.1393
    108  CE       -64.9960    5.5350   -1.3170 C.3   101  MET101      0.0692
    109  N        -68.0860    0.6950   -7.4840 N.3   103  ARG103     -0.1231
    110  CA       -69.2210   -0.2190   -7.5760 C.3   103  ARG103      0.1694
    111  C        -70.4680    0.5050   -7.1460 C.2   103  ARG103      0.2591
    112  O        -71.5740    0.2100   -7.6080 O.2   103  ARG103     -0.2718
    113  CB       -69.0490   -1.4400   -6.6790 C.3   103  ARG103      0.0321
    114  CG       -67.8470   -2.2740   -6.9610 C.3   103  ARG103      0.0489
    115  CD       -67.5010   -3.1040   -5.7510 C.3   103  ARG103      0.2205
    116  NE       -68.2100   -4.3860   -5.7250 N.pl3 103  ARG103     -0.0865
    117  CZ       -69.2340   -4.6760   -4.9240 C.cat 103  ARG103      0.5346
    118  NH1      -69.6770   -3.7870   -4.0490 N.pl3 103  ARG103      0.1354
    119  NH2      -69.8060   -5.8700   -4.9850 N.pl3 103  ARG103      0.1354
    120  N        -70.2810    1.4560   -6.2400 N.am  104  ALA104     -0.1980
    121  CA       -71.4030    2.2040   -5.7180 C.3   104  ALA104      0.1597
    122  C        -71.5780    3.5230   -6.4620 C.2   104  ALA104      0.2287
    123  O        -72.3020    4.4000   -6.0020 O.2   104  ALA104     -0.2864
    124  CB       -71.2270    2.4440   -4.2290 C.3   104  ALA104      0.0319
    125  N        -73.6140    8.5790   -6.1180 N.3   112  VAL112     -0.1231
    126  CA       -73.0040    7.5140   -5.3390 C.3   112  VAL112      0.1692
    127  C        -73.9460    7.0110   -4.2610 C.2   112  VAL112      0.2592
    128  O        -74.7420    7.7720   -3.7020 O.2   112  VAL112     -0.2718
    129  CB       -71.6810    7.9930   -4.6800 C.3   112  VAL112      0.0266
    130  CG1      -71.9630    8.9860   -3.5680 C.3   112  VAL112      0.0020
    131  CG2      -70.8560    6.8100   -4.1650 C.3   112  VAL112      0.0020
    132  N        -73.8470    5.7190   -3.9720 N.am  113  PHE113     -0.1962
    133  CA       -74.6770    5.1010   -2.9520 C.3   113  PHE113      0.1771
    134  C        -74.1390    5.4230   -1.5700 C.2   113  PHE113      0.2619
    135  O        -73.0530    4.9860   -1.1990 O.2   113  PHE113     -0.2715
    136  CB       -74.7470    3.5870   -3.1510 C.3   113  PHE113      0.0574
    137  CG       -75.8370    2.9330   -2.3660 C.ar  113  PHE113     -0.0200
    138  CD1      -77.1610    3.2260   -2.6290 C.ar  113  PHE113     -0.0042
    139  CD2      -75.5430    2.0380   -1.3620 C.ar  113  PHE113     -0.0042
    140  CE1      -78.1670    2.6360   -1.9110 C.ar  113  PHE113     -0.0003
    141  CE2      -76.5460    1.4410   -0.6400 C.ar  113  PHE113     -0.0003
    142  CZ       -77.8600    1.7410   -0.9130 C.ar  113  PHE113     -0.0000
    143  N        -74.9240    6.1730   -0.8090 N.am  114  PHE114     -0.1974
    144  CA       -74.5420    6.6370    0.5240 C.3   114  PHE114      0.1639
    145  C        -75.7450    6.5540    1.4650 C.2   114  PHE114      0.2290
    146  O        -76.7920    7.1450    1.1910 O.2   114  PHE114     -0.2864
    147  CB       -74.0170    8.0720    0.4480 C.3   114  PHE114      0.0560
    148  CG       -73.5360    8.6190    1.7570 C.ar  114  PHE114     -0.0200
    149  CD1      -72.3260    8.2190    2.2890 C.ar  114  PHE114     -0.0042
    150  CD2      -74.3120    9.5250    2.4690 C.ar  114  PHE114     -0.0042
    151  CE1      -71.8850    8.7230    3.5030 C.ar  114  PHE114     -0.0003
    152  CE2      -73.8800   10.0300    3.6820 C.ar  114  PHE114     -0.0003
    153  CZ       -72.6670    9.6260    4.2010 C.ar  114  PHE114     -0.0000
    154  N        -72.3650   16.3200    0.1460 N.3   124  PHE124     -0.1241
    155  CA       -71.2360   16.3380    1.0720 C.3   124  PHE124      0.1605
    156  C        -70.7160   17.7530    1.3440 C.2   124  PHE124      0.2264
    157  O        -69.6270   17.9320    1.9090 O.2   124  PHE124     -0.2867
    158  CB       -70.1120   15.4450    0.5110 C.3   124  PHE124      0.0534
    159  CG       -70.5730   14.0600    0.1710 C.ar  124  PHE124     -0.0203
    160  CD1      -71.1180   13.7800   -1.0690 C.ar  124  PHE124     -0.0042
    161  CD2      -70.5170   13.0490    1.1110 C.ar  124  PHE124     -0.0042
    162  CE1      -71.5710   12.5000   -1.3730 C.ar  124  PHE124     -0.0003
    163  CE2      -70.9720   11.7720    0.8160 C.ar  124  PHE124     -0.0003
    164  CZ       -71.4940   11.4970   -0.4250 C.ar  124  PHE124     -0.0000
    165  N        -68.9530   19.2680    4.6320 N.3   127  LEU127     -0.1245
    166  CA       -67.5480   18.9630    4.9040 C.3   127  LEU127      0.1561
    167  C        -66.5740   20.0330    4.4290 C.2   127  LEU127      0.2260
    168  O        -65.4430   20.0970    4.9060 O.2   127  LEU127     -0.2867
    169  CB       -67.1630   17.6300    4.2640 C.3   127  LEU127      0.0270
    170  CG       -67.8630   16.3990    4.8280 C.3   127  LEU127      0.0019
    171  CD1      -67.5240   15.1730    3.9910 C.3   127  LEU127      0.0001
    172  CD2      -67.4640   16.2070    6.2800 C.3   127  LEU127      0.0001
    173  N        -64.9400   20.3890    1.6020 N.3   129  CYS129     -0.1235
    174  CA       -63.7850   19.9670    0.8070 C.3   129  CYS129      0.1677
    175  C        -64.2220   19.3850   -0.5090 C.2   129  CYS129      0.2270
    176  O        -64.0860   18.1950   -0.7200 O.2   129  CYS129     -0.2867
    177  CB       -62.9120   18.9470    1.5480 C.3   129  CYS129      0.0956
    178  SG       -63.7270   17.5000    2.2610 S.3   129  CYS129     -0.0801
    179  N        -61.5620   17.6370   -3.0160 N.3   132  LEU132     -0.1231
    180  CA       -61.3370   16.2520   -2.6710 C.3   132  LEU132      0.1693
    181  C        -62.5290   15.4030   -3.0990 C.2   132  LEU132      0.2591
    182  O        -62.3660   14.3070   -3.6400 O.2   132  LEU132     -0.2718
    183  CB       -61.0880   16.1140   -1.1750 C.3   132  LEU132      0.0284
    184  CG       -60.9760   14.6750   -0.6860 C.3   132  LEU132      0.0019
    185  CD1      -59.7410   14.0210   -1.2870 C.3   132  LEU132      0.0001
    186  CD2      -60.9440   14.6080    0.8300 C.3   132  LEU132      0.0001
    187  N        -63.7320   15.9040   -2.8460 N.am  133  ILE133     -0.1980
    188  CA       -64.9310   15.1260   -3.1390 C.3   133  ILE133      0.1595
    189  C        -65.1340   14.9620   -4.6510 C.2   133  ILE133      0.2287
    190  O        -65.5400   13.8970   -5.1190 O.2   133  ILE133     -0.2864
    191  CB       -66.1900   15.7700   -2.5080 C.3   133  ILE133      0.0276
    192  CG1      -66.1160   15.7080   -0.9830 C.3   133  ILE133      0.0022
    193  CG2      -67.4610   15.0660   -2.9850 C.3   133  ILE133      0.0022
    194  CD1      -65.9830   14.3010   -0.4430 C.3   133  ILE133      0.0001
    195  N        -62.5720   12.4700   -6.1010 N.3   136  ILE136     -0.1231
    196  CA       -63.0170   11.1020   -5.8530 C.3   136  ILE136      0.1692
    197  C        -64.0840   10.6870   -6.8650 C.2   136  ILE136      0.2592
    198  O        -64.0210    9.5920   -7.4310 O.2   136  ILE136     -0.2718
    199  CB       -63.5620   10.9140   -4.4310 C.3   136  ILE136      0.0266
    200  CG1      -62.4400   11.0710   -3.4000 C.3   136  ILE136      0.0019
    201  CG2      -64.1680    9.5380   -4.2840 C.3   136  ILE136      0.0020
    202  CD1      -62.9040   10.9400   -1.9600 C.3   136  ILE136      0.0001
    203  N        -65.0610   11.5610   -7.0960 N.am  137  PHE137     -0.1976
    204  CA       -66.1020   11.2790   -8.0810 C.3   137  PHE137      0.1639
    205  C        -65.4970   11.0730   -9.4650 C.2   137  PHE137      0.2290
    206  O        -65.9080   10.1760  -10.1980 O.2   137  PHE137     -0.2864
    207  CB       -67.1340   12.4030   -8.1250 C.3   137  PHE137      0.0560
    208  CG       -68.3100   12.1980   -7.1940 C.ar  137  PHE137     -0.0200
    209  CD1      -68.1340   12.1460   -5.8220 C.ar  137  PHE137     -0.0042
    210  CD2      -69.5990   12.0650   -7.7000 C.ar  137  PHE137     -0.0042
    211  CE1      -69.2220   11.9630   -4.9740 C.ar  137  PHE137     -0.0003
    212  CE2      -70.6860   11.8820   -6.8580 C.ar  137  PHE137     -0.0003
    213  CZ       -70.5000   11.8320   -5.4940 C.ar  137  PHE137     -0.0000
    214  N        -56.5170   12.4940    0.4680 N.3   215  HIS215     -0.1241
    215  CA       -57.6580   11.9670    1.2150 C.3   215  HIS215      0.1621
    216  C        -57.3770   11.7330    2.7010 C.2   215  HIS215      0.2264
    217  O        -58.0790   12.2640    3.5640 O.2   215  HIS215     -0.2867
    218  CB       -58.1220   10.6560    0.5640 C.3   215  HIS215      0.0745
    219  CG       -59.3550   10.0620    1.1720 C.ar  215  HIS215      0.0817
    220  ND1      -60.4440   10.8150    1.5530 N.ar  215  HIS215     -0.2268
    221  CD2      -59.6730    8.7750    1.4480 C.ar  215  HIS215      0.1154
    222  CE1      -61.3780   10.0180    2.0440 C.ar  215  HIS215      0.1986
    223  NE2      -60.9340    8.7750    1.9920 N.ar  215  HIS215     -0.2212
    224  N        -56.9460   14.9430    4.9020 N.3   218  ARG218     -0.1231
    225  CA       -58.1320   15.6950    5.3200 C.3   218  ARG218      0.1694
    226  C        -58.9130   14.8840    6.3380 C.2   218  ARG218      0.2591
    227  O        -59.7000   15.4280    7.1120 O.2   218  ARG218     -0.2718
    228  CB       -59.0540   16.0470    4.1430 C.3   218  ARG218      0.0321
    229  CG       -59.0500   17.5320    3.7870 C.3   218  ARG218      0.0489
    230  CD       -59.3670   18.4210    4.9850 C.3   218  ARG218      0.2205
    231  NE       -60.7810   18.7530    5.1390 N.pl3 218  ARG218     -0.0865
    232  CZ       -61.3870   19.7560    4.5070 C.cat 218  ARG218      0.5346
    233  NH1      -60.7110   20.5170    3.6540 N.pl3 218  ARG218      0.1354
    234  NH2      -62.6740   20.0010    4.7210 N.pl3 218  ARG218      0.1354
    235  N        -58.6950   13.5730    6.3090 N.am  219  LEU219     -0.1980
    236  CA       -59.1870   12.6600    7.3320 C.3   219  LEU219      0.1596
    237  C        -58.5310   12.9700    8.6730 C.2   219  LEU219      0.2287
    238  O        -59.1440   12.8260    9.7270 O.2   219  LEU219     -0.2864
    239  CB       -58.9120   11.2170    6.9330 C.3   219  LEU219      0.0297
    240  CG       -59.8270   10.6410    5.8570 C.3   219  LEU219      0.0022
    241  CD1      -59.2430    9.3470    5.3120 C.3   219  LEU219      0.0001
    242  CD2      -61.2260   10.4270    6.3890 C.3   219  LEU219      0.0001
    243  N        -59.7120   16.1750   10.3190 N.3   222  PHE222     -0.1241
    244  CA       -60.9720   15.8100   10.9600 C.3   222  PHE222      0.1605
    245  C        -60.8500   15.0190   12.2700 C.2   222  PHE222      0.2264
    246  O        -61.7420   15.1200   13.1020 O.2   222  PHE222     -0.2867
    247  CB       -61.8540   15.0300    9.9720 C.3   222  PHE222      0.0534
    248  CG       -62.7350   15.9080    9.1150 C.ar  222  PHE222     -0.0203
    249  CD1      -63.7340   16.6790    9.6820 C.ar  222  PHE222     -0.0042
    250  CD2      -62.5530   15.9720    7.7490 C.ar  222  PHE222     -0.0042
    251  CE1      -64.5350   17.4870    8.9010 C.ar  222  PHE222     -0.0003
    252  CE2      -63.3480   16.7810    6.9660 C.ar  222  PHE222     -0.0003
    253  CZ       -64.3400   17.5370    7.5440 C.ar  222  PHE222     -0.0000
@<TRIPOS>BOND
     1   206   205    2
     2   205   204    1
     3   207   204    1
     4   207   208    1
     5   204   203    1
     6   210   208   ar
     7   210   212   ar
     8   112   111    2
     9   110   109    1
    10   110   111    1
    11   110   113    1
    12   198   197    2
    13   208   209   ar
    14   111   120   am
    15   203   197   am
    16   114   113    1
    17   114   115    1
    18    27    26    2
    19   197   196    1
    20   212   213   ar
    21    26    25    1
    22   122   123    2
    23   122   121    1
    24   120   121    1
    25   125   126    1
    26   195   196    1
    27    28    25    1
    28    28    29    1
    29   196   199    1
    30   209   211   ar
    31   115   116    1
    32   116   117    2
    33   121   124    1
    34   103   104    2
    35   103   102    1
    36    25    24    1
    37   213   211   ar
    38    85    84    2
    39   126   129    1
    40   126   127    1
    41   190   189    2
    42    30    29    1
    43    93    92    2
    44   119   117    1
    45   117   118    1
    46    90    91    1
    47   129   131    1
    48   129   130    1
    49    29    31    1
    50   189   188    1
    51    92    91    1
    52    92   101   am
    53    84    83    1
    54    91    94    1
    55   199   201    1
    56   199   200    1
    57   102   101    1
    58   102   105    1
    59   127   132   am
    60   127   128    2
    61   105   106    1
    62   132   133    1
    63   106   107    1
    64   182   181    2
    65    86    83    1
    66    86    87    1
    67   200   202    1
    68    83    82    1
    69   136   133    1
    70   136   137    1
    71   188   187    1
    72   188   191    1
    73   181   187   am
    74   181   180    1
    75    94    95    1
    76   179   180    1
    77   193   191    1
    78   133   134    1
    79    95    96    1
    80    19    18    2
    81   107   108    1
    82   180   183    1
    83   138   137   ar
    84   138   140   ar
    85   191   192    1
    86     5     6    1
    87     5     2    1
    88    88    87    1
    89   137   139   ar
    90    78    77    2
    91    82    77   am
    92    87    89    1
    93    18    17    1
    94   140   142   ar
    95    77    76    1
    96   134   135    2
    97   134   143   am
    98    96    97    1
    99   162   160   ar
   100   162   164   ar
   101   139   141   ar
   102    97    98    2
   103   185   184    1
   104   183   184    1
   105     2     3    1
   106     2     1    1
   107   160   159   ar
   108   192   194    1
   109    75    76    1
   110     4     3    2
   111   142   141   ar
   112    20    17    1
   113    20    21    1
   114   143   144    1
   115   176   175    2
   116   184   186    1
   117    76    79    1
   118    17    16    1
   119    98   100    1
   120    98    99    1
   121   175   174    1
   122   164   163   ar
   123     3     7   am
   124    22    21    1
   125    16     9   am
   126   154   155    1
   127   159   158    1
   128   159   161   ar
   129    21    23    1
   130   147   144    1
   131   147   148    1
   132   214   215    1
   133   158   155    1
   134   144   145    1
   135   218   219    1
   136   218   215    1
   137    79    80    1
   138    79    81    1
   139     7     8    1
   140   174   177    1
   141   174   173    1
   142   163   161   ar
   143   155   156    1
   144     9     8    1
   145     9    10    2
   146   219   221   ar
   147   219   220   ar
   148   146   145    2
   149   215   216    1
   150   156   157    2
   151   221   223   ar
   152   177   178    1
   153   220   222   ar
   154     8    11    1
   155   148   149   ar
   156   148   150   ar
   157    11    12    1
   158   223   222   ar
   159   149   151   ar
   160   150   152   ar
   161    12    13    1
   162    14    13    2
   163   216   217    2
   164    13    15   am
   165    68    67    1
   166   151   153   ar
   167    74    71    1
   168   233   232    1
   169   152   153   ar
   170   229   228    1
   171   229   230    1
   172   171   170    1
   173    73    72    2
   174   228   225    1
   175   169   170    1
   176   169   166    1
   177   167   166    1
   178   167   168    2
   179    67    69    1
   180    67    66    1
   181   232   234    1
   182   232   231    2
   183    71    72    1
   184    71    70    1
   185   165   166    1
   186   170   172    1
   187   224   225    1
   188   230   231    1
   189    51    50    1
   190   241   240    1
   191   225   226    1
   192    55    54    2
   193    56    57    1
   194    56    53    1
   195    66    63    1
   196   240   242    1
   197   240   239    1
   198    57    59   ar
   199    57    58   ar
   200    63    62    1
   201    63    64    1
   202    59    61   ar
   203    50    47    1
   204    54    62   am
   205    54    53    1
   206    58    60   ar
   207   235   226   am
   208   235   236    1
   209    61    60   ar
   210   226   227    2
   211    65    64    2
   212    53    52    1
   213    47    48    1
   214    47    46    1
   215    49    48    2
   216   239   236    1
   217   252   253   ar
   218   252   250   ar
   219   236   237    1
   220   253   251   ar
   221   250   248   ar
   222   237   238    2
   223   251   249   ar
   224    44    42   ar
   225    44    45   ar
   226   248   249   ar
   227   248   247    1
   228    42    39   ar
   229    32    33    1
   230    33    34    1
   231    33    36    1
   232    35    34    2
   233   247   244    1
   234    45    43   ar
   235    36    37    1
   236   243   244    1
   237    39    37   ar
   238    39    41   ar
   239   244   245    1
   240    37    38   ar
   241    43    41   ar
   242    41    40   ar
   243   245   246    2
   244    38    40   ar
