@<TRIPOS>MOLECULE
tmp/5k75D00.pdb
 168 158 0 0 0
SMALL
GASTEIGER

@<TRIPOS>ATOM
      1  N         35.3910    9.8000   32.0070 N.3    29  MET29      -0.1230
      2  CA        34.2940    9.7250   31.0380 C.3    29  MET29       0.1702
      3  C         34.0250   11.1350   30.5120 C.2    29  MET29       0.2593
      4  O         33.8470   11.3250   29.3090 O.2    29  MET29      -0.2718
      5  CB        33.0500    9.0570   31.6800 C.3    29  MET29       0.0401
      6  CG        31.7350    9.4850   31.1040 C.3    29  MET29       0.0596
      7  SD        31.5230    8.9490   29.4000 S.3    29  MET29      -0.1393
      8  CE        29.9520    8.1040   29.5400 C.3    29  MET29       0.0692
      9  N         34.0620   12.1040   31.4140 N.am   30  GLY30      -0.1942
     10  CA        33.8610   13.4970   31.0600 C.3    30  GLY30       0.2014
     11  C         33.6670   14.3990   32.2420 C.2    30  GLY30       0.2638
     12  O         33.6260   13.9330   33.3740 O.2    30  GLY30      -0.2714
     13  N         33.5450   15.7120   31.9430 N.am   31  GLU31      -0.1977
     14  CA        33.3580   16.8650   32.8270 C.3    31  GLU31       0.1602
     15  C         34.4160   16.9850   33.9180 C.2    31  GLU31       0.2287
     16  O         35.3280   17.7990   33.7870 O.2    31  GLU31      -0.2864
     17  CB        31.9400   16.8990   33.3960 C.3    31  GLU31       0.0415
     18  CG        30.8880   17.2560   32.3600 C.3    31  GLU31       0.1163
     19  CD        29.6270   16.4160   32.3390 C.2    31  GLU31       0.3649
     20  OE1       29.2580   15.8350   33.3870 O.co2  31  GLU31      -0.2457
     21  OE2       28.9950   16.3500   31.2620 O.co2  31  GLU31      -0.2457
     22  N         30.3880   21.4160   38.1760 N.3    32  PHE32      -0.1241
     23  CA        29.6230   20.5620   39.0900 C.3    32  PHE32       0.1605
     24  C         30.4170   19.3050   39.4750 C.2    32  PHE32       0.2264
     25  O         30.4650   18.9540   40.6570 O.2    32  PHE32      -0.2867
     26  CB        28.2330   20.2390   38.5200 C.3    32  PHE32       0.0534
     27  CG        28.2280   19.6960   37.1110 C.ar   32  PHE32      -0.0203
     28  CD1       28.1470   20.5510   36.0140 C.ar   32  PHE32      -0.0042
     29  CD2       28.2620   18.3290   36.8790 C.ar   32  PHE32      -0.0042
     30  CE1       28.1230   20.0430   34.7130 C.ar   32  PHE32      -0.0003
     31  CE2       28.2390   17.8240   35.5800 C.ar   32  PHE32      -0.0003
     32  CZ        28.1710   18.6840   34.5070 C.ar   32  PHE32      -0.0000
     33  N         33.2380   12.8840   35.8900 N.3    35  VAL35      -0.1245
     34  CA        32.6830   11.5340   35.8810 C.3    35  VAL35       0.1561
     35  C         33.7620   10.5330   35.5080 C.2    35  VAL35       0.2260
     36  O         34.4240   10.6920   34.4740 O.2    35  VAL35      -0.2867
     37  CB        31.4570   11.4100   34.9350 C.3    35  VAL35       0.0252
     38  CG1       30.7530   10.0650   35.1250 C.3    35  VAL35       0.0019
     39  CG2       30.4740   12.5590   35.1470 C.3    35  VAL35       0.0019
     40  N         29.3930    4.5240   37.6460 N.3    46  ALA46      -0.1245
     41  CA        29.7530    5.8560   37.2520 C.3    46  ALA46       0.1562
     42  C         29.9740    6.5940   38.5300 C.2    46  ALA46       0.2260
     43  O         29.0820    6.7030   39.3600 O.2    46  ALA46      -0.2867
     44  CB        28.6690    6.5210   36.4190 C.3    46  ALA46       0.0290
     45  N         30.7770   10.0850   40.0650 N.3    48  LYS48      -0.1245
     46  CA        30.8360   11.5190   39.8540 C.3    48  LYS48       0.1561
     47  C         31.4390   12.1370   41.0820 C.2    48  LYS48       0.2260
     48  O         30.8300   12.0950   42.1530 O.2    48  LYS48      -0.2867
     49  CB        29.4510   12.1200   39.5280 C.3    48  LYS48       0.0271
     50  CG        29.4640   13.6370   39.3460 C.3    48  LYS48       0.0035
     51  CD        28.1690   14.0910   38.7110 C.3    48  LYS48       0.0206
     52  CE        27.7630   15.5010   38.9970 C.3    48  LYS48       0.1093
     53  NZ        26.4900   15.8270   38.2840 N.3    48  LYS48      -0.1314
     54  N         18.0450    7.8730   35.7220 N.3    75  VAL75      -0.1245
     55  CA        19.2990    7.2350   36.1530 C.3    75  VAL75       0.1561
     56  C         19.1260    6.6440   37.5790 C.2    75  VAL75       0.2260
     57  O         18.3550    7.1760   38.3720 O.2    75  VAL75      -0.2867
     58  CB        20.5750    8.1270   36.0080 C.3    75  VAL75       0.0252
     59  CG1       20.8440    8.5060   34.5490 C.3    75  VAL75       0.0019
     60  CG2       20.5030    9.3670   36.8870 C.3    75  VAL75       0.0019
     61  N         26.5400    5.7530   40.4730 N.3    91  TYR91      -0.1227
     62  CA        25.3710    5.4270   39.6950 C.3    91  TYR91       0.1736
     63  C         25.5640    4.1870   38.9330 C.2    91  TYR91       0.2595
     64  O         26.7040    3.7510   38.7150 O.2    91  TYR91      -0.2718
     65  CB        25.1170    6.5600   38.6600 C.3    91  TYR91       0.0548
     66  CG        24.7890    7.9000   39.2640 C.ar   91  TYR91      -0.0200
     67  CD1       23.4730    8.2410   39.5750 C.ar   91  TYR91      -0.0009
     68  CD2       25.7910    8.8230   39.5550 C.ar   91  TYR91      -0.0009
     69  CE1       23.1580    9.4760   40.1300 C.ar   91  TYR91       0.0417
     70  CE2       25.4890   10.0580   40.1300 C.ar   91  TYR91       0.0417
     71  CZ        24.1720   10.3770   40.4120 C.ar   91  TYR91       0.1957
     72  OH        23.8690   11.5610   41.0120 O.3    91  TYR91      -0.2866
     73  N         24.4340    3.6710   38.4000 N.am   92  VAL92      -0.1966
     74  CA        24.4710    2.6000   37.4280 C.3    92  VAL92       0.1727
     75  C         25.0670    3.3430   36.2140 C.2    92  VAL92       0.2616
     76  O         24.6090    4.4280   35.8590 O.2    92  VAL92      -0.2715
     77  CB        23.0840    2.0120   37.1170 C.3    92  VAL92       0.0290
     78  CG1       23.1850    0.9570   36.0130 C.3    92  VAL92       0.0023
     79  CG2       22.4450    1.4400   38.3810 C.3    92  VAL92       0.0023
     80  N         26.1600    2.8240   35.6920 N.am   93  TYR93      -0.1960
     81  CA        26.9300    3.4310   34.6200 C.3    93  TYR93       0.1771
     82  C         26.1650    3.4370   33.3270 C.2    93  TYR93       0.2619
     83  O         25.5540    2.4290   33.0030 O.2    93  TYR93      -0.2715
     84  CB        28.2800    2.6910   34.4840 C.3    93  TYR93       0.0574
     85  CG        29.2190    3.2720   33.4540 C.ar   93  TYR93      -0.0198
     86  CD1       29.9070    4.4590   33.6970 C.ar   93  TYR93      -0.0009
     87  CD2       29.4150    2.6440   32.2320 C.ar   93  TYR93      -0.0009
     88  CE1       30.7810    4.9940   32.7510 C.ar   93  TYR93       0.0417
     89  CE2       30.2950    3.1600   31.2850 C.ar   93  TYR93       0.0417
     90  CZ        30.9650    4.3440   31.5420 C.ar   93  TYR93       0.1957
     91  OH        31.8390    4.8660   30.6280 O.3    93  TYR93      -0.2866
     92  N         26.1690    4.5800   32.6030 N.am   94  MET94      -0.1977
     93  CA        25.5060    4.6950   31.2990 C.3    94  MET94       0.1605
     94  C         26.5730    4.6490   30.2150 C.2    94  MET94       0.2287
     95  O         27.2100    5.6780   29.9660 O.2    94  MET94      -0.2864
     96  CB        24.6370    5.9700   31.2430 C.3    94  MET94       0.0413
     97  CG        23.6410    6.0220   32.3910 C.3    94  MET94       0.0598
     98  SD        22.3310    4.7740   32.1800 S.3    94  MET94      -0.1393
     99  CE        22.6050    3.7270   33.4320 C.3    94  MET94       0.0692
    100  N         26.9600    7.3790   27.1440 N.3    97  GLY97      -0.1210
    101  CA        27.0910    8.7810   27.5180 C.3    97  GLY97       0.1956
    102  C         25.8170    9.5820   27.4080 C.2    97  GLY97       0.2612
    103  O         24.7380    9.0740   27.7280 O.2    97  GLY97      -0.2717
    104  N         25.9380   10.8350   26.9460 N.am   98  SER98      -0.1952
    105  CA        24.7610   11.6980   26.8590 C.3    98  SER98       0.1924
    106  C         24.2250   11.7660   25.4450 C.2    98  SER98       0.2314
    107  O         24.9530   11.4720   24.4840 O.2    98  SER98      -0.2863
    108  CB        25.0830   13.0990   27.3500 C.3    98  SER98       0.2116
    109  OG        26.0060   13.7220   26.4760 O.3    98  SER98      -0.2180
    110  N         23.5290   14.5350   23.9820 N.3   100  LEU100     -0.1231
    111  CA        24.2870   15.6470   23.3950 C.3   100  LEU100      0.1693
    112  C         25.5040   15.1110   22.6360 C.2   100  LEU100      0.2592
    113  O         25.6830   15.4650   21.4770 O.2   100  LEU100     -0.2718
    114  CB        24.6950   16.6800   24.4810 C.3   100  LEU100      0.0284
    115  CG        25.5760   17.8660   24.0310 C.3   100  LEU100      0.0019
    116  CD1       24.7700   18.9170   23.3030 C.3   100  LEU100      0.0001
    117  CD2       26.2390   18.5340   25.2220 C.3   100  LEU100      0.0001
    118  N         26.3040   14.2380   23.2760 N.am  101  ASP101     -0.1974
    119  CA        27.4930   13.6210   22.6690 C.3   101  ASP101      0.1709
    120  C         27.1410   12.7130   21.5110 C.2   101  ASP101      0.2293
    121  O         27.8460   12.7010   20.5230 O.2   101  ASP101     -0.2864
    122  CB        28.3070   12.8500   23.7300 C.3   101  ASP101      0.1436
    123  CG        28.7240   13.7120   24.9050 C.2   101  ASP101      0.3671
    124  OD1       28.9340   13.1650   25.9910 O.co2 101  ASP101     -0.2456
    125  OD2       28.7910   14.9560   24.7370 O.co2 101  ASP101     -0.2456
    126  N         30.4520   12.5400   18.9780 N.3   106  LEU106     -0.1231
    127  CA        31.6970   12.6750   19.7270 C.3   106  LEU106      0.1693
    128  C         32.4270   11.3240   19.8320 C.2   106  LEU106      0.2592
    129  O         31.7850   10.2890   20.0210 O.2   106  LEU106     -0.2718
    130  CB        31.3560   13.2050   21.1150 C.3   106  LEU106      0.0284
    131  CG        32.5210   13.5860   22.0420 C.3   106  LEU106      0.0019
    132  CD1       33.1220   14.9620   21.6850 C.3   106  LEU106      0.0001
    133  CD2       32.0430   13.6690   23.4780 C.3   106  LEU106      0.0001
    134  N         33.7750   11.3700   19.6580 N.am  107  ASP107     -0.1974
    135  CA        34.7220   10.2480   19.7150 C.3   107  ASP107      0.1709
    136  C         34.4480    9.1390   18.6650 C.2   107  ASP107      0.2293
    137  O         34.6970    7.9620   18.9110 O.2   107  ASP107     -0.2864
    138  CB        34.8100    9.6960   21.1400 C.3   107  ASP107      0.1436
    139  CG        35.2160   10.7300   22.1480 C.2   107  ASP107      0.3671
    140  OD1       36.2680   11.3740   21.9490 O.co2 107  ASP107     -0.2456
    141  OD2       34.4740   10.9170   23.1200 O.co2 107  ASP107     -0.2456
    142  N         22.4220   17.1290   27.4530 N.3   144  ALA144     -0.1245
    143  CA        23.5480   16.7110   28.3120 C.3   144  ALA144      0.1562
    144  C         23.0290   15.9470   29.5410 C.2   144  ALA144      0.2260
    145  O         23.7620   15.1330   30.0950 O.2   144  ALA144     -0.2867
    146  CB        24.3740   17.9250   28.7540 C.3   144  ALA144      0.0290
    147  N         20.8840   10.7000   29.5260 N.3   147  LEU147     -0.1245
    148  CA        21.9150    9.6900   29.3830 C.3   147  LEU147      0.1561
    149  C         21.3970    8.4570   28.6750 C.2   147  LEU147      0.2260
    150  O         20.1850    8.2660   28.5800 O.2   147  LEU147     -0.2867
    151  CB        22.5410    9.3580   30.7350 C.3   147  LEU147      0.0270
    152  CG        23.0710   10.5410   31.5280 C.3   147  LEU147      0.0019
    153  CD1       23.6580   10.0460   32.8100 C.3   147  LEU147      0.0001
    154  CD2       24.1170   11.3650   30.7450 C.3   147  LEU147      0.0001
    155  N         18.8470   12.5680   33.9620 N.3   157  SER157     -0.1202
    156  CA        19.8300   12.7180   35.0320 C.3   157  SER157      0.2020
    157  C         19.8860   14.1370   35.5750 C.2   157  SER157      0.2618
    158  O         19.3000   15.0630   35.0010 O.2   157  SER157     -0.2717
    159  CB        21.2170   12.2820   34.5550 C.3   157  SER157      0.2103
    160  OG        21.6520   13.0960   33.4790 O.3   157  SER157     -0.2182
    161  N         20.6300   14.2870   36.6860 N.am  158  ASP158     -0.1973
    162  CA        20.9320   15.5190   37.4090 C.3   158  ASP158      0.1709
    163  C         19.6840   16.1500   38.0280 C.2   158  ASP158      0.2293
    164  O         19.0280   17.0180   37.4470 O.2   158  ASP158     -0.2864
    165  CB        21.7440   16.5090   36.5460 C.3   158  ASP158      0.1436
    166  CG        23.0080   17.0130   37.2200 C.2   158  ASP158      0.3671
    167  OD1       22.8970   17.6250   38.3050 O.co2 158  ASP158     -0.2456
    168  OD2       24.1020   16.8250   36.6430 O.co2 158  ASP158     -0.2456
@<TRIPOS>BOND
     1   136   137    2
     2   136   135    1
     3   126   127    1
     4   134   135    1
     5   134   128   am
     6   135   138    1
     7   127   128    1
     8   127   130    1
     9   128   129    2
    10   121   120    2
    11   130   131    1
    12   138   139    1
    13   113   112    2
    14   120   119    1
    15   132   131    1
    16   140   139   ar
    17   131   133    1
    18   139   141   ar
    19   112   118   am
    20   112   111    1
    21   119   118    1
    22   119   122    1
    23   116   115    1
    24   111   110    1
    25   111   114    1
    26   122   123    1
    27   115   114    1
    28   115   117    1
    29   107   106    2
    30   125   123   ar
    31   123   124   ar
    32   106   105    1
    33   109   108    1
    34   105   104    1
    35   105   108    1
    36   104   102   am
    37   100   101    1
    38   102   101    1
    39   102   103    2
    40   142   143    1
    41   143   146    1
    42   143   144    1
    43   150   149    2
    44   149   148    1
    45     4     3    2
    46   148   147    1
    47   148   151    1
    48     7     8    1
    49     7     6    1
    50   144   145    2
    51    95    94    2
    52    94    93    1
    53     3     2    1
    54     3     9   am
    55    91    90    1
    56   151   152    1
    57   154   152    1
    58     2     5    1
    59     2     1    1
    60    10     9    1
    61    10    11    1
    62     6     5    1
    63    96    93    1
    64    96    97    1
    65    21    19   ar
    66    89    90   ar
    67    89    87   ar
    68    93    92    1
    69   152   153    1
    70    90    88   ar
    71    13    11   am
    72    13    14    1
    73    98    97    1
    74    98    99    1
    75    87    85   ar
    76    11    12    2
    77    19    18    1
    78    19    20   ar
    79    18    17    1
    80    92    82   am
    81    88    86   ar
    82    14    17    1
    83    14    15    1
    84    83    82    2
    85    82    81    1
    86    85    86   ar
    87    85    84    1
    88   160   159    1
    89    16    15    2
    90   155   156    1
    91    36    35    2
    92    84    81    1
    93    32    30   ar
    94    32    31   ar
    95    59    58    1
    96   159   156    1
    97    81    80    1
    98    30    28   ar
    99    37    38    1
   100    37    39    1
   101    37    34    1
   102   158   157    2
   103   156   157    1
   104    35    34    1
   105   157   161   am
   106    31    29   ar
   107    80    75   am
   108    54    55    1
   109    76    75    2
   110    34    33    1
   111    58    55    1
   112    58    60    1
   113    78    77    1
   114    28    27   ar
   115    55    56    1
   116    75    74    1
   117    44    41    1
   118   165   166    1
   119   165   162    1
   120   168   166   ar
   121   161   162    1
   122    29    27   ar
   123    27    26    1
   124    77    74    1
   125    77    79    1
   126   166   167   ar
   127    41    40    1
   128    41    42    1
   129   162   163    1
   130    74    73    1
   131   164   163    2
   132    56    57    2
   133    22    23    1
   134    53    52    1
   135    73    63   am
   136    26    23    1
   137    42    43    2
   138    65    66    1
   139    65    62    1
   140    51    52    1
   141    51    50    1
   142    64    63    2
   143    63    62    1
   144    23    24    1
   145    66    68   ar
   146    66    67   ar
   147    50    49    1
   148    24    25    2
   149    49    46    1
   150    68    70   ar
   151    67    69   ar
   152    62    61    1
   153    46    45    1
   154    46    47    1
   155    69    71   ar
   156    70    71   ar
   157    71    72    1
   158    47    48    2
