@<TRIPOS>MOLECULE
tmp/5k76B00.pdb
 156 146 0 0 0
SMALL
GASTEIGER

@<TRIPOS>ATOM
      1  N        -48.0900  -13.4840   -9.3970 N.3    29  MET29      -0.1230
      2  CA       -47.9530  -14.9370   -9.4060 C.3    29  MET29       0.1702
      3  C        -47.8410  -15.4920  -10.8340 C.2    29  MET29       0.2592
      4  O        -47.0380  -16.3870  -11.0920 O.2    29  MET29      -0.2718
      5  CB       -49.1770  -15.5690   -8.7250 C.3    29  MET29       0.0401
      6  CG       -49.0500  -15.7150   -7.2270 C.3    29  MET29       0.0596
      7  SD       -50.6590  -15.7110   -6.3810 S.3    29  MET29      -0.1393
      8  CE       -51.3840  -17.1630   -7.0020 C.3    29  MET29       0.0692
      9  N        -48.6970  -14.9980  -11.7210 N.am   30  GLY30      -0.1957
     10  CA       -48.7730  -15.4360  -13.1040 C.3    30  GLY30       0.1869
     11  C        -49.5800  -14.5030  -13.9760 C.2    30  GLY30       0.2309
     12  O        -50.1360  -13.5090  -13.5000 O.2    30  GLY30      -0.2863
     13  N        -52.6250  -12.6950  -12.1490 N.3    37  VAL37      -0.1245
     14  CA       -52.9680  -13.3340  -10.8790 C.3    37  VAL37       0.1561
     15  C        -52.0030  -12.8170   -9.8050 C.2    37  VAL37       0.2260
     16  O        -50.7850  -12.9250   -9.9610 O.2    37  VAL37      -0.2867
     17  CB       -53.0030  -14.8820  -10.9680 C.3    37  VAL37       0.0252
     18  CG1      -53.4840  -15.4950   -9.6540 C.3    37  VAL37       0.0019
     19  CG2      -53.8960  -15.3340  -12.1160 C.3    37  VAL37       0.0019
     20  N        -55.6530  -15.7980   -3.8240 N.3    48  ALA48      -0.1245
     21  CA       -55.2390  -15.6060   -5.2080 C.3    48  ALA48       0.1562
     22  C        -56.2540  -14.6360   -5.8240 C.2    48  ALA48       0.2260
     23  O        -57.4500  -14.9240   -5.8170 O.2    48  ALA48      -0.2867
     24  CB       -55.2430  -16.9320   -5.9460 C.3    48  ALA48       0.0290
     25  N        -57.2910  -12.6880   -9.2040 N.3    50  LYS50      -0.1245
     26  CA       -57.1650  -12.5370  -10.6500 C.3    50  LYS50       0.1561
     27  C        -57.8170  -11.2010  -11.0020 C.2    50  LYS50       0.2260
     28  O        -58.9860  -10.9930  -10.6870 O.2    50  LYS50      -0.2867
     29  CB       -57.8610  -13.6960  -11.3870 C.3    50  LYS50       0.0271
     30  CG       -57.9760  -13.4990  -12.8980 C.3    50  LYS50       0.0035
     31  CD       -58.0960  -14.8180  -13.6560 C.3    50  LYS50       0.0206
     32  CE       -59.5060  -15.3500  -13.7630 C.3    50  LYS50       0.1093
     33  NZ       -59.5190  -16.8090  -14.0560 N.3    50  LYS50      -0.1314
     34  N        -61.4420  -25.7400   -7.1820 N.3    78  VAL78      -0.1245
     35  CA       -60.9880  -24.5430   -6.4670 C.3    78  VAL78       0.1561
     36  C        -62.1990  -23.7720   -5.9620 C.2    78  VAL78       0.2260
     37  O        -63.2260  -23.7210   -6.6390 O.2    78  VAL78      -0.2867
     38  CB       -59.9750  -23.6170   -7.2090 C.3    78  VAL78       0.0252
     39  CG1      -58.7000  -24.3610   -7.5800 C.3    78  VAL78       0.0019
     40  CG2      -60.5850  -22.9510   -8.4310 C.3    78  VAL78       0.0019
     41  N        -59.8560  -16.1580   -4.9710 N.3    94  TYR94      -0.1227
     42  CA       -59.9400  -17.6000   -4.7440 C.3    94  TYR94       0.1736
     43  C        -59.1850  -18.0320   -3.5130 C.2    94  TYR94       0.2595
     44  O        -58.3440  -17.2850   -3.0020 O.2    94  TYR94      -0.2718
     45  CB       -59.3100  -18.3510   -5.9250 C.3    94  TYR94       0.0548
     46  CG       -59.8090  -17.9610   -7.2960 C.ar   94  TYR94      -0.0200
     47  CD1      -59.2510  -16.8860   -7.9840 C.ar   94  TYR94      -0.0009
     48  CD2      -60.7720  -18.7210   -7.9490 C.ar   94  TYR94      -0.0009
     49  CE1      -59.6940  -16.5320   -9.2550 C.ar   94  TYR94       0.0417
     50  CE2      -61.2120  -18.3870   -9.2260 C.ar   94  TYR94       0.0417
     51  CZ       -60.6780  -17.2860   -9.8720 C.ar   94  TYR94       0.1957
     52  OH       -61.1180  -16.9500  -11.1280 O.3    94  TYR94      -0.2866
     53  N        -59.4350  -19.2840   -3.0740 N.am   95  VAL95      -0.1966
     54  CA       -58.7010  -19.9150   -1.9770 C.3    95  VAL95       0.1727
     55  C        -57.2790  -20.1520   -2.5480 C.2    95  VAL95       0.2616
     56  O        -57.1440  -20.6580   -3.6670 O.2    95  VAL95      -0.2715
     57  CB       -59.3840  -21.2330   -1.4850 C.3    95  VAL95       0.0290
     58  CG1      -58.4400  -22.1140   -0.6780 C.3    95  VAL95       0.0023
     59  CG2      -60.6790  -20.9600   -0.7230 C.3    95  VAL95       0.0023
     60  N        -56.2480  -19.7130   -1.8120 N.am   96  TYR96      -0.1960
     61  CA       -54.8520  -19.8480   -2.2230 C.3    96  TYR96       0.1771
     62  C        -54.3800  -21.2970   -2.1660 C.2    96  TYR96       0.2619
     63  O        -54.6200  -22.0130   -1.1880 O.2    96  TYR96      -0.2715
     64  CB       -53.9410  -18.9280   -1.3980 C.3    96  TYR96       0.0574
     65  CG       -52.4770  -19.0040   -1.7630 C.ar   96  TYR96      -0.0198
     66  CD1      -51.9780  -18.3140   -2.8670 C.ar   96  TYR96      -0.0009
     67  CD2      -51.5760  -19.7150   -0.9730 C.ar   96  TYR96      -0.0009
     68  CE1      -50.6250  -18.3690   -3.2010 C.ar   96  TYR96       0.0417
     69  CE2      -50.2210  -19.7700   -1.2940 C.ar   96  TYR96       0.0417
     70  CZ       -49.7510  -19.1040   -2.4150 C.ar   96  TYR96       0.1957
     71  OH       -48.4090  -19.1450   -2.7090 O.3    96  TYR96      -0.2866
     72  N        -53.6940  -21.7030   -3.2350 N.am   97  MET97      -0.1977
     73  CA       -53.1430  -23.0350   -3.4540 C.3    97  MET97       0.1605
     74  C        -51.6190  -22.9260   -3.4050 C.2    97  MET97       0.2287
     75  O        -50.9910  -22.3820   -4.3230 O.2    97  MET97      -0.2864
     76  CB       -53.6850  -23.6180   -4.7680 C.3    97  MET97       0.0413
     77  CG       -55.2060  -23.5220   -4.8520 C.3    97  MET97       0.0598
     78  SD       -56.1000  -24.7570   -3.8680 S.3    97  MET97      -0.1393
     79  CE       -55.7800  -26.1440   -4.8890 C.3    97  MET97       0.0692
     80  N        -49.0190  -24.5070   -6.3280 N.3   100  GLY100     -0.1210
     81  CA       -49.2510  -24.1010   -7.7110 C.3   100  GLY100      0.1956
     82  C        -50.0280  -25.0750   -8.5680 C.2   100  GLY100      0.2612
     83  O        -51.0230  -25.6430   -8.1120 O.2   100  GLY100     -0.2717
     84  N        -49.5930  -25.2590   -9.8300 N.am  101  SER101     -0.1952
     85  CA       -50.2680  -26.1560  -10.7590 C.3   101  SER101      0.1924
     86  C        -49.5280  -27.4660  -10.9740 C.2   101  SER101      0.2314
     87  O        -48.3330  -27.5540  -10.7020 O.2   101  SER101     -0.2863
     88  CB       -50.5300  -25.4520  -12.0890 C.3   101  SER101      0.2116
     89  OG       -49.3240  -25.2190  -12.7940 O.3   101  SER101     -0.2180
     90  N        -48.8240  -28.7110  -13.8490 N.3   103  LEU103     -0.1231
     91  CA       -47.8880  -28.4000  -14.9310 C.3   103  LEU103      0.1693
     92  C        -46.5380  -27.9720  -14.3560 C.2   103  LEU103      0.2592
     93  O        -45.5100  -28.5670  -14.6920 O.2   103  LEU103     -0.2718
     94  CB       -48.4850  -27.2930  -15.8310 C.3   103  LEU103      0.0284
     95  CG       -47.6780  -26.8530  -17.0620 C.3   103  LEU103      0.0019
     96  CD1      -47.8210  -27.8370  -18.1940 C.3   103  LEU103      0.0001
     97  CD2      -48.1280  -25.4980  -17.5250 C.3   103  LEU103      0.0001
     98  N        -46.5540  -26.9730  -13.4510 N.am  104  ASP104     -0.1974
     99  CA       -45.3750  -26.4410  -12.7750 C.3   104  ASP104      0.1709
    100  C        -44.6770  -27.4990  -11.9270 C.2   104  ASP104      0.2293
    101  O        -43.4500  -27.5270  -11.9060 O.2   104  ASP104     -0.2864
    102  CB       -45.7560  -25.2400  -11.9010 C.3   104  ASP104      0.1436
    103  CG       -46.3460  -24.0440  -12.6260 C.2   104  ASP104      0.3671
    104  OD1      -46.8420  -23.1350  -11.9460 O.co2 104  ASP104     -0.2456
    105  OD2      -46.2960  -24.0150  -13.8720 O.co2 104  ASP104     -0.2456
    106  N        -40.5880  -26.6960  -11.8180 N.3   109  LEU109     -0.1231
    107  CA       -40.3800  -25.2610  -11.9030 C.3   109  LEU109      0.1693
    108  C        -39.9780  -24.6860  -10.5460 C.2   109  LEU109      0.2592
    109  O        -40.5370  -25.0700   -9.5090 O.2   109  LEU109     -0.2718
    110  CB       -41.6740  -24.6050  -12.4180 C.3   109  LEU109      0.0284
    111  CG       -41.6520  -23.1060  -12.7140 C.3   109  LEU109      0.0019
    112  CD1      -40.8660  -22.7890  -13.9740 C.3   109  LEU109      0.0001
    113  CD2      -43.0550  -22.5710  -12.8310 C.3   109  LEU109      0.0001
    114  N        -38.9690  -23.7950  -10.5660 N.am  110  ASP110     -0.1974
    115  CA       -38.4160  -23.0830   -9.4170 C.3   110  ASP110      0.1709
    116  C        -37.7890  -24.0230   -8.3720 C.2   110  ASP110      0.2293
    117  O        -37.8420  -23.7510   -7.1710 O.2   110  ASP110     -0.2864
    118  CB       -39.4500  -22.1070   -8.8020 C.3   110  ASP110      0.1436
    119  CG       -40.0170  -21.1120   -9.8060 C.2   110  ASP110      0.3671
    120  OD1      -39.2250  -20.5410  -10.5960 O.co2 110  ASP110     -0.2456
    121  OD2      -41.2510  -20.9070   -9.8080 O.co2 110  ASP110     -0.2456
    122  N        -52.3680  -27.2130  -16.3360 N.3   147  ALA147     -0.1231
    123  CA       -52.2510  -25.8210  -15.8990 C.3   147  ALA147      0.1694
    124  C        -53.4970  -25.4570  -15.0810 C.2   147  ALA147      0.2592
    125  O        -53.4410  -24.5590  -14.2450 O.2   147  ALA147     -0.2718
    126  CB       -52.1410  -24.8980  -17.1060 C.3   147  ALA147      0.0304
    127  N        -54.6260  -26.1520  -15.3370 N.am  148  ASN148     -0.1974
    128  CA       -55.8960  -25.9360  -14.6530 C.3   148  ASN148      0.1688
    129  C        -56.1550  -26.9530  -13.5370 C.2   148  ASN148      0.2292
    130  O        -57.2720  -27.0470  -13.0320 O.2   148  ASN148     -0.2864
    131  CB       -57.0570  -25.8680  -15.6510 C.3   148  ASN148      0.1181
    132  CG       -57.1120  -24.5780  -16.4350 C.2   148  ASN148      0.2629
    133  OD1      -56.5920  -23.5290  -16.0260 O.2   148  ASN148     -0.2716
    134  ND2      -57.7710  -24.6210  -17.5710 N.am  148  ASN148     -0.0877
    135  N        -54.7880  -27.4130   -9.9680 N.3   150  LEU150     -0.1245
    136  CA       -53.9890  -26.8090   -8.9100 C.3   150  LEU150      0.1561
    137  C        -53.8180  -27.7390   -7.7160 C.2   150  LEU150      0.2260
    138  O        -54.5620  -28.7190   -7.5720 O.2   150  LEU150     -0.2867
    139  CB       -54.5280  -25.4290   -8.5000 C.3   150  LEU150      0.0270
    140  CG       -54.9250  -24.4740   -9.6380 C.3   150  LEU150      0.0019
    141  CD1      -55.4810  -23.2180   -9.0830 C.3   150  LEU150      0.0001
    142  CD2      -53.7620  -24.1370  -10.5610 C.3   150  LEU150      0.0001
    143  N        -59.4940  -25.9620  -11.7440 N.3   160  SER160     -0.1202
    144  CA       -59.6920  -24.5160  -11.7810 C.3   160  SER160      0.2020
    145  C        -60.1610  -24.0060  -13.1470 C.2   160  SER160      0.2618
    146  O        -60.3370  -24.7990  -14.0640 O.2   160  SER160     -0.2717
    147  CB       -58.4260  -23.7910  -11.3410 C.3   160  SER160      0.2103
    148  OG       -57.3350  -24.1080  -12.1800 O.3   160  SER160     -0.2182
    149  N        -60.3690  -22.6750  -13.2620 N.am  161  ASP161     -0.1973
    150  CA       -60.7540  -21.9370  -14.4650 C.3   161  ASP161      0.1709
    151  C        -62.0300  -22.4780  -15.1280 C.2   161  ASP161      0.2293
    152  O        -61.9720  -23.3110  -16.0400 O.2   161  ASP161     -0.2864
    153  CB       -59.5730  -21.8560  -15.4530 C.3   161  ASP161      0.1436
    154  CG       -59.4430  -20.5310  -16.1830 C.2   161  ASP161      0.3671
    155  OD1      -60.4990  -19.9070  -16.4890 O.co2 161  ASP161     -0.2456
    156  OD2      -58.2870  -20.1350  -16.4920 O.co2 161  ASP161     -0.2456
@<TRIPOS>BOND
     1    96    95    1
     2   134   132   am
     3    97    95    1
     4   126   123    1
     5    95    94    1
     6   156   154   ar
     7   155   154   ar
     8   132   133    2
     9   132   131    1
    10   122   123    1
    11   154   153    1
    12   152   151    2
    13   123   124    1
    14    94    91    1
    15   131   128    1
    16   153   150    1
    17   127   124   am
    18   127   128    1
    19   151   150    1
    20   124   125    2
    21    91    92    1
    22    91    90    1
    23    93    92    2
    24   128   129    1
    25   150   149    1
    26    92    98   am
    27   146   145    2
    28    33    32    1
    29    11    12    2
    30    11    10    1
    31   112   111    1
    32   105   103   ar
    33    32    31    1
    34    31    30    1
    35   129   130    2
    36    98    99    1
    37   149   145   am
    38   145   144    1
    39    10     9    1
    40    30    29    1
    41   113   111    1
    42    89    88    1
    43    99   100    1
    44    99   102    1
    45   111   110    1
    46   103   104   ar
    47   103   102    1
    48   110   107    1
    49   148   147    1
    50    13    14    1
    51    19    17    1
    52    88    85    1
    53   100   101    2
    54   107   106    1
    55   107   108    1
    56   144   143    1
    57   144   147    1
    58     9     3   am
    59    29    26    1
    60    52    51    1
    61     4     3    2
    62    27    28    2
    63    27    26    1
    64    86    85    1
    65    86    87    2
    66    17    14    1
    67    17    18    1
    68    14    15    1
    69     3     2    1
    70    85    84    1
    71    26    25    1
    72   120   119   ar
    73   114   108   am
    74   114   115    1
    75   142   140    1
    76   108   109    2
    77   135   136    1
    78    16    15    2
    79    51    49   ar
    80    51    50   ar
    81    84    82   am
    82   121   119   ar
    83   119   118    1
    84   140   141    1
    85   140   139    1
    86   115   118    1
    87   115   116    1
    88     2     1    1
    89     2     5    1
    90    49    47   ar
    91    50    48   ar
    92   136   139    1
    93   136   137    1
    94     5     6    1
    95    82    83    2
    96    82    81    1
    97    40    38    1
    98   116   117    2
    99    47    46   ar
   100    48    46   ar
   101   137   138    2
   102    81    80    1
   103    39    38    1
   104    46    45    1
   105     6     7    1
   106    38    35    1
   107    34    35    1
   108     8     7    1
   109    37    36    2
   110    35    36    1
   111    24    21    1
   112    45    42    1
   113    22    23    2
   114    22    21    1
   115    21    20    1
   116    41    42    1
   117    79    78    1
   118    77    76    1
   119    77    78    1
   120    76    73    1
   121    42    43    1
   122    75    74    2
   123    56    55    2
   124    43    53   am
   125    43    44    2
   126    73    74    1
   127    73    72    1
   128    72    62   am
   129    68    66   ar
   130    68    70   ar
   131    53    54    1
   132    66    65   ar
   133    71    70    1
   134    55    54    1
   135    55    60   am
   136    70    69   ar
   137    61    62    1
   138    61    60    1
   139    61    64    1
   140    62    63    2
   141    54    57    1
   142    65    64    1
   143    65    67   ar
   144    57    59    1
   145    57    58    1
   146    69    67   ar
