@<TRIPOS>MOLECULE
tmp/5k77A00.pdb
 196 188 0 0 0
SMALL
GASTEIGER

@<TRIPOS>ATOM
      1  N          7.2400  -26.3490  -21.3350 N.3    12  HIS12      -0.1241
      2  CA         7.9250  -25.4500  -22.2680 C.3    12  HIS12       0.1621
      3  C          9.4150  -25.3420  -21.9500 C.2    12  HIS12       0.2264
      4  O         10.0000  -24.2580  -21.9750 O.2    12  HIS12      -0.2867
      5  CB         7.2690  -24.0680  -22.2890 C.3    12  HIS12       0.0745
      6  CG         5.9620  -24.0330  -23.0180 C.ar   12  HIS12       0.0817
      7  ND1        5.8620  -24.2420  -24.3770 N.ar   12  HIS12      -0.2268
      8  CD2        4.7010  -23.8110  -22.5780 C.ar   12  HIS12       0.1154
      9  CE1        4.5960  -24.1520  -24.7430 C.ar   12  HIS12       0.1986
     10  NE2        3.8710  -23.8920  -23.6700 N.ar   12  HIS12      -0.2212
     11  N         11.1880  -25.8570  -19.1380 N.3    14  LYS14      -0.1245
     12  CA        11.6420  -25.3550  -17.8410 C.3    14  LYS14       0.1561
     13  C         11.5530  -26.4720  -16.8040 C.2    14  LYS14       0.2260
     14  O         10.7700  -26.4210  -15.8540 O.2    14  LYS14      -0.2867
     15  CB        10.8250  -24.1220  -17.4300 C.3    14  LYS14       0.0271
     16  CG        11.1480  -22.8870  -18.2620 C.3    14  LYS14       0.0035
     17  CD        10.5660  -21.6180  -17.6590 C.3    14  LYS14       0.0206
     18  CE         9.1210  -21.4150  -18.0730 C.3    14  LYS14       0.1093
     19  NZ         8.9860  -21.2340  -19.5470 N.3    14  LYS14      -0.1314
     20  N          9.0410  -30.0170  -25.0780 N.3    43  GLN43      -0.1245
     21  CA        10.2270  -29.5050  -25.7650 C.3    43  GLN43       0.1566
     22  C         11.4680  -30.3210  -25.3930 C.2    43  GLN43       0.2260
     23  O         12.4590  -29.8030  -24.8750 O.2    43  GLN43      -0.2867
     24  CB        10.4330  -28.0140  -25.4690 C.3    43  GLN43       0.0367
     25  CG         9.2130  -27.1580  -25.7550 C.3    43  GLN43       0.0905
     26  CD         9.4880  -25.6710  -25.6100 C.2    43  GLN43       0.2608
     27  OE1        8.5640  -24.8590  -25.5900 O.2    43  GLN43      -0.2717
     28  NE2       10.7640  -25.3080  -25.5140 N.am   43  GLN43      -0.0878
     29  N          8.0040  -26.2690  -33.5270 N.3    55  LYS55      -0.1231
     30  CA         7.0860  -25.3400  -34.1900 C.3    55  LYS55       0.1693
     31  C          6.5680  -24.3560  -33.1460 C.2    55  LYS55       0.2592
     32  O          5.6040  -24.6230  -32.4260 O.2    55  LYS55      -0.2718
     33  CB         5.9560  -26.1000  -34.8760 C.3    55  LYS55       0.0285
     34  CG         4.7850  -25.2320  -35.3250 C.3    55  LYS55       0.0035
     35  CD         5.2000  -24.1860  -36.3410 C.3    55  LYS55       0.0206
     36  CE         4.1320  -23.1100  -36.4730 C.3    55  LYS55       0.1093
     37  NZ         2.7670  -23.6950  -36.5930 N.3    55  LYS55      -0.1314
     38  N          7.2310  -23.2070  -33.0560 N.am   56  VAL56      -0.1966
     39  CA         6.8500  -22.1280  -32.1470 C.3    56  VAL56       0.1712
     40  C          7.1570  -20.8070  -32.8420 C.2    56  VAL56       0.2458
     41  O          7.9260  -20.7940  -33.8140 O.2    56  VAL56      -0.2730
     42  CB         7.5910  -22.2250  -30.8020 C.3    56  VAL56       0.0289
     43  CG1        7.0820  -23.3990  -29.9740 C.3    56  VAL56       0.0023
     44  CG2        9.0910  -22.3260  -31.0310 C.3    56  VAL56       0.0023
     45  N          6.5860  -19.6870  -32.4030 N.am   57  PRO57      -0.2727
     46  CA         6.9950  -18.3850  -32.9440 C.3    57  PRO57       0.1402
     47  C          8.4680  -18.1320  -32.6800 C.2    57  PRO57       0.2269
     48  O          9.0450  -18.7160  -31.7500 O.2    57  PRO57      -0.2865
     49  CB         6.1060  -17.3850  -32.1850 C.3    57  PRO57       0.0296
     50  CG         5.5650  -18.1420  -31.0140 C.3    57  PRO57       0.0237
     51  CD         5.4600  -19.5610  -31.4630 C.3    57  PRO57       0.0939
     52  N         10.3400  -16.0310  -31.1770 N.3    59  LYS59      -0.1231
     53  CA        10.8020  -15.6540  -29.8450 C.3    59  LYS59       0.1693
     54  C         10.9500  -16.8470  -28.9070 C.2    59  LYS59       0.2592
     55  O         11.6620  -16.7420  -27.9020 O.2    59  LYS59      -0.2718
     56  CB         9.8420  -14.6320  -29.2300 C.3    59  LYS59       0.0285
     57  CG         8.4040  -15.1190  -29.1430 C.3    59  LYS59       0.0035
     58  CD         7.4900  -14.0800  -28.5140 C.3    59  LYS59       0.0206
     59  CE         7.8040  -13.8870  -27.0410 C.3    59  LYS59       0.1093
     60  NZ         6.7950  -13.0250  -26.3680 N.3    59  LYS59      -0.1314
     61  N         10.3040  -17.9740  -29.2020 N.am   60  TYR60      -0.1976
     62  CA        10.3350  -19.1320  -28.3170 C.3    60  TYR60       0.1639
     63  C         11.2290  -20.2580  -28.8280 C.2    60  TYR60       0.2290
     64  O         11.2010  -21.3590  -28.2670 O.2    60  TYR60      -0.2864
     65  CB         8.9160  -19.6510  -28.0810 C.3    60  TYR60       0.0560
     66  CG         8.0640  -18.7240  -27.2400 C.ar   60  TYR60      -0.0198
     67  CD1        8.4100  -18.4340  -25.9270 C.ar   60  TYR60      -0.0009
     68  CD2        6.9100  -18.1480  -27.7550 C.ar   60  TYR60      -0.0009
     69  CE1        7.6350  -17.5900  -25.1520 C.ar   60  TYR60       0.0417
     70  CE2        6.1280  -17.3040  -26.9880 C.ar   60  TYR60       0.0417
     71  CZ         6.4940  -17.0280  -25.6880 C.ar   60  TYR60       0.1957
     72  OH         5.7180  -16.1890  -24.9200 O.3    60  TYR60      -0.2866
     73  N         13.9150  -21.8340  -28.3030 N.3    62  GLN62      -0.1245
     74  CA        14.8760  -21.9590  -27.2180 C.3    62  GLN62       0.1566
     75  C         15.1370  -23.4290  -26.9250 C.2    62  GLN62       0.2260
     76  O         14.2370  -24.2670  -27.0270 O.2    62  GLN62      -0.2867
     77  CB        14.3730  -21.2560  -25.9520 C.3    62  GLN62       0.0367
     78  CG        14.1440  -19.7650  -26.1320 C.3    62  GLN62       0.0905
     79  CD        13.1830  -19.1970  -25.1100 C.2    62  GLN62       0.2608
     80  OE1       12.4710  -19.9370  -24.4310 O.2    62  GLN62      -0.2717
     81  NE2       13.1550  -17.8760  -24.9970 N.am   62  GLN62      -0.0878
     82  N          1.8180  -29.2530  -28.6950 N.3    86  ASN86      -0.1225
     83  CA         2.0920  -28.6280  -29.9810 C.3    86  ASN86       0.1785
     84  C          3.4870  -28.0230  -30.0640 C.2    86  ASN86       0.2597
     85  O          3.9400  -27.7020  -31.1670 O.2    86  ASN86      -0.2718
     86  CB         1.0490  -27.5450  -30.2750 C.3    86  ASN86       0.1169
     87  CG         0.9540  -26.5190  -29.1700 C.2    86  ASN86       0.2627
     88  OD1        0.3840  -26.7820  -28.1110 O.2    86  ASN86      -0.2716
     89  ND2        1.5140  -25.3380  -29.4070 N.am   86  ASN86      -0.0877
     90  N          4.1690  -27.8560  -28.9350 N.am   87  ALA87      -0.1979
     91  CA         5.5320  -27.3290  -28.8830 C.3    87  ALA87       0.1597
     92  C          6.4370  -28.4690  -28.4240 C.2    87  ALA87       0.2287
     93  O          6.6820  -28.6470  -27.2290 O.2    87  ALA87      -0.2864
     94  CB         5.6240  -26.1250  -27.9500 C.3    87  ALA87       0.0319
     95  N         -2.5220  -31.6350  -30.5800 N.3   128  ILE128     -0.1245
     96  CA        -3.6870  -30.7630  -30.6210 C.3   128  ILE128      0.1561
     97  C         -4.4120  -30.9920  -31.9400 C.2   128  ILE128      0.2260
     98  O         -3.8270  -31.4280  -32.9330 O.2   128  ILE128     -0.2867
     99  CB        -3.3300  -29.2690  -30.4570 C.3   128  ILE128      0.0252
    100  CG1       -2.5920  -28.7480  -31.6900 C.3   128  ILE128      0.0019
    101  CG2       -2.5030  -29.0550  -29.2040 C.3   128  ILE128      0.0019
    102  CD1       -2.4050  -27.2440  -31.6890 C.3   128  ILE128      0.0001
    103  N         -6.3270  -30.4190  -35.3940 N.3   130  LYS130     -0.1245
    104  CA        -6.5530  -29.6190  -36.5900 C.3   130  LYS130      0.1561
    105  C         -7.2710  -30.5030  -37.5970 C.2   130  LYS130      0.2260
    106  O         -6.7970  -31.6010  -37.9060 O.2   130  LYS130     -0.2867
    107  CB        -5.2420  -29.0820  -37.1780 C.3   130  LYS130      0.0271
    108  CG        -4.6200  -27.9470  -36.3790 C.3   130  LYS130      0.0035
    109  CD        -5.5300  -26.7280  -36.3540 C.3   130  LYS130      0.0206
    110  CE        -4.9340  -25.6090  -35.5140 C.3   130  LYS130      0.1093
    111  NZ        -5.7850  -24.3870  -35.5350 N.3   130  LYS130     -0.1314
    112  N         -7.7510  -30.4300  -40.7820 N.3   132  PHE132     -0.1241
    113  CA        -7.1350  -30.7380  -42.0670 C.3   132  PHE132      0.1605
    114  C         -6.0130  -31.7650  -41.9630 C.2   132  PHE132      0.2264
    115  O         -5.5090  -32.2050  -43.0010 O.2   132  PHE132     -0.2867
    116  CB        -6.6100  -29.4580  -42.7280 C.3   132  PHE132      0.0534
    117  CG        -5.6380  -28.6780  -41.8810 C.ar  132  PHE132     -0.0203
    118  CD1       -6.0520  -27.5460  -41.1950 C.ar  132  PHE132     -0.0042
    119  CD2       -4.3090  -29.0650  -41.7840 C.ar  132  PHE132     -0.0042
    120  CE1       -5.1630  -26.8220  -40.4210 C.ar  132  PHE132     -0.0003
    121  CE2       -3.4170  -28.3480  -41.0100 C.ar  132  PHE132     -0.0003
    122  CZ        -3.8430  -27.2240  -40.3280 C.ar  132  PHE132     -0.0000
    123  N          5.2200  -28.7440  -39.2460 N.3   148  VAL148     -0.1245
    124  CA         3.9280  -28.1030  -39.0150 C.3   148  VAL148      0.1561
    125  C          2.7960  -29.0860  -38.7660 C.2   148  VAL148      0.2260
    126  O          1.7250  -28.6700  -38.3100 O.2   148  VAL148     -0.2867
    127  CB         3.5530  -27.2060  -40.2100 C.3   148  VAL148      0.0252
    128  CG1        4.5880  -26.1070  -40.3940 C.3   148  VAL148      0.0019
    129  CG2        3.4220  -28.0410  -41.4780 C.3   148  VAL148      0.0019
    130  N          2.5580  -32.7380  -34.8710 N.3   151  PHE151     -0.1227
    131  CA         1.9310  -32.6640  -33.5570 C.3   151  PHE151      0.1736
    132  C          0.4090  -32.6020  -33.6200 C.2   151  PHE151      0.2595
    133  O         -0.2330  -32.4010  -32.5860 O.2   151  PHE151     -0.2718
    134  CB         2.4720  -31.4590  -32.7780 C.3   151  PHE151      0.0547
    135  CG         2.2610  -30.1390  -33.4680 C.ar  151  PHE151     -0.0202
    136  CD1        1.0790  -29.4330  -33.3030 C.ar  151  PHE151     -0.0042
    137  CD2        3.2520  -29.5970  -34.2710 C.ar  151  PHE151     -0.0042
    138  CE1        0.8860  -28.2160  -33.9330 C.ar  151  PHE151     -0.0003
    139  CE2        3.0640  -28.3800  -34.9050 C.ar  151  PHE151     -0.0003
    140  CZ         1.8790  -27.6890  -34.7340 C.ar  151  PHE151     -0.0000
    141  N         -0.1850  -32.7700  -34.7980 N.am  152  HIS152     -0.1975
    142  CA        -1.6360  -32.7260  -34.9160 C.3   152  HIS152      0.1656
    143  C         -2.2350  -34.0890  -34.5890 C.2   152  HIS152      0.2291
    144  O         -1.8130  -35.1110  -35.1380 O.2   152  HIS152     -0.2864
    145  CB        -2.0400  -32.2820  -36.3190 C.3   152  HIS152      0.0771
    146  CG        -1.7240  -30.8490  -36.6080 C.ar  152  HIS152      0.0820
    147  ND1       -1.4700  -30.3830  -37.8790 N.ar  152  HIS152     -0.2267
    148  CD2       -1.6210  -29.7770  -35.7860 C.ar  152  HIS152      0.1154
    149  CE1       -1.2260  -29.0850  -37.8290 C.ar  152  HIS152      0.1986
    150  NE2       -1.3110  -28.6930  -36.5710 N.ar  152  HIS152     -0.2212
    151  N        -15.4770  -16.0470  -27.7590 N.3   200  LYS200     -0.1231
    152  CA       -15.9190  -16.0670  -29.1510 C.3   200  LYS200      0.1693
    153  C        -15.9860  -17.4850  -29.7030 C.2   200  LYS200      0.2592
    154  O        -16.7810  -17.7600  -30.6090 O.2   200  LYS200     -0.2718
    155  CB       -14.9910  -15.2030  -30.0050 C.3   200  LYS200      0.0285
    156  CG       -13.5170  -15.5460  -29.8560 C.3   200  LYS200      0.0035
    157  CD       -12.6360  -14.5390  -30.5780 C.3   200  LYS200      0.0206
    158  CE       -11.1620  -14.8270  -30.3420 C.3   200  LYS200      0.1093
    159  NZ       -10.7700  -16.1720  -30.8470 N.3   200  LYS200     -0.1314
    160  N        -15.1680  -18.3950  -29.1740 N.am  201  ASP201     -0.1974
    161  CA       -15.1860  -19.7770  -29.6330 C.3   201  ASP201      0.1709
    162  C        -16.3720  -20.5610  -29.0860 C.2   201  ASP201      0.2293
    163  O        -16.7630  -21.5660  -29.6900 O.2   201  ASP201     -0.2864
    164  CB       -13.8770  -20.4700  -29.2490 C.3   201  ASP201      0.1436
    165  CG       -12.6630  -19.7990  -29.8650 C.2   201  ASP201      0.3671
    166  OD1      -12.7540  -19.3570  -31.0300 O.co2 201  ASP201     -0.2456
    167  OD2      -11.6200  -19.7070  -29.1830 O.co2 201  ASP201     -0.2456
    168  N         -2.3680  -26.6870  -22.2980 N.3   226  HIS226     -0.1241
    169  CA        -2.4150  -25.9090  -23.5330 C.3   226  HIS226      0.1621
    170  C         -2.8870  -24.4710  -23.3360 C.2   226  HIS226      0.2264
    171  O         -2.2770  -23.5460  -23.8770 O.2   226  HIS226     -0.2867
    172  CB        -3.3010  -26.6070  -24.5730 C.3   226  HIS226      0.0745
    173  CG        -3.1800  -26.0350  -25.9520 C.ar  226  HIS226      0.0817
    174  ND1       -1.9720  -25.6580  -26.4990 N.ar  226  HIS226     -0.2268
    175  CD2       -4.1160  -25.7820  -26.8980 C.ar  226  HIS226      0.1154
    176  CE1       -2.1700  -25.1950  -27.7200 C.ar  226  HIS226      0.1986
    177  NE2       -3.4610  -25.2600  -27.9870 N.ar  226  HIS226     -0.2212
    178  N         -3.0060  -22.4480  -20.7290 N.3   228  HIS228     -0.1241
    179  CA        -2.2520  -21.5830  -19.8140 C.3   228  HIS228      0.1621
    180  C         -3.1500  -20.9390  -18.7590 C.2   228  HIS228      0.2264
    181  O         -3.0150  -19.7550  -18.4450 O.2   228  HIS228     -0.2867
    182  CB        -1.4780  -20.5080  -20.5810 C.3   228  HIS228      0.0745
    183  CG        -0.4280  -21.0550  -21.4940 C.ar  228  HIS228      0.0817
    184  ND1        0.1820  -20.2900  -22.4650 N.ar  228  HIS228     -0.2268
    185  CD2        0.1240  -22.2880  -21.5840 C.ar  228  HIS228      0.1154
    186  CE1        1.0660  -21.0280  -23.1120 C.ar  228  HIS228      0.1986
    187  NE2        1.0480  -22.2450  -22.5990 N.ar  228  HIS228     -0.2212
    188  N          0.9210  -23.0310  -17.2280 N.3   245  LYS245     -0.1245
    189  CA         2.2670  -23.3840  -17.6550 C.3   245  LYS245      0.1561
    190  C          3.2850  -23.0420  -16.5740 C.2   245  LYS245      0.2260
    191  O          3.1010  -22.1000  -15.7970 O.2   245  LYS245     -0.2867
    192  CB         2.6470  -22.6930  -18.9760 C.3   245  LYS245      0.0271
    193  CG         2.7400  -21.1800  -18.9410 C.3   245  LYS245      0.0035
    194  CD         3.3530  -20.6840  -20.2460 C.3   245  LYS245      0.0206
    195  CE         3.2120  -19.1840  -20.4190 C.3   245  LYS245      0.1093
    196  NZ         3.8180  -18.7290  -21.7030 N.3   245  LYS245     -0.1314
@<TRIPOS>BOND
     1   115   114    2
     2   116   113    1
     3   116   117    1
     4   113   114    1
     5   113   112    1
     6   117   119   ar
     7   117   118   ar
     8   119   121   ar
     9   129   127    1
    10   118   120   ar
    11   121   122   ar
    12   120   122   ar
    13   128   127    1
    14   127   124    1
    15   123   124    1
    16   124   125    1
    17   125   126    2
    18   106   105    2
    19   147   149   ar
    20   147   146   ar
    21   149   150   ar
    22   105   104    1
    23   107   104    1
    24   107   108    1
    25   146   145    1
    26   146   148   ar
    27    37    36    1
    28   104   103    1
    29   150   148   ar
    30    36    35    1
    31   108   109    1
    32   109   110    1
    33    35    34    1
    34   145   142    1
    35   111   110    1
    36    34    33    1
    37   144   143    2
    38   142   141    1
    39   142   143    1
    40   139   140   ar
    41   139   137   ar
    42    33    30    1
    43   130   131    1
    44   141   132   am
    45   140   138   ar
    46   137   135   ar
    47    30    29    1
    48    30    31    1
    49   138   136   ar
    50    41    40    2
    51   132   131    1
    52   132   133    2
    53   131   134    1
    54   135   136   ar
    55   135   134    1
    56    31    38   am
    57    31    32    2
    58    38    39    1
    59    46    47    1
    60    46    45    1
    61    46    49    1
    62    98    97    2
    63    40    45   am
    64    40    39    1
    65    47    48    2
    66    45    51    1
    67    49    50    1
    68    39    42    1
    69    97    96    1
    70   100   102    1
    71   100    99    1
    72    51    50    1
    73    52    53    1
    74    85    84    2
    75    44    42    1
    76   166   165   ar
    77   159   158    1
    78    42    43    1
    79    96    95    1
    80    96    99    1
    81   154   153    2
    82   157   158    1
    83   157   156    1
    84    99   101    1
    85    86    83    1
    86    86    87    1
    87    84    83    1
    88    84    90   am
    89   155   156    1
    90   155   152    1
    91    83    82    1
    92   165   164    1
    93   165   167   ar
    94    53    56    1
    95    53    54    1
    96   153   160   am
    97   153   152    1
    98   163   162    2
    99   161   164    1
   100   161   160    1
   101   161   162    1
   102    89    87   am
   103    56    57    1
   104    61    54   am
   105    61    62    1
   106    87    88    2
   107   152   151    1
   108    57    58    1
   109    90    91    1
   110    54    55    2
   111    91    92    1
   112    91    94    1
   113    63    62    1
   114    63    64    2
   115    58    59    1
   116    92    93    2
   117    62    65    1
   118    73    74    1
   119    65    66    1
   120   177   176   ar
   121   177   175   ar
   122    68    66   ar
   123    68    70   ar
   124   176   174   ar
   125    66    67   ar
   126    74    75    1
   127    74    77    1
   128    59    60    1
   129    76    75    2
   130    70    71   ar
   131   175   173   ar
   132   174   173   ar
   133    78    77    1
   134    78    79    1
   135   173   172    1
   136    67    69   ar
   137    21    24    1
   138    21    22    1
   139    21    20    1
   140    25    26    1
   141    25    24    1
   142    71    69   ar
   143    71    72    1
   144    26    27    2
   145    26    28   am
   146    22    23    2
   147    79    81   am
   148    79    80    2
   149     9     7   ar
   150     9    10   ar
   151   172   169    1
   152     7     6   ar
   153   171   170    2
   154    10     8   ar
   155   169   170    1
   156   169   168    1
   157   186   187   ar
   158   186   184   ar
   159     6     8   ar
   160     6     5    1
   161   187   185   ar
   162   184   183   ar
   163     5     2    1
   164     2     3    1
   165     2     1    1
   166     4     3    2
   167   196   195    1
   168   185   183   ar
   169   183   182    1
   170   178   179    1
   171   182   179    1
   172   195   194    1
   173   194   193    1
   174   179   180    1
   175    19    18    1
   176    11    12    1
   177   192   193    1
   178   192   189    1
   179   180   181    2
   180    16    17    1
   181    16    15    1
   182    18    17    1
   183    12    15    1
   184    12    13    1
   185   189   188    1
   186   189   190    1
   187    13    14    2
   188   190   191    2
