@<TRIPOS>MOLECULE
tmp/5k77A01.pdb
 130 125 0 0 0
SMALL
GASTEIGER

@<TRIPOS>ATOM
      1  N          7.2400  -26.3490  -21.3350 N.3    12  HIS12      -0.1241
      2  CA         7.9250  -25.4500  -22.2680 C.3    12  HIS12       0.1621
      3  C          9.4150  -25.3420  -21.9500 C.2    12  HIS12       0.2264
      4  O         10.0000  -24.2580  -21.9750 O.2    12  HIS12      -0.2867
      5  CB         7.2690  -24.0680  -22.2890 C.3    12  HIS12       0.0745
      6  CG         5.9620  -24.0330  -23.0180 C.ar   12  HIS12       0.0817
      7  ND1        5.8620  -24.2420  -24.3770 N.ar   12  HIS12      -0.2268
      8  CD2        4.7010  -23.8110  -22.5780 C.ar   12  HIS12       0.1154
      9  CE1        4.5960  -24.1520  -24.7430 C.ar   12  HIS12       0.1986
     10  NE2        3.8710  -23.8920  -23.6700 N.ar   12  HIS12      -0.2212
     11  N          3.6350  -30.0920  -24.2410 N.3    41  ASP41      -0.1239
     12  CA         4.5660  -29.0060  -24.5570 C.3    41  ASP41       0.1674
     13  C          5.8610  -29.1570  -23.7600 C.2    41  ASP41       0.2266
     14  O          6.2900  -28.2680  -23.0210 O.2    41  ASP41      -0.2867
     15  CB         3.9180  -27.6360  -24.3380 C.3    41  ASP41       0.1410
     16  CG         2.9100  -27.2940  -25.4240 C.2    41  ASP41       0.3668
     17  OD1        2.8650  -28.0220  -26.4400 O.co2  41  ASP41      -0.2456
     18  OD2        2.1630  -26.3050  -25.2660 O.co2  41  ASP41      -0.2456
     19  N          7.2310  -23.2070  -33.0560 N.3    56  VAL56      -0.1231
     20  CA         6.8500  -22.1280  -32.1470 C.3    56  VAL56       0.1678
     21  C          7.1570  -20.8070  -32.8420 C.2    56  VAL56       0.2434
     22  O          7.9260  -20.7940  -33.8140 O.2    56  VAL56      -0.2733
     23  CB         7.5910  -22.2250  -30.8020 C.3    56  VAL56       0.0265
     24  CG1        7.0820  -23.3990  -29.9740 C.3    56  VAL56       0.0020
     25  CG2        9.0910  -22.3260  -31.0310 C.3    56  VAL56       0.0020
     26  N          6.5860  -19.6870  -32.4030 N.am   57  PRO57      -0.2729
     27  CA         6.9950  -18.3850  -32.9440 C.3    57  PRO57       0.1401
     28  C          8.4680  -18.1320  -32.6800 C.2    57  PRO57       0.2269
     29  O          9.0450  -18.7160  -31.7500 O.2    57  PRO57      -0.2865
     30  CB         6.1060  -17.3850  -32.1850 C.3    57  PRO57       0.0296
     31  CG         5.5650  -18.1420  -31.0140 C.3    57  PRO57       0.0237
     32  CD         5.4600  -19.5610  -31.4630 C.3    57  PRO57       0.0939
     33  N          1.8180  -29.2530  -28.6950 N.3    86  ASN86      -0.1240
     34  CA         2.0920  -28.6280  -29.9810 C.3    86  ASN86       0.1653
     35  C          3.4870  -28.0230  -30.0640 C.2    86  ASN86       0.2266
     36  O          3.9400  -27.7020  -31.1670 O.2    86  ASN86      -0.2867
     37  CB         1.0490  -27.5450  -30.2750 C.3    86  ASN86       0.1155
     38  CG         0.9540  -26.5190  -29.1700 C.2    86  ASN86       0.2627
     39  OD1        0.3840  -26.7820  -28.1110 O.2    86  ASN86      -0.2716
     40  ND2        1.5140  -25.3380  -29.4070 N.am   86  ASN86      -0.0877
     41  N        -10.0920  -14.6840  -19.2570 N.3   195  GLN195     -0.1245
     42  CA        -9.6110  -15.0410  -20.5910 C.3   195  GLN195      0.1566
     43  C        -10.6740  -14.6250  -21.5980 C.2   195  GLN195      0.2260
     44  O        -11.4030  -15.4720  -22.1330 O.2   195  GLN195     -0.2867
     45  CB        -9.3140  -16.5380  -20.6930 C.3   195  GLN195      0.0367
     46  CG        -8.5690  -17.1300  -19.5030 C.3   195  GLN195      0.0905
     47  CD        -7.1070  -16.7320  -19.4610 C.2   195  GLN195      0.2608
     48  OE1       -6.5620  -16.2190  -20.4390 O.2   195  GLN195     -0.2717
     49  NE2       -6.4630  -16.9680  -18.3240 N.am  195  GLN195     -0.0878
     50  N        -10.6550  -13.8770  -24.6200 N.3   197  GLY197     -0.1210
     51  CA       -10.5500  -14.4100  -25.9660 C.3   197  GLY197      0.1956
     52  C        -11.2250  -15.7520  -26.1580 C.2   197  GLY197      0.2611
     53  O        -11.4660  -16.1540  -27.3020 O.2   197  GLY197     -0.2717
     54  N        -11.5400  -16.4550  -25.0680 N.am  198  PHE198     -0.1976
     55  CA       -12.1540  -17.7720  -25.1810 C.3   198  PHE198      0.1639
     56  C        -13.6380  -17.7020  -25.5130 C.2   198  PHE198      0.2290
     57  O        -14.2000  -18.6960  -25.9870 O.2   198  PHE198     -0.2864
     58  CB       -11.9810  -18.5680  -23.8820 C.3   198  PHE198      0.0560
     59  CG       -10.5480  -18.8660  -23.5200 C.ar  198  PHE198     -0.0200
     60  CD1       -9.5040  -18.5320  -24.3690 C.ar  198  PHE198     -0.0042
     61  CD2      -10.2520  -19.4980  -22.3230 C.ar  198  PHE198     -0.0042
     62  CE1       -8.1950  -18.8080  -24.0230 C.ar  198  PHE198     -0.0003
     63  CE2       -8.9470  -19.7820  -21.9750 C.ar  198  PHE198     -0.0003
     64  CZ        -7.9170  -19.4350  -22.8250 C.ar  198  PHE198     -0.0000
     65  N        -15.4770  -16.0470  -27.7590 N.3   200  LYS200     -0.1231
     66  CA       -15.9190  -16.0670  -29.1510 C.3   200  LYS200      0.1693
     67  C        -15.9860  -17.4850  -29.7030 C.2   200  LYS200      0.2592
     68  O        -16.7810  -17.7600  -30.6090 O.2   200  LYS200     -0.2718
     69  CB       -14.9910  -15.2030  -30.0050 C.3   200  LYS200      0.0285
     70  CG       -13.5170  -15.5460  -29.8560 C.3   200  LYS200      0.0035
     71  CD       -12.6360  -14.5390  -30.5780 C.3   200  LYS200      0.0206
     72  CE       -11.1620  -14.8270  -30.3420 C.3   200  LYS200      0.1093
     73  NZ       -10.7700  -16.1720  -30.8470 N.3   200  LYS200     -0.1314
     74  N        -15.1680  -18.3950  -29.1740 N.am  201  ASP201     -0.1974
     75  CA       -15.1860  -19.7770  -29.6330 C.3   201  ASP201      0.1709
     76  C        -16.3720  -20.5610  -29.0860 C.2   201  ASP201      0.2293
     77  O        -16.7630  -21.5660  -29.6900 O.2   201  ASP201     -0.2864
     78  CB       -13.8770  -20.4700  -29.2490 C.3   201  ASP201      0.1436
     79  CG       -12.6630  -19.7990  -29.8650 C.2   201  ASP201      0.3671
     80  OD1      -12.7540  -19.3570  -31.0300 O.co2 201  ASP201     -0.2456
     81  OD2      -11.6200  -19.7070  -29.1830 O.co2 201  ASP201     -0.2456
     82  N        -14.7860  -24.6030  -28.3940 N.3   205  LEU205     -0.1231
     83  CA       -13.4330  -24.5590  -27.8550 C.3   205  LEU205      0.1693
     84  C        -12.9470  -25.9580  -27.4950 C.2   205  LEU205      0.2592
     85  O        -13.6080  -26.6850  -26.7470 O.2   205  LEU205     -0.2718
     86  CB       -13.3990  -23.6570  -26.6220 C.3   205  LEU205      0.0284
     87  CG       -12.0550  -23.4400  -25.9280 C.3   205  LEU205      0.0019
     88  CD1      -11.1760  -22.5290  -26.7610 C.3   205  LEU205      0.0001
     89  CD2      -12.2570  -22.8670  -24.5360 C.3   205  LEU205      0.0001
     90  N        -11.7960  -26.3360  -28.0320 N.am  206  GLY206     -0.1957
     91  CA       -11.1580  -27.5910  -27.6870 C.3   206  GLY206      0.1869
     92  C        -11.1930  -28.5960  -28.8260 C.2   206  GLY206      0.2309
     93  O        -11.6370  -28.3150  -29.9420 O.2   206  GLY206     -0.2863
     94  N         -2.3680  -26.6870  -22.2980 N.3   226  HIS226     -0.1226
     95  CA        -2.4150  -25.9090  -23.5330 C.3   226  HIS226      0.1752
     96  C         -2.8870  -24.4710  -23.3360 C.2   226  HIS226      0.2596
     97  O         -2.2770  -23.5460  -23.8770 O.2   226  HIS226     -0.2718
     98  CB        -3.3010  -26.6070  -24.5730 C.3   226  HIS226      0.0759
     99  CG        -3.1800  -26.0350  -25.9520 C.ar  226  HIS226      0.0818
    100  ND1       -1.9720  -25.6580  -26.4990 N.ar  226  HIS226     -0.2268
    101  CD2       -4.1160  -25.7820  -26.8980 C.ar  226  HIS226      0.1154
    102  CE1       -2.1700  -25.1950  -27.7200 C.ar  226  HIS226      0.1986
    103  NE2       -3.4610  -25.2600  -27.9870 N.ar  226  HIS226     -0.2212
    104  N         -3.9600  -24.2570  -22.5780 N.am  227  MET227     -0.1965
    105  CA        -4.6030  -22.9490  -22.5330 C.3   227  MET227      0.1736
    106  C         -3.9830  -21.9940  -21.5180 C.2   227  MET227      0.2616
    107  O         -4.4050  -20.8350  -21.4510 O.2   227  MET227     -0.2715
    108  CB        -6.1000  -23.1110  -22.2460 C.3   227  MET227      0.0427
    109  CG        -6.8120  -24.0490  -23.2150 C.3   227  MET227      0.0599
    110  SD        -6.7630  -23.5150  -24.9380 S.3   227  MET227     -0.1393
    111  CE        -8.0040  -22.2270  -24.9280 C.3   227  MET227      0.0692
    112  N         -3.0060  -22.4480  -20.7290 N.am  228  HIS228     -0.1973
    113  CA        -2.2520  -21.5830  -19.8140 C.3   228  HIS228      0.1656
    114  C         -3.1500  -20.9390  -18.7590 C.2   228  HIS228      0.2291
    115  O         -3.0150  -19.7550  -18.4450 O.2   228  HIS228     -0.2864
    116  CB        -1.4780  -20.5080  -20.5810 C.3   228  HIS228      0.0771
    117  CG        -0.4280  -21.0550  -21.4940 C.ar  228  HIS228      0.0820
    118  ND1        0.1820  -20.2900  -22.4650 N.ar  228  HIS228     -0.2267
    119  CD2        0.1240  -22.2880  -21.5840 C.ar  228  HIS228      0.1154
    120  CE1        1.0660  -21.0280  -23.1120 C.ar  228  HIS228      0.1986
    121  NE2        1.0480  -22.2450  -22.5990 N.ar  228  HIS228     -0.2212
    122  N          0.9210  -23.0310  -17.2280 N.3   245  LYS245     -0.1245
    123  CA         2.2670  -23.3840  -17.6550 C.3   245  LYS245      0.1561
    124  C          3.2850  -23.0420  -16.5740 C.2   245  LYS245      0.2260
    125  O          3.1010  -22.1000  -15.7970 O.2   245  LYS245     -0.2867
    126  CB         2.6470  -22.6930  -18.9760 C.3   245  LYS245      0.0271
    127  CG         2.7400  -21.1800  -18.9410 C.3   245  LYS245      0.0035
    128  CD         3.3530  -20.6840  -20.2460 C.3   245  LYS245      0.0206
    129  CE         3.2120  -19.1840  -20.4190 C.3   245  LYS245      0.1093
    130  NZ         3.8180  -18.7290  -21.7030 N.3   245  LYS245     -0.1314
@<TRIPOS>BOND
     1    22    21    2
     2    19    20    1
     3    27    28    1
     4    27    26    1
     5    27    30    1
     6    21    26   am
     7    21    20    1
     8    28    29    2
     9    26    32    1
    10    30    31    1
    11    20    23    1
    12    32    31    1
    13    36    35    2
    14    25    23    1
    15    80    79   ar
    16    73    72    1
    17    23    24    1
    18    68    67    2
    19    71    72    1
    20    71    70    1
    21    37    34    1
    22    37    38    1
    23    35    34    1
    24    69    70    1
    25    69    66    1
    26    34    33    1
    27    93    92    2
    28    79    78    1
    29    79    81   ar
    30    67    74   am
    31    67    66    1
    32    77    76    2
    33    75    78    1
    34    75    74    1
    35    75    76    1
    36    40    38   am
    37    38    39    2
    38    66    65    1
    39    92    91    1
    40    82    83    1
    41    90    91    1
    42    90    84   am
    43   103   102   ar
    44   103   101   ar
    45    83    84    1
    46    83    86    1
    47   102   100   ar
    48    84    85    2
    49    53    52    2
    50   101    99   ar
    51    88    87    1
    52    86    87    1
    53   100    99   ar
    54    17    16   ar
    55    52    51    1
    56    52    54   am
    57    57    56    2
    58    51    50    1
    59    99    98    1
    60    87    89    1
    61    56    55    1
    62    16    18   ar
    63    16    15    1
    64    55    54    1
    65    55    58    1
    66   110   111    1
    67   110   109    1
    68     9     7   ar
    69     9    10   ar
    70    98    95    1
    71    12    15    1
    72    12    11    1
    73    12    13    1
    74     7     6   ar
    75    60    62   ar
    76    60    59   ar
    77    62    64   ar
    78    58    59    1
    79    97    96    2
    80    13    14    2
    81    10     8   ar
    82    95    96    1
    83    95    94    1
    84    59    61   ar
    85    96   104   am
    86   109   108    1
    87   120   121   ar
    88   120   118   ar
    89     6     8   ar
    90     6     5    1
    91    64    63   ar
    92   121   119   ar
    93   104   105    1
    94   105   108    1
    95   105   106    1
    96   118   117   ar
    97    61    63   ar
    98     5     2    1
    99     2     3    1
   100     2     1    1
   101    44    43    2
   102     4     3    2
   103   130   129    1
   104    43    42    1
   105   119   117   ar
   106   106   107    2
   107   106   112   am
   108   117   116    1
   109   112   113    1
   110    45    42    1
   111    45    46    1
   112    42    41    1
   113   116   113    1
   114    48    47    2
   115   129   128    1
   116   128   127    1
   117   113   114    1
   118    46    47    1
   119    47    49   am
   120   126   127    1
   121   126   123    1
   122   114   115    2
   123   123   122    1
   124   123   124    1
   125   124   125    2
