@<TRIPOS>MOLECULE
tmp/5k78D00.pdb
 182 176 0 0 0
SMALL
GASTEIGER

@<TRIPOS>ATOM
      1  N         48.8240  -69.8520  -67.5240 N.3    12  HIS12      -0.1241
      2  CA        48.8130  -68.8890  -68.6280 C.3    12  HIS12       0.1621
      3  C         50.2060  -68.6950  -69.2240 C.2    12  HIS12       0.2264
      4  O         50.6360  -67.5750  -69.5050 O.2    12  HIS12      -0.2867
      5  CB        48.2190  -67.5500  -68.1870 C.3    12  HIS12       0.0745
      6  CG        46.7260  -67.5560  -68.0800 C.ar   12  HIS12       0.0817
      7  ND1       45.9010  -67.5470  -69.1840 N.ar   12  HIS12      -0.2268
      8  CD2       45.9080  -67.5620  -67.0000 C.ar   12  HIS12       0.1154
      9  CE1       44.6400  -67.5510  -68.7900 C.ar   12  HIS12       0.1986
     10  NE2       44.6160  -67.5610  -67.4700 N.ar   12  HIS12      -0.2212
     11  N         53.1390  -68.9290  -67.9850 N.3    14  LYS14      -0.1245
     12  CA        54.2050  -68.4350  -67.1130 C.3    14  LYS14       0.1561
     13  C         54.8240  -69.5920  -66.3290 C.2    14  LYS14       0.2260
     14  O         54.8140  -69.6340  -65.0980 O.2    14  LYS14      -0.2867
     15  CB        53.6600  -67.3590  -66.1790 C.3    14  LYS14       0.0271
     16  CG        53.3230  -66.0450  -66.8700 C.3    14  LYS14       0.0035
     17  CD        52.7860  -65.0230  -65.8800 C.3    14  LYS14       0.0206
     18  CE        52.3810  -63.7340  -66.5770 C.3    14  LYS14       0.1093
     19  NZ        51.7080  -62.7870  -65.6430 N.3    14  LYS14      -0.1314
     20  N         44.3140  -73.7230  -68.0850 N.3    41  ASP41      -0.1239
     21  CA        44.8590  -72.5490  -68.7640 C.3    41  ASP41       0.1674
     22  C         46.3840  -72.6390  -68.8210 C.2    41  ASP41       0.2266
     23  O         47.1160  -71.7720  -68.3430 O.2    41  ASP41      -0.2867
     24  CB        44.3880  -71.2520  -68.1010 C.3    41  ASP41       0.1410
     25  CG        42.9760  -70.8740  -68.5070 C.2    41  ASP41       0.3668
     26  OD1       42.2640  -71.7400  -69.0600 O.co2  41  ASP41      -0.2456
     27  OD2       42.5750  -69.7150  -68.2740 O.co2  41  ASP41      -0.2456
     28  N         48.2180  -73.3520  -71.8180 N.3    43  GLN43      -0.1245
     29  CA        48.7580  -72.8300  -73.0740 C.3    43  GLN43       0.1566
     30  C         49.9600  -73.6570  -73.5340 C.2    43  GLN43       0.2260
     31  O         51.0730  -73.1550  -73.7060 O.2    43  GLN43      -0.2867
     32  CB        49.1230  -71.3490  -72.9430 C.3    43  GLN43       0.0367
     33  CG        48.0110  -70.4910  -72.3800 C.3    43  GLN43       0.0905
     34  CD        48.3090  -69.0160  -72.5070 C.2    43  GLN43       0.2608
     35  OE1       49.1460  -68.6060  -73.3130 O.2    43  GLN43      -0.2717
     36  NE2       47.6290  -68.2070  -71.7070 N.am   43  GLN43      -0.0878
     37  N         42.2340  -69.7030  -77.8130 N.3    55  LYS55      -0.1231
     38  CA        41.0720  -68.8140  -77.7850 C.3    55  LYS55       0.1693
     39  C         41.3000  -67.7440  -76.7220 C.2    55  LYS55       0.2592
     40  O         40.9020  -67.8830  -75.5640 O.2    55  LYS55      -0.2718
     41  CB        39.8050  -69.6200  -77.5210 C.3    55  LYS55       0.0285
     42  CG        38.5160  -68.8200  -77.3870 C.3    55  LYS55       0.0035
     43  CD        38.1370  -68.1140  -78.6720 C.3    55  LYS55       0.0206
     44  CE        36.9770  -67.1580  -78.4350 C.3    55  LYS55       0.1093
     45  NZ        37.1840  -66.3320  -77.2130 N.3    55  LYS55      -0.1314
     46  N         41.9490  -66.6580  -77.1310 N.am   56  VAL56      -0.1966
     47  CA        42.2310  -65.5180  -76.2590 C.3    56  VAL56       0.1712
     48  C         42.0660  -64.2360  -77.0590 C.2    56  VAL56       0.2458
     49  O         42.0880  -64.2500  -78.2980 O.2    56  VAL56      -0.2730
     50  CB        43.6530  -65.5830  -75.6610 C.3    56  VAL56       0.0289
     51  CG1       43.7850  -66.7430  -74.6840 C.3    56  VAL56       0.0023
     52  CG2       44.6920  -65.6790  -76.7680 C.3    56  VAL56       0.0023
     53  N         41.8850  -63.1070  -76.3770 N.am   57  PRO57      -0.2727
     54  CA        41.8950  -61.8160  -77.0730 C.3    57  PRO57       0.1402
     55  C         43.2520  -61.5560  -77.7020 C.2    57  PRO57       0.2269
     56  O         44.2620  -62.1370  -77.2750 O.2    57  PRO57      -0.2865
     57  CB        41.5890  -60.8050  -75.9560 C.3    57  PRO57       0.0296
     58  CG        41.8870  -61.5270  -74.6830 C.3    57  PRO57       0.0237
     59  CD        41.5380  -62.9550  -74.9540 C.3    57  PRO57       0.0939
     60  N         45.3910  -59.3160  -77.4160 N.3    59  LYS59      -0.1231
     61  CA        46.4150  -58.8570  -76.4820 C.3    59  LYS59       0.1693
     62  C         47.2020  -60.0190  -75.8870 C.2    59  LYS59       0.2592
     63  O         48.3930  -59.8740  -75.5870 O.2    59  LYS59      -0.2718
     64  CB        45.7580  -58.0220  -75.3800 C.3    59  LYS59       0.0285
     65  CG        46.5870  -57.8350  -74.1190 C.3    59  LYS59       0.0035
     66  CD        45.8500  -56.9690  -73.1100 C.3    59  LYS59       0.0206
     67  CE        44.4270  -57.4630  -72.8930 C.3    59  LYS59       0.1093
     68  NZ        43.6860  -56.6290  -71.9050 N.3    59  LYS59      -0.1314
     69  N         46.5690  -61.1820  -75.7360 N.am   60  TYR60      -0.1976
     70  CA        47.1810  -62.3280  -75.0770 C.3    60  TYR60       0.1639
     71  C         47.6190  -63.4170  -76.0510 C.2    60  TYR60       0.2290
     72  O         47.9450  -64.5270  -75.6160 O.2    60  TYR60      -0.2864
     73  CB        46.2160  -62.9080  -74.0410 C.3    60  TYR60       0.0560
     74  CG        46.0050  -62.0190  -72.8350 C.ar   60  TYR60      -0.0198
     75  CD1       47.0460  -61.7490  -71.9550 C.ar   60  TYR60      -0.0009
     76  CD2       44.7620  -61.4570  -72.5700 C.ar   60  TYR60      -0.0009
     77  CE1       46.8570  -60.9390  -70.8500 C.ar   60  TYR60       0.0417
     78  CE2       44.5640  -60.6460  -71.4670 C.ar   60  TYR60       0.0417
     79  CZ        45.6150  -60.3910  -70.6110 C.ar   60  TYR60       0.1957
     80  OH        45.4220  -59.5850  -69.5120 O.3    60  TYR60      -0.2866
     81  N         40.3100  -72.9350  -70.4440 N.3    86  ASN86      -0.1240
     82  CA        39.7640  -72.2760  -71.6210 C.3    86  ASN86       0.1653
     83  C         40.8220  -71.6390  -72.5080 C.2    86  ASN86       0.2266
     84  O         40.5790  -71.4760  -73.7080 O.2    86  ASN86      -0.2867
     85  CB        38.7430  -71.2050  -71.2070 C.3    86  ASN86       0.1155
     86  CG        39.3190  -70.1970  -70.2380 C.2    86  ASN86       0.2627
     87  OD1       39.2900  -70.4040  -69.0270 O.2    86  ASN86      -0.2716
     88  ND2       39.8420  -69.0960  -70.7650 N.am   86  ASN86      -0.0877
     89  N         35.6480  -75.5450  -69.4940 N.3   128  ILE128     -0.1231
     90  CA        34.6480  -74.7260  -68.8260 C.3   128  ILE128      0.1692
     91  C         33.2950  -75.0270  -69.4570 C.2   128  ILE128      0.2592
     92  O         33.2020  -75.5250  -70.5820 O.2   128  ILE128     -0.2718
     93  CB        34.9630  -73.2180  -68.9000 C.3   128  ILE128      0.0266
     94  CG1       34.8400  -72.7080  -70.3370 C.3   128  ILE128      0.0019
     95  CG2       36.3520  -72.9370  -68.3470 C.3   128  ILE128      0.0020
     96  CD1       35.0580  -71.2170  -70.4730 C.3   128  ILE128      0.0001
     97  N         32.2370  -74.7110  -68.7170 N.am  129  TYR129     -0.1962
     98  CA        30.8880  -75.1030  -69.1020 C.3   129  TYR129      0.1771
     99  C         30.2510  -74.0630  -70.0140 C.2   129  TYR129      0.2619
    100  O         30.2950  -72.8620  -69.7290 O.2   129  TYR129     -0.2715
    101  CB        30.0090  -75.3050  -67.8680 C.3   129  TYR129      0.0574
    102  CG        28.5640  -75.6060  -68.2030 C.ar  129  TYR129     -0.0198
    103  CD1       28.1600  -76.8980  -68.5110 C.ar  129  TYR129     -0.0009
    104  CD2       27.6080  -74.5970  -68.2250 C.ar  129  TYR129     -0.0009
    105  CE1       26.8440  -77.1800  -68.8220 C.ar  129  TYR129      0.0417
    106  CE2       26.2890  -74.8700  -68.5350 C.ar  129  TYR129      0.0417
    107  CZ        25.9140  -76.1630  -68.8330 C.ar  129  TYR129      0.1957
    108  OH        24.6020  -76.4390  -69.1430 O.3   129  TYR129     -0.2866
    109  N         29.6600  -74.5360  -71.1090 N.am  130  LYS130     -0.1977
    110  CA        28.8150  -73.7160  -71.9690 C.3   130  LYS130      0.1596
    111  C         27.6390  -74.5750  -72.4030 C.2   130  LYS130      0.2287
    112  O         27.8330  -75.6350  -73.0050 O.2   130  LYS130     -0.2864
    113  CB        29.5860  -73.1730  -73.1750 C.3   130  LYS130      0.0298
    114  CG        30.2690  -71.8420  -72.8870 C.3   130  LYS130      0.0038
    115  CD        30.2340  -70.9220  -74.0890 C.3   130  LYS130      0.0206
    116  CE        30.8870  -69.5890  -73.7830 C.3   130  LYS130      0.1093
    117  NZ        30.8490  -68.6750  -74.9570 N.3   130  LYS130     -0.1314
    118  N         36.5740  -72.2560  -80.8650 N.3   148  VAL148     -0.1245
    119  CA        35.6410  -71.7110  -79.8860 C.3   148  VAL148      0.1561
    120  C         34.9510  -72.7840  -79.0520 C.2   148  VAL148      0.2260
    121  O         34.4180  -72.4680  -77.9810 O.2   148  VAL148     -0.2867
    122  CB        34.5830  -70.8440  -80.5890 C.3   148  VAL148      0.0252
    123  CG1       35.2170  -69.5870  -81.1550 C.3   148  VAL148      0.0019
    124  CG2       33.9010  -71.6390  -81.6940 C.3   148  VAL148      0.0019
    125  N         37.3440  -76.4050  -75.9870 N.3   151  PHE151     -0.1227
    126  CA        37.6060  -76.3420  -74.5550 C.3   151  PHE151      0.1736
    127  C         36.3340  -76.3070  -73.7150 C.2   151  PHE151      0.2595
    128  O         36.4020  -75.9820  -72.5250 O.2   151  PHE151     -0.2718
    129  CB        38.4850  -75.1310  -74.2290 C.3   151  PHE151      0.0547
    130  CG        37.8860  -73.8160  -74.6330 C.ar  151  PHE151     -0.0202
    131  CD1       38.1030  -73.3010  -75.9000 C.ar  151  PHE151     -0.0042
    132  CD2       37.1110  -73.0910  -73.7440 C.ar  151  PHE151     -0.0042
    133  CE1       37.5550  -72.0910  -76.2720 C.ar  151  PHE151     -0.0003
    134  CE2       36.5620  -71.8810  -74.1110 C.ar  151  PHE151     -0.0003
    135  CZ        36.7840  -71.3800  -75.3770 C.ar  151  PHE151     -0.0000
    136  N         35.1800  -76.6150  -74.3020 N.am  152  HIS152     -0.1975
    137  CA        33.9240  -76.6460  -73.5650 C.3   152  HIS152      0.1656
    138  C         33.7040  -78.0400  -72.9890 C.2   152  HIS152      0.2291
    139  O         33.8660  -79.0420  -73.6920 O.2   152  HIS152     -0.2864
    140  CB        32.7530  -76.2570  -74.4690 C.3   152  HIS152      0.0771
    141  CG        32.7430  -74.8130  -74.8580 C.ar  152  HIS152      0.0820
    142  ND1       31.9610  -74.3240  -75.8810 N.ar  152  HIS152     -0.2267
    143  CD2       33.4180  -73.7500  -74.3590 C.ar  152  HIS152      0.1154
    144  CE1       32.1540  -73.0220  -75.9970 C.ar  152  HIS152      0.1986
    145  NE2       33.0340  -72.6490  -75.0850 N.ar  152  HIS152     -0.2212
    146  N         26.3770  -62.9440  -60.8400 N.3   201  ASP201     -0.1239
    147  CA        26.0640  -64.3440  -61.1050 C.3   201  ASP201      0.1674
    148  C         25.4480  -65.0130  -59.8820 C.2   201  ASP201      0.2266
    149  O         24.5470  -65.8500  -60.0110 O.2   201  ASP201     -0.2867
    150  CB        27.3270  -65.0820  -61.5480 C.3   201  ASP201      0.1410
    151  CG        28.1390  -64.2940  -62.5600 C.2   201  ASP201      0.3668
    152  OD1       27.8830  -64.4320  -63.7760 O.co2 201  ASP201     -0.2456
    153  OD2       29.0350  -63.5330  -62.1370 O.co2 201  ASP201     -0.2456
    154  N         40.4400  -70.5890  -62.7390 N.3   226  HIS226     -0.1241
    155  CA        39.6600  -69.8500  -63.7300 C.3   226  HIS226      0.1621
    156  C         39.2670  -68.4490  -63.2680 C.2   226  HIS226      0.2264
    157  O         39.3020  -67.5030  -64.0630 O.2   226  HIS226     -0.2867
    158  CB        38.4070  -70.6420  -64.1220 C.3   226  HIS226      0.0745
    159  CG        37.5910  -69.9940  -65.1970 C.ar  226  HIS226      0.0817
    160  ND1       38.1350  -69.5630  -66.3880 N.ar  226  HIS226     -0.2268
    161  CD2       36.2700  -69.7050  -65.2610 C.ar  226  HIS226      0.1154
    162  CE1       37.1840  -69.0380  -67.1400 C.ar  226  HIS226      0.1986
    163  NE2       36.0430  -69.1110  -66.4790 N.ar  226  HIS226     -0.2212
    164  N         40.7060  -66.4980  -60.9940 N.3   228  HIS228     -0.1241
    165  CA        41.8310  -65.6320  -60.6310 C.3   228  HIS228      0.1621
    166  C         41.6990  -65.1040  -59.2030 C.2   228  HIS228      0.2264
    167  O         42.0340  -63.9520  -58.9200 O.2   228  HIS228     -0.2867
    168  CB        41.9760  -64.4700  -61.6180 C.3   228  HIS228      0.0745
    169  CG        42.2450  -64.9010  -63.0240 C.ar  228  HIS228      0.0817
    170  ND1       42.0460  -64.0710  -64.1060 N.ar  228  HIS228     -0.2268
    171  CD2       42.7000  -66.0730  -63.5280 C.ar  228  HIS228      0.1154
    172  CE1       42.3630  -64.7130  -65.2150 C.ar  228  HIS228      0.1986
    173  NE2       42.7630  -65.9300  -64.8930 N.ar  228  HIS228     -0.2212
    174  N         46.0810  -66.8940  -60.4920 N.3   245  LYS245     -0.1245
    175  CA        46.9860  -66.9860  -61.6290 C.3   245  LYS245      0.1561
    176  C         48.4290  -66.7070  -61.2180 C.2   245  LYS245      0.2260
    177  O         48.6960  -65.9060  -60.3190 O.2   245  LYS245     -0.2867
    178  CB        46.5360  -66.0280  -62.7340 C.3   245  LYS245      0.0271
    179  CG        46.3960  -64.5840  -62.3020 C.3   245  LYS245      0.0035
    180  CD        45.8920  -63.7320  -63.4530 C.3   245  LYS245      0.0206
    181  CE        46.8190  -63.7750  -64.6490 C.3   245  LYS245      0.1093
    182  NZ        46.2290  -63.0360  -65.8000 N.3   245  LYS245     -0.1314
@<TRIPOS>BOND
     1   124   122    1
     2   123   122    1
     3   118   119    1
     4   122   119    1
     5   119   120    1
     6   120   121    2
     7    43    44    1
     8    43    42    1
     9    44    45    1
    10    49    48    2
    11    37    38    1
    12    38    41    1
    13    38    39    1
    14    55    56    2
    15    55    54    1
    16    41    42    1
    17    60    61    1
    18    46    39   am
    19    46    47    1
    20    54    53    1
    21    54    57    1
    22    48    53   am
    23    48    47    1
    24    52    50    1
    25    39    40    2
    26    61    62    1
    27    61    64    1
    28    53    59    1
    29   133   131   ar
    30   133   135   ar
    31    47    50    1
    32    71    72    2
    33    71    70    1
    34   144   142   ar
    35   144   145   ar
    36   125   126    1
    37    57    58    1
    38   131   130   ar
    39    62    69   am
    40    62    63    2
    41   142   141   ar
    42    69    70    1
    43    50    51    1
    44    64    65    1
    45   135   134   ar
    46   145   143   ar
    47    70    73    1
    48   117   116    1
    49    59    58    1
    50   141   140    1
    51   141   143   ar
    52   130   129    1
    53   130   132   ar
    54   126   129    1
    55   126   127    1
    56   140   137    1
    57   136   127   am
    58   136   137    1
    59    65    66    1
    60   134   132   ar
    61   115   116    1
    62   115   114    1
    63    73    74    1
    64   127   128    2
    65    84    83    2
    66    31    30    2
    67   139   138    2
    68   137   138    1
    69    30    29    1
    70    35    34    2
    71   113   114    1
    72   113   110    1
    73    66    67    1
    74    29    32    1
    75    29    28    1
    76   112   111    2
    77    32    33    1
    78    67    68    1
    79    74    76   ar
    80    74    75   ar
    81    76    78   ar
    82    83    82    1
    83    34    33    1
    84    34    36   am
    85   111   110    1
    86   110   109    1
    87    75    77   ar
    88    82    85    1
    89    82    81    1
    90    78    79   ar
    91    85    86    1
    92   109    99   am
    93    77    79   ar
    94    88    86   am
    95    79    80    1
    96    92    91    2
    97    96    94    1
    98    94    93    1
    99    86    87    2
   100    99   100    2
   101    99    98    1
   102     4     3    2
   103    89    90    1
   104    91    90    1
   105    91    97   am
   106     3     2    1
   107     7     9   ar
   108     7     6   ar
   109   108   107    1
   110    98    97    1
   111    98   101    1
   112    26    25   ar
   113    93    90    1
   114    93    95    1
   115   107   105   ar
   116   107   106   ar
   117   105   103   ar
   118    22    21    1
   119    22    23    2
   120     9    10   ar
   121    21    24    1
   122    21    20    1
   123     2     5    1
   124     2     1    1
   125   106   104   ar
   126   103   102   ar
   127    25    27   ar
   128    25    24    1
   129   104   102   ar
   130   102   101    1
   131     5     6    1
   132     6     8   ar
   133    11    12    1
   134    10     8   ar
   135   162   163   ar
   136   162   160   ar
   137    12    13    1
   138    12    15    1
   139    16    15    1
   140    16    17    1
   141    18    17    1
   142    18    19    1
   143   163   161   ar
   144   160   159   ar
   145    13    14    2
   146   182   181    1
   147   161   159   ar
   148   172   173   ar
   149   172   170   ar
   150   159   158    1
   151   173   171   ar
   152   181   180    1
   153   158   155    1
   154   170   169   ar
   155   157   156    2
   156   152   151   ar
   157   155   156    1
   158   155   154    1
   159   171   169   ar
   160   180   179    1
   161   169   168    1
   162   178   179    1
   163   178   175    1
   164   151   153   ar
   165   151   150    1
   166   175   176    1
   167   175   174    1
   168   168   165    1
   169   150   147    1
   170   176   177    2
   171   147   146    1
   172   147   148    1
   173   164   165    1
   174   165   166    1
   175   149   148    2
   176   166   167    2
