@<TRIPOS>MOLECULE
tmp/5k78D01.pdb
 168 161 0 0 0
SMALL
GASTEIGER

@<TRIPOS>ATOM
      1  N         48.8240  -69.8520  -67.5240 N.3    12  HIS12      -0.1241
      2  CA        48.8130  -68.8890  -68.6280 C.3    12  HIS12       0.1621
      3  C         50.2060  -68.6950  -69.2240 C.2    12  HIS12       0.2264
      4  O         50.6360  -67.5750  -69.5050 O.2    12  HIS12      -0.2867
      5  CB        48.2190  -67.5500  -68.1870 C.3    12  HIS12       0.0745
      6  CG        46.7260  -67.5560  -68.0800 C.ar   12  HIS12       0.0817
      7  ND1       45.9010  -67.5470  -69.1840 N.ar   12  HIS12      -0.2268
      8  CD2       45.9080  -67.5620  -67.0000 C.ar   12  HIS12       0.1154
      9  CE1       44.6400  -67.5510  -68.7900 C.ar   12  HIS12       0.1986
     10  NE2       44.6160  -67.5610  -67.4700 N.ar   12  HIS12      -0.2212
     11  N         44.3140  -73.7230  -68.0850 N.3    41  ASP41      -0.1239
     12  CA        44.8590  -72.5490  -68.7640 C.3    41  ASP41       0.1674
     13  C         46.3840  -72.6390  -68.8210 C.2    41  ASP41       0.2266
     14  O         47.1160  -71.7720  -68.3430 O.2    41  ASP41      -0.2867
     15  CB        44.3880  -71.2520  -68.1010 C.3    41  ASP41       0.1410
     16  CG        42.9760  -70.8740  -68.5070 C.2    41  ASP41       0.3668
     17  OD1       42.2640  -71.7400  -69.0600 O.co2  41  ASP41      -0.2456
     18  OD2       42.5750  -69.7150  -68.2740 O.co2  41  ASP41      -0.2456
     19  N         41.9490  -66.6580  -77.1310 N.3    56  VAL56      -0.1245
     20  CA        42.2310  -65.5180  -76.2590 C.3    56  VAL56       0.1561
     21  C         42.0660  -64.2360  -77.0590 C.2    56  VAL56       0.2260
     22  O         42.0880  -64.2500  -78.2980 O.2    56  VAL56      -0.2867
     23  CB        43.6530  -65.5830  -75.6610 C.3    56  VAL56       0.0252
     24  CG1       43.7850  -66.7430  -74.6840 C.3    56  VAL56       0.0019
     25  CG2       44.6920  -65.6790  -76.7680 C.3    56  VAL56       0.0019
     26  N         45.3910  -59.3160  -77.4160 N.3    59  LYS59      -0.1245
     27  CA        46.4150  -58.8570  -76.4820 C.3    59  LYS59       0.1561
     28  C         47.2020  -60.0190  -75.8870 C.2    59  LYS59       0.2260
     29  O         48.3930  -59.8740  -75.5870 O.2    59  LYS59      -0.2867
     30  CB        45.7580  -58.0220  -75.3800 C.3    59  LYS59       0.0271
     31  CG        46.5870  -57.8350  -74.1190 C.3    59  LYS59       0.0035
     32  CD        45.8500  -56.9690  -73.1100 C.3    59  LYS59       0.0206
     33  CE        44.4270  -57.4630  -72.8930 C.3    59  LYS59       0.1093
     34  NZ        43.6860  -56.6290  -71.9050 N.3    59  LYS59      -0.1314
     35  N         40.3100  -72.9350  -70.4440 N.3    86  ASN86      -0.1225
     36  CA        39.7640  -72.2760  -71.6210 C.3    86  ASN86       0.1785
     37  C         40.8220  -71.6390  -72.5080 C.2    86  ASN86       0.2597
     38  O         40.5790  -71.4760  -73.7080 O.2    86  ASN86      -0.2718
     39  CB        38.7430  -71.2050  -71.2070 C.3    86  ASN86       0.1169
     40  CG        39.3190  -70.1970  -70.2380 C.2    86  ASN86       0.2627
     41  OD1       39.2900  -70.4040  -69.0270 O.2    86  ASN86      -0.2716
     42  ND2       39.8420  -69.0960  -70.7650 N.am   86  ASN86      -0.0877
     43  N         41.9800  -71.2780  -71.9560 N.am   87  ALA87      -0.1979
     44  CA        43.1020  -70.7530  -72.7310 C.3    87  ALA87       0.1597
     45  C         44.1020  -71.8900  -72.9100 C.2    87  ALA87       0.2287
     46  O         45.0370  -72.0510  -72.1240 O.2    87  ALA87      -0.2864
     47  CB        43.7290  -69.5460  -72.0430 C.3    87  ALA87       0.0319
     48  N         36.5200  -58.7530  -52.9110 N.3   194  PHE194     -0.1227
     49  CA        37.5770  -58.9340  -53.9010 C.3   194  PHE194      0.1736
     50  C         37.0860  -58.5520  -55.2910 C.2   194  PHE194      0.2595
     51  O         37.7420  -57.7860  -56.0070 O.2   194  PHE194     -0.2718
     52  CB        38.0750  -60.3820  -53.8950 C.3   194  PHE194      0.0547
     53  CG        38.7270  -60.7900  -52.5990 C.ar  194  PHE194     -0.0202
     54  CD1       40.0560  -60.4900  -52.3530 C.ar  194  PHE194     -0.0042
     55  CD2       38.0120  -61.4790  -51.6320 C.ar  194  PHE194     -0.0042
     56  CE1       40.6600  -60.8650  -51.1690 C.ar  194  PHE194     -0.0003
     57  CE2       38.6120  -61.8690  -50.4500 C.ar  194  PHE194     -0.0003
     58  CZ        39.9380  -61.5560  -50.2160 C.ar  194  PHE194     -0.0000
     59  N         35.9370  -59.0900  -55.6930 N.am  195  GLN195     -0.1979
     60  CA        35.3590  -58.8240  -57.0080 C.3   195  GLN195      0.1601
     61  C         33.8490  -58.7020  -56.8590 C.2   195  GLN195      0.2287
     62  O         33.1510  -59.7180  -56.7050 O.2   195  GLN195     -0.2864
     63  CB        35.7230  -59.9200  -58.0070 C.3   195  GLN195      0.0394
     64  CG        35.0470  -59.7810  -59.3590 C.3   195  GLN195      0.0908
     65  CD        35.3500  -58.4600  -60.0280 C.2   195  GLN195      0.2608
     66  OE1       34.5530  -57.5250  -59.9670 O.2   195  GLN195     -0.2717
     67  NE2       36.5060  -58.3740  -60.6750 N.am  195  GLN195     -0.0878
     68  N         31.9480  -58.2470  -59.1570 N.3   197  GLY197     -0.1210
     69  CA        31.3550  -58.7730  -60.3710 C.3   197  GLY197      0.1956
     70  C         30.7300  -60.1350  -60.1650 C.2   197  GLY197      0.2611
     71  O         29.7380  -60.4720  -60.8180 O.2   197  GLY197     -0.2717
     72  N         31.2920  -60.9350  -59.2560 N.am  198  PHE198     -0.1976
     73  CA        30.7600  -62.2690  -59.0050 C.3   198  PHE198      0.1639
     74  C         29.4040  -62.2160  -58.3200 C.2   198  PHE198      0.2290
     75  O         28.6990  -63.2300  -58.2860 O.2   198  PHE198     -0.2864
     76  CB        31.7250  -63.0930  -58.1410 C.3   198  PHE198      0.0560
     77  CG        33.1200  -63.2180  -58.7030 C.ar  198  PHE198     -0.0200
     78  CD1       33.3940  -62.9260  -60.0300 C.ar  198  PHE198     -0.0042
     79  CD2       34.1600  -63.6510  -57.8930 C.ar  198  PHE198     -0.0042
     80  CE1       34.6760  -63.0510  -60.5330 C.ar  198  PHE198     -0.0003
     81  CE2       35.4410  -63.7790  -58.3910 C.ar  198  PHE198     -0.0003
     82  CZ        35.6990  -63.4790  -59.7120 C.ar  198  PHE198     -0.0000
     83  N         26.8640  -60.5470  -59.3630 N.3   200  LYS200     -0.1231
     84  CA        25.8370  -60.6110  -60.3970 C.3   200  LYS200      0.1693
     85  C         25.4060  -62.0510  -60.6400 C.2   200  LYS200      0.2592
     86  O         24.2090  -62.3660  -60.6450 O.2   200  LYS200     -0.2718
     87  CB        26.3480  -59.9890  -61.6980 C.3   200  LYS200      0.0285
     88  CG        27.0440  -58.6460  -61.5500 C.3   200  LYS200      0.0035
     89  CD        27.2790  -58.0130  -62.9170 C.3   200  LYS200      0.0206
     90  CE        28.1490  -56.7690  -62.8230 C.3   200  LYS200      0.1093
     91  NZ        29.5830  -57.1080  -62.6120 N.3   200  LYS200     -0.1314
     92  N         26.3770  -62.9440  -60.8400 N.am  201  ASP201     -0.1974
     93  CA        26.0640  -64.3440  -61.1050 C.3   201  ASP201      0.1709
     94  C         25.4480  -65.0130  -59.8820 C.2   201  ASP201      0.2293
     95  O         24.5470  -65.8500  -60.0110 O.2   201  ASP201     -0.2864
     96  CB        27.3270  -65.0820  -61.5480 C.3   201  ASP201      0.1436
     97  CG        28.1390  -64.2940  -62.5600 C.2   201  ASP201      0.3671
     98  OD1       27.8830  -64.4320  -63.7760 O.co2 201  ASP201     -0.2456
     99  OD2       29.0350  -63.5330  -62.1370 O.co2 201  ASP201     -0.2456
    100  N         26.7590  -69.1250  -60.3920 N.3   205  LEU205     -0.1231
    101  CA        28.1480  -69.1050  -60.8260 C.3   205  LEU205      0.1693
    102  C         28.7450  -70.5050  -60.7860 C.2   205  LEU205      0.2592
    103  O         28.5870  -71.2320  -59.8000 O.2   205  LEU205     -0.2718
    104  CB        28.9530  -68.1620  -59.9330 C.3   205  LEU205      0.0284
    105  CG        30.4720  -68.1540  -60.0940 C.3   205  LEU205      0.0019
    106  CD1       30.8570  -67.6120  -61.4490 C.3   205  LEU205      0.0001
    107  CD2       31.1190  -67.3370  -58.9880 C.3   205  LEU205      0.0001
    108  N         29.4280  -70.8830  -61.8580 N.am  206  GLY206     -0.1957
    109  CA        30.1410  -72.1420  -61.9200 C.3   206  GLY206      0.1869
    110  C         29.5380  -73.0980  -62.9360 C.2   206  GLY206      0.2309
    111  O         28.5510  -72.8060  -63.6130 O.2   206  GLY206     -0.2863
    112  N         40.4400  -70.5890  -62.7390 N.3   226  HIS226     -0.1226
    113  CA        39.6600  -69.8500  -63.7300 C.3   226  HIS226      0.1752
    114  C         39.2670  -68.4490  -63.2680 C.2   226  HIS226      0.2596
    115  O         39.3020  -67.5030  -64.0630 O.2   226  HIS226     -0.2718
    116  CB        38.4070  -70.6420  -64.1220 C.3   226  HIS226      0.0759
    117  CG        37.5910  -69.9940  -65.1970 C.ar  226  HIS226      0.0818
    118  ND1       38.1350  -69.5630  -66.3880 N.ar  226  HIS226     -0.2268
    119  CD2       36.2700  -69.7050  -65.2610 C.ar  226  HIS226      0.1154
    120  CE1       37.1840  -69.0380  -67.1400 C.ar  226  HIS226      0.1986
    121  NE2       36.0430  -69.1110  -66.4790 N.ar  226  HIS226     -0.2212
    122  N         38.8960  -68.2950  -62.0000 N.am  227  MET227     -0.1965
    123  CA        38.3630  -67.0320  -61.5030 C.3   227  MET227      0.1736
    124  C         39.4400  -66.0740  -61.0090 C.2   227  MET227      0.2616
    125  O         39.1120  -64.9420  -60.6370 O.2   227  MET227     -0.2715
    126  CB        37.3550  -67.2970  -60.3800 C.3   227  MET227      0.0427
    127  CG        36.1990  -68.1940  -60.7910 C.3   227  MET227      0.0599
    128  SD        35.3370  -67.6210  -62.2650 S.3   227  MET227     -0.1393
    129  CE        34.2930  -66.3470  -61.5700 C.3   227  MET227      0.0692
    130  N         40.7060  -66.4980  -60.9940 N.am  228  HIS228     -0.1973
    131  CA        41.8310  -65.6320  -60.6310 C.3   228  HIS228      0.1656
    132  C         41.6990  -65.1040  -59.2030 C.2   228  HIS228      0.2291
    133  O         42.0340  -63.9520  -58.9200 O.2   228  HIS228     -0.2864
    134  CB        41.9760  -64.4700  -61.6180 C.3   228  HIS228      0.0771
    135  CG        42.2450  -64.9010  -63.0240 C.ar  228  HIS228      0.0820
    136  ND1       42.0460  -64.0710  -64.1060 N.ar  228  HIS228     -0.2267
    137  CD2       42.7000  -66.0730  -63.5280 C.ar  228  HIS228      0.1154
    138  CE1       42.3630  -64.7130  -65.2150 C.ar  228  HIS228      0.1986
    139  NE2       42.7630  -65.9300  -64.8930 N.ar  228  HIS228     -0.2212
    140  N         46.0810  -66.8940  -60.4920 N.3   245  LYS245     -0.1245
    141  CA        46.9860  -66.9860  -61.6290 C.3   245  LYS245      0.1561
    142  C         48.4290  -66.7070  -61.2180 C.2   245  LYS245      0.2260
    143  O         48.6960  -65.9060  -60.3190 O.2   245  LYS245     -0.2867
    144  CB        46.5360  -66.0280  -62.7340 C.3   245  LYS245      0.0271
    145  CG        46.3960  -64.5840  -62.3020 C.3   245  LYS245      0.0035
    146  CD        45.8920  -63.7320  -63.4530 C.3   245  LYS245      0.0206
    147  CE        46.8190  -63.7750  -64.6490 C.3   245  LYS245      0.1093
    148  NZ        46.2290  -63.0360  -65.8000 N.3   245  LYS245     -0.1314
    149  N         50.7430  -63.6240  -59.0070 N.3   248  TYR248     -0.1241
    150  CA        50.2070  -63.1870  -57.7300 C.3   248  TYR248      0.1605
    151  C         50.3730  -64.2960  -56.6960 C.2   248  TYR248      0.2264
    152  O         50.7230  -65.4350  -57.0160 O.2   248  TYR248     -0.2867
    153  CB        48.7300  -62.8000  -57.8740 C.3   248  TYR248      0.0534
    154  CG        48.4610  -61.7750  -58.9560 C.ar  248  TYR248     -0.0201
    155  CD1       48.4060  -62.1460  -60.2950 C.ar  248  TYR248     -0.0009
    156  CD2       48.2530  -60.4380  -58.6400 C.ar  248  TYR248     -0.0009
    157  CE1       48.1610  -61.2160  -61.2870 C.ar  248  TYR248      0.0417
    158  CE2       48.0050  -59.5010  -59.6270 C.ar  248  TYR248      0.0417
    159  CZ        47.9600  -59.8960  -60.9480 C.ar  248  TYR248      0.1957
    160  OH        47.7140  -58.9700  -61.9340 O.3   248  TYR248     -0.2866
    161  N         48.0180  -65.6850  -55.1090 N.3   250  ASN250     -0.1240
    162  CA        46.8520  -66.5570  -55.0880 C.3   250  ASN250      0.1653
    163  C         46.9890  -67.7780  -55.9860 C.2   250  ASN250      0.2266
    164  O         46.0330  -68.5540  -56.0880 O.2   250  ASN250     -0.2867
    165  CB        45.6090  -65.7730  -55.5210 C.3   250  ASN250      0.1155
    166  CG        45.7980  -64.2750  -55.4210 C.2   250  ASN250      0.2627
    167  OD1       46.6920  -63.7940  -54.7250 O.2   250  ASN250     -0.2716
    168  ND2       44.9600  -63.5260  -56.1280 N.am  250  ASN250     -0.0877
@<TRIPOS>BOND
     1    22    21    2
     2    26    27    1
     3    19    20    1
     4    21    20    1
     5    25    23    1
     6    27    28    1
     7    27    30    1
     8    20    23    1
     9    28    29    2
    10    23    24    1
    11    30    31    1
    12    31    32    1
    13    38    37    2
    14    32    33    1
    15    45    44    1
    16    45    46    2
    17    33    34    1
    18    44    47    1
    19    44    43    1
    20    37    43   am
    21    37    36    1
    22    36    39    1
    23    36    35    1
    24    39    40    1
    25    42    40   am
    26    40    41    2
    27     4     3    2
    28     3     2    1
    29     7     9   ar
    30     7     6   ar
    31    17    16   ar
    32    13    12    1
    33    13    14    2
    34     9    10   ar
    35    12    15    1
    36    12    11    1
    37     2     5    1
    38     2     1    1
    39    16    18   ar
    40    16    15    1
    41     5     6    1
    42     6     8   ar
    43    10     8   ar
    44   120   121   ar
    45   120   118   ar
    46   121   119   ar
    47   118   117   ar
    48   148   147    1
    49   119   117   ar
    50   138   139   ar
    51   138   136   ar
    52   117   116    1
    53   139   137   ar
    54   147   146    1
    55   116   113    1
    56   136   135   ar
    57   115   114    2
    58    98    97   ar
    59   113   114    1
    60   113   112    1
    61   111   110    2
    62   137   135   ar
    63   146   145    1
    64   114   122   am
    65   135   134    1
    66   110   109    1
    67    89    90    1
    68    89    88    1
    69    90    91    1
    70   144   145    1
    71   144   141    1
    72    97    99   ar
    73    97    96    1
    74   128   129    1
    75   128   127    1
    76   122   123    1
    77   160   159    1
    78   109   108    1
    79   108   102   am
    80    87    88    1
    81    87    84    1
    82   141   142    1
    83   141   140    1
    84   134   131    1
    85    96    93    1
    86   123   124    1
    87   123   126    1
    88   106   105    1
    89   157   159   ar
    90   157   155   ar
    91   142   143    2
    92    93    92    1
    93    93    94    1
    94   124   130   am
    95   124   125    2
    96   130   131    1
    97   159   158   ar
    98    92    85   am
    99   101   102    1
   100   101   100    1
   101   101   104    1
   102    71    70    2
   103   127   126    1
   104   102   103    2
   105    67    65   am
   106    86    85    2
   107    85    84    1
   108   131   132    1
   109    80    78   ar
   110    80    82   ar
   111    84    83    1
   112    69    70    1
   113    69    68    1
   114   155   154   ar
   115    70    72   am
   116   105   104    1
   117   105   107    1
   118    78    77   ar
   119    65    66    2
   120    65    64    1
   121    95    94    2
   122    82    81   ar
   123   158   156   ar
   124    64    63    1
   125    72    73    1
   126   132   133    2
   127   149   150    1
   128    73    74    1
   129    73    76    1
   130   154   156   ar
   131   154   153    1
   132    77    76    1
   133    77    79   ar
   134    81    79   ar
   135    74    75    2
   136    63    60    1
   137   153   150    1
   138   150   151    1
   139   152   151    2
   140    60    61    1
   141    60    59    1
   142    61    62    2
   143   168   166   am
   144   164   163    2
   145    51    50    2
   146   163   162    1
   147    59    50   am
   148   165   166    1
   149   165   162    1
   150   166   167    2
   151    50    49    1
   152   161   162    1
   153    49    52    1
   154    49    48    1
   155    52    53    1
   156    53    54   ar
   157    53    55   ar
   158    54    56   ar
   159    55    57   ar
   160    56    58   ar
   161    57    58   ar
