@<TRIPOS>MOLECULE
tmp/5k7iB00.pdb
 174 164 0 0 0
SMALL
GASTEIGER

@<TRIPOS>ATOM
      1  N        -46.9010   -7.9520   -8.8930 N.3    28  LYS28      -0.1231
      2  CA       -47.4130   -8.6180  -10.0980 C.3    28  LYS28       0.1693
      3  C        -47.1960  -10.1140  -10.1060 C.2    28  LYS28       0.2592
      4  O        -46.0710  -10.5980   -9.9590 O.2    28  LYS28      -0.2718
      5  CB       -46.9550   -8.0190  -11.4080 C.3    28  LYS28       0.0285
      6  CG       -47.9130   -8.3550  -12.5360 C.3    28  LYS28       0.0035
      7  CD       -47.4240   -7.8200  -13.8530 C.3    28  LYS28       0.0206
      8  CE       -47.8940   -8.6950  -14.9850 C.3    28  LYS28       0.1093
      9  NZ       -47.3440   -8.2370  -16.2840 N.3    28  LYS28      -0.1314
     10  N        -48.3010  -10.8330  -10.3140 N.am   29  MET29      -0.1965
     11  CA       -48.2890  -12.2800  -10.3420 C.3    29  MET29       0.1736
     12  C        -48.1350  -12.8130  -11.7500 C.2    29  MET29       0.2617
     13  O        -47.3680  -13.7480  -11.9400 O.2    29  MET29      -0.2715
     14  CB       -49.5420  -12.8450   -9.6810 C.3    29  MET29       0.0427
     15  CG       -49.7480  -12.3400   -8.2730 C.3    29  MET29       0.0599
     16  SD       -50.7630  -13.4260   -7.2910 S.3    29  MET29      -0.1393
     17  CE       -52.3110  -13.0530   -7.9110 C.3    29  MET29       0.0692
     18  N        -48.8630  -12.2310  -12.7120 N.am   30  GLY30      -0.1940
     19  CA       -48.8490  -12.6400  -14.1090 C.3    30  GLY30       0.2014
     20  C        -49.9470  -12.0020  -14.9350 C.2    30  GLY30       0.2638
     21  O        -50.6560  -11.1090  -14.4540 O.2    30  GLY30      -0.2714
     22  N        -50.0950  -12.4590  -16.1990 N.am   31  GLU31      -0.1977
     23  CA       -51.1080  -11.9420  -17.1330 C.3    31  GLU31       0.1602
     24  C        -51.6090  -12.9870  -18.1200 C.2    31  GLU31       0.2287
     25  O        -50.8520  -13.8640  -18.5240 O.2    31  GLU31      -0.2864
     26  CB       -50.6290  -10.6740  -17.8680 C.3    31  GLU31       0.0415
     27  CG       -49.3120  -10.8010  -18.6180 C.3    31  GLU31       0.1163
     28  CD       -48.9030   -9.5460  -19.3690 C.2    31  GLU31       0.3649
     29  OE1      -47.9540   -8.8650  -18.9180 O.co2  31  GLU31      -0.2457
     30  OE2      -49.5330   -9.2400  -20.4060 O.co2  31  GLU31      -0.2457
     31  N        -53.2350  -10.1770  -13.1990 N.3    35  VAL35      -0.1245
     32  CA       -53.4070  -10.6640  -11.8350 C.3    35  VAL35       0.1561
     33  C        -52.3690  -10.0320  -10.9180 C.2    35  VAL35       0.2260
     34  O        -51.2040   -9.9310  -11.3070 O.2    35  VAL35      -0.2867
     35  CB       -53.4090  -12.2290  -11.7040 C.3    35  VAL35       0.0252
     36  CG1      -54.3050  -12.6650  -10.5570 C.3    35  VAL35       0.0019
     37  CG2      -53.8630  -12.9280  -12.9820 C.3    35  VAL35       0.0019
     38  N        -56.0630  -12.6560   -4.7350 N.3    46  ALA46      -0.1245
     39  CA       -55.7080  -12.5890   -6.1390 C.3    46  ALA46       0.1562
     40  C        -56.7540  -11.6670   -6.7740 C.2    46  ALA46       0.2260
     41  O        -57.9610  -11.9140   -6.6330 O.2    46  ALA46      -0.2867
     42  CB       -55.7760  -13.9750   -6.7530 C.3    46  ALA46       0.0290
     43  N        -57.9810  -10.1040  -10.2650 N.3    48  LYS48      -0.1245
     44  CA       -58.0090  -10.2420  -11.7050 C.3    48  LYS48       0.1561
     45  C        -58.7480   -9.0530  -12.2740 C.2    48  LYS48       0.2260
     46  O        -59.9860   -9.0160  -12.3010 O.2    48  LYS48      -0.2867
     47  CB       -58.6700  -11.5690  -12.1160 C.3    48  LYS48       0.0271
     48  CG       -58.6900  -11.8430  -13.6180 C.3    48  LYS48       0.0035
     49  CD       -60.0010  -12.5160  -13.9880 C.3    48  LYS48       0.0206
     50  CE       -59.8210  -13.7820  -14.7860 C.3    48  LYS48       0.1093
     51  NZ       -61.0060  -14.6830  -14.6730 N.3    48  LYS48      -0.1314
     52  N        -61.3440  -23.1270   -7.2810 N.3    74  VAL74      -0.1245
     53  CA       -60.8970  -21.8900   -6.6350 C.3    74  VAL74       0.1561
     54  C        -62.0950  -21.1540   -6.0350 C.2    74  VAL74       0.2260
     55  O        -63.2060  -21.2340   -6.5660 O.2    74  VAL74      -0.2867
     56  CB       -59.9800  -20.9670   -7.4790 C.3    74  VAL74       0.0252
     57  CG1      -58.7930  -21.7230   -8.0470 C.3    74  VAL74       0.0019
     58  CG2      -60.7400  -20.1870   -8.5440 C.3    74  VAL74       0.0019
     59  N        -60.2290  -13.3830   -5.6480 N.3    84  TYR84      -0.1227
     60  CA       -60.2140  -14.7980   -5.2900 C.3    84  TYR84       0.1736
     61  C        -59.3210  -15.0680   -4.1090 C.2    84  TYR84       0.2595
     62  O        -58.4560  -14.2560   -3.7720 O.2    84  TYR84      -0.2718
     63  CB       -59.6700  -15.6620   -6.4620 C.3    84  TYR84       0.0548
     64  CG       -60.2250  -15.3920   -7.8370 C.ar   84  TYR84      -0.0200
     65  CD1      -59.7730  -14.3150   -8.5930 C.ar   84  TYR84      -0.0009
     66  CD2      -61.0920  -16.2930   -8.4460 C.ar   84  TYR84      -0.0009
     67  CE1      -60.2480  -14.0820   -9.8780 C.ar   84  TYR84       0.0417
     68  CE2      -61.5590  -16.0810   -9.7430 C.ar   84  TYR84       0.0417
     69  CZ       -61.1370  -14.9720  -10.4530 C.ar   84  TYR84       0.1957
     70  OH       -61.5960  -14.7440  -11.7300 O.3    84  TYR84      -0.2866
     71  N        -59.4790  -16.2720   -3.5330 N.am   85  VAL85      -0.1966
     72  CA       -58.6450  -16.7510   -2.4450 C.3    85  VAL85       0.1727
     73  C        -57.2590  -16.9550   -3.0650 C.2    85  VAL85       0.2616
     74  O        -57.1470  -17.4370   -4.1940 O.2    85  VAL85      -0.2715
     75  CB       -59.2290  -18.0420   -1.8160 C.3    85  VAL85       0.0290
     76  CG1      -58.1960  -18.7820   -0.9700 C.3    85  VAL85       0.0023
     77  CG2      -60.4580  -17.7270   -0.9750 C.3    85  VAL85       0.0023
     78  N        -56.2270  -16.4990   -2.3580 N.am   86  TYR86      -0.1960
     79  CA       -54.8450  -16.6140   -2.7630 C.3    86  TYR86       0.1771
     80  C        -54.3880  -18.0730   -2.6960 C.2    86  TYR86       0.2619
     81  O        -54.5990  -18.7480   -1.6940 O.2    86  TYR86      -0.2715
     82  CB       -53.9500  -15.7140   -1.9020 C.3    86  TYR86       0.0574
     83  CG       -52.5560  -15.6020   -2.4590 C.ar   86  TYR86      -0.0198
     84  CD1      -52.3280  -15.0190   -3.7010 C.ar   86  TYR86      -0.0009
     85  CD2      -51.4690  -16.1510   -1.7850 C.ar   86  TYR86      -0.0009
     86  CE1      -51.0560  -14.9800   -4.2560 C.ar   86  TYR86       0.0417
     87  CE2      -50.1860  -16.1190   -2.3370 C.ar   86  TYR86       0.0417
     88  CZ       -49.9900  -15.5410   -3.5770 C.ar   86  TYR86       0.1957
     89  OH       -48.7330  -15.4760   -4.1300 O.3    86  TYR86      -0.2866
     90  N        -53.8000  -18.5510   -3.8030 N.am   87  MET87      -0.1977
     91  CA       -53.2420  -19.8850   -3.9610 C.3    87  MET87       0.1605
     92  C        -51.7390  -19.6760   -3.9260 C.2    87  MET87       0.2287
     93  O        -51.1820  -19.1440   -4.8870 O.2    87  MET87      -0.2864
     94  CB       -53.7100  -20.5180   -5.3000 C.3    87  MET87       0.0413
     95  CG       -55.2340  -20.5670   -5.4710 C.3    87  MET87       0.0598
     96  SD       -56.1540  -21.1440   -4.0300 S.3    87  MET87      -0.1393
     97  CE       -55.8610  -22.6790   -4.1800 C.3    87  MET87       0.0692
     98  N        -49.0900  -21.1250   -6.7470 N.3    90  GLY90      -0.1210
     99  CA       -49.3820  -20.7680   -8.1440 C.3    90  GLY90       0.1956
    100  C        -50.0870  -21.8420   -8.9540 C.2    90  GLY90       0.2612
    101  O        -50.9710  -22.5310   -8.4450 O.2    90  GLY90      -0.2717
    102  N        -49.6950  -22.0010  -10.2290 N.am   91  SER91      -0.1952
    103  CA       -50.3070  -22.9840  -11.1050 C.3    91  SER91       0.1924
    104  C        -49.4680  -24.2490  -11.2420 C.2    91  SER91       0.2314
    105  O        -48.2540  -24.2290  -11.0160 O.2    91  SER91      -0.2863
    106  CB       -50.5930  -22.3760  -12.4800 C.3    91  SER91       0.2116
    107  OG       -49.3980  -22.0610  -13.1710 O.3    91  SER91      -0.2180
    108  N        -48.7530  -25.5650  -14.0560 N.3    93  LEU93      -0.1231
    109  CA       -47.8660  -25.2920  -15.1900 C.3    93  LEU93       0.1693
    110  C        -46.5310  -24.7580  -14.6860 C.2    93  LEU93       0.2592
    111  O        -45.4910  -25.3120  -15.0340 O.2    93  LEU93      -0.2718
    112  CB       -48.5260  -24.3280  -16.1890 C.3    93  LEU93       0.0284
    113  CG       -47.6660  -23.8390  -17.3650 C.3    93  LEU93       0.0019
    114  CD1      -47.3210  -24.9720  -18.2920 C.3    93  LEU93       0.0001
    115  CD2      -48.3610  -22.7500  -18.1210 C.3    93  LEU93       0.0001
    116  N        -46.5640  -23.7180  -13.8460 N.am   94  ASP94      -0.1974
    117  CA       -45.3880  -23.1230  -13.2330 C.3    94  ASP94       0.1709
    118  C        -44.6420  -24.1040  -12.3230 C.2    94  ASP94       0.2293
    119  O        -43.4200  -24.1260  -12.3410 O.2    94  ASP94      -0.2864
    120  CB       -45.7610  -21.8340  -12.4860 C.3    94  ASP94       0.1436
    121  CG       -46.4810  -20.7980  -13.3470 C.2    94  ASP94       0.3671
    122  OD1      -46.4520  -20.9340  -14.6110 O.co2  94  ASP94      -0.2456
    123  OD2      -47.0880  -19.8670  -12.7690 O.co2  94  ASP94      -0.2456
    124  N        -40.6890  -22.9820  -12.0860 N.3    99  LEU99      -0.1231
    125  CA       -40.5670  -21.5340  -12.2400 C.3    99  LEU99       0.1693
    126  C        -40.1510  -20.8630  -10.9390 C.2    99  LEU99       0.2592
    127  O        -40.5820  -21.2760   -9.8570 O.2    99  LEU99      -0.2718
    128  CB       -41.8920  -20.9540  -12.7600 C.3    99  LEU99       0.0284
    129  CG       -41.7800  -19.8630  -13.8100 C.3    99  LEU99       0.0019
    130  CD1      -41.8840  -20.4500  -15.1850 C.3    99  LEU99       0.0001
    131  CD2      -42.8750  -18.8490  -13.6370 C.3    99  LEU99       0.0001
    132  N        -39.2510  -19.8970  -11.0440 N.am  100  ASP100     -0.1974
    133  CA       -38.7380  -19.1190   -9.9180 C.3   100  ASP100      0.1709
    134  C        -38.0180  -19.9700   -8.8420 C.2   100  ASP100      0.2293
    135  O        -37.9610  -19.5900   -7.6610 O.2   100  ASP100     -0.2864
    136  CB       -39.8280  -18.2190   -9.2990 C.3   100  ASP100      0.1436
    137  CG       -40.4030  -17.2330  -10.2900 C.2   100  ASP100      0.3671
    138  OD1      -39.6130  -16.5360  -10.9630 O.co2 100  ASP100     -0.2456
    139  OD2      -41.6410  -17.1750  -10.4100 O.co2 100  ASP100     -0.2456
    140  N        -52.3280  -24.4720  -16.6690 N.3   137  ALA137     -0.1231
    141  CA       -52.2920  -23.0740  -16.2040 C.3   137  ALA137      0.1694
    142  C        -53.5660  -22.7500  -15.3710 C.2   137  ALA137      0.2592
    143  O        -53.5280  -21.8440  -14.5550 O.2   137  ALA137     -0.2718
    144  CB       -52.1640  -22.1020  -17.3950 C.3   137  ALA137      0.0304
    145  N        -54.6780  -23.5090  -15.5910 N.am  138  ASN138     -0.1974
    146  CA       -55.9610  -23.3480  -14.8960 C.3   138  ASN138      0.1688
    147  C        -56.1440  -24.3220  -13.7150 C.2   138  ASN138      0.2292
    148  O        -57.2490  -24.4580  -13.1890 O.2   138  ASN138     -0.2864
    149  CB       -57.1350  -23.4180  -15.8790 C.3   138  ASN138      0.1181
    150  CG       -57.3120  -22.1530  -16.6910 C.2   138  ASN138      0.2629
    151  OD1      -56.8000  -21.0740  -16.3490 O.2   138  ASN138     -0.2716
    152  ND2      -58.0750  -22.2390  -17.7720 N.am  138  ASN138     -0.0877
    153  N        -54.7560  -24.6220  -10.0700 N.3   140  LEU140     -0.1245
    154  CA       -54.0310  -23.8630   -9.0630 C.3   140  LEU140      0.1561
    155  C        -53.7000  -24.7160   -7.8920 C.2   140  LEU140      0.2260
    156  O        -54.3220  -25.7550   -7.7050 O.2   140  LEU140     -0.2867
    157  CB       -54.7320  -22.5430   -8.6710 C.3   140  LEU140      0.0270
    158  CG       -55.1330  -21.6230   -9.8520 C.3   140  LEU140      0.0019
    159  CD1      -55.6730  -20.3160   -9.3460 C.3   140  LEU140      0.0001
    160  CD2      -53.9360  -21.3180  -10.8260 C.3   140  LEU140      0.0001
    161  N        -59.5170  -23.5490  -11.8110 N.3   150  SER150     -0.1202
    162  CA       -59.8410  -22.1110  -11.8820 C.3   150  SER150      0.2020
    163  C        -60.3060  -21.7240  -13.2760 C.2   150  SER150      0.2618
    164  O        -60.2300  -22.5300  -14.2070 O.2   150  SER150     -0.2717
    165  CB       -58.6320  -21.2530  -11.5130 C.3   150  SER150      0.2103
    166  OG       -57.4960  -21.5980  -12.2820 O.3   150  SER150     -0.2182
    167  N        -60.7260  -20.4600  -13.4160 N.am  151  ASP151     -0.1973
    168  CA       -61.1500  -19.8060  -14.6490 C.3   151  ASP151      0.1709
    169  C        -62.3820  -20.4610  -15.2950 C.2   151  ASP151      0.2293
    170  O        -62.2680  -21.3100  -16.1790 O.2   151  ASP151     -0.2864
    171  CB       -59.9830  -19.6530  -15.6560 C.3   151  ASP151      0.1436
    172  CG       -59.9210  -18.2560  -16.2470 C.2   151  ASP151      0.3671
    173  OD1      -60.9340  -17.8190  -16.8490 O.co2 151  ASP151     -0.2456
    174  OD2      -58.8800  -17.5800  -16.0620 O.co2 151  ASP151     -0.2456
@<TRIPOS>BOND
     1    30    28   ar
     2    28    29   ar
     3    28    27    1
     4    27    26    1
     5    25    24    2
     6   114   113    1
     7   115   113    1
     8    24    23    1
     9    26    23    1
    10   152   150   am
    11   144   141    1
    12   113   112    1
    13    23    22    1
    14   173   172   ar
    15   150   151    2
    16   150   149    1
    17   140   141    1
    18     9     8    1
    19   172   174   ar
    20   172   171    1
    21   141   142    1
    22    22    20   am
    23   112   109    1
    24   170   169    2
    25   149   146    1
    26   171   168    1
    27   145   142   am
    28   145   146    1
    29   142   143    2
    30   169   168    1
    31   109   110    1
    32   109   108    1
    33   130   129    1
    34   111   110    2
    35     8     7    1
    36    20    21    2
    37    20    19    1
    38   146   147    1
    39    50    51    1
    40    50    49    1
    41   110   116   am
    42   168   167    1
    43   122   121   ar
    44   164   163    2
    45    19    18    1
    46    49    48    1
    47     7     6    1
    48   116   117    1
    49   129   131    1
    50   129   128    1
    51   147   148    2
    52    48    47    1
    53   167   163   am
    54   121   123   ar
    55   121   120    1
    56   163   162    1
    57   117   120    1
    58   117   118    1
    59    31    32    1
    60   107   106    1
    61    37    35    1
    62   128   125    1
    63    18    12   am
    64     6     5    1
    65   106   103    1
    66   119   118    2
    67    46    45    2
    68   166   165    1
    69    45    44    1
    70   125   124    1
    71   125   126    1
    72    47    44    1
    73    13    12    2
    74   162   161    1
    75   162   165    1
    76    32    35    1
    77    32    33    1
    78    12    11    1
    79    70    69    1
    80    44    43    1
    81    35    36    1
    82     5     2    1
    83    34    33    2
    84   104   103    1
    85   104   105    2
    86   103   102    1
    87   132   126   am
    88   132   133    1
    89   138   137   ar
    90   126   127    2
    91   160   158    1
    92    69    67   ar
    93    69    68   ar
    94   139   137   ar
    95    11    10    1
    96    11    14    1
    97    10     3   am
    98   137   136    1
    99   102   100   am
   100     3     2    1
   101     3     4    2
   102     2     1    1
   103   153   154    1
   104   133   136    1
   105   133   134    1
   106    67    65   ar
   107   158   159    1
   108   158   157    1
   109    68    66   ar
   110    14    15    1
   111   154   157    1
   112   154   155    1
   113   100   101    2
   114   100    99    1
   115   134   135    2
   116    65    64   ar
   117    58    56    1
   118    66    64   ar
   119    15    16    1
   120    99    98    1
   121    57    56    1
   122    17    16    1
   123   155   156    2
   124    64    63    1
   125    56    53    1
   126    52    53    1
   127    40    41    2
   128    40    39    1
   129    42    39    1
   130    53    54    1
   131    55    54    2
   132    63    60    1
   133    39    38    1
   134    59    60    1
   135    95    94    1
   136    95    96    1
   137    94    91    1
   138    60    61    1
   139    93    92    2
   140    86    84   ar
   141    86    88   ar
   142    74    73    2
   143    97    96    1
   144    89    88    1
   145    61    62    2
   146    61    71   am
   147    91    92    1
   148    91    90    1
   149    90    80   am
   150    84    83   ar
   151    88    87   ar
   152    71    72    1
   153    73    72    1
   154    73    78   am
   155    79    80    1
   156    79    78    1
   157    79    82    1
   158    80    81    2
   159    83    82    1
   160    83    85   ar
   161    72    75    1
   162    87    85   ar
   163    75    77    1
   164    75    76    1
