@<TRIPOS>MOLECULE
tmp/5k7kA01.pdb
 201 189 0 0 0
SMALL
GASTEIGER

@<TRIPOS>ATOM
      1  N         23.6580  -26.4000   12.9750 N.3    70  PHE70      -0.1228
      2  CA        24.3950  -27.6290   12.6610 C.3    70  PHE70       0.1721
      3  C         25.8900  -27.1120   12.7900 C.2    70  PHE70       0.2437
      4  O         26.4790  -27.4460   13.8200 O.2    70  PHE70      -0.2733
      5  CB        23.9470  -27.9260   11.2120 C.3    70  PHE70       0.0547
      6  CG        24.7600  -28.9380   10.4170 C.ar   70  PHE70      -0.0202
      7  CD1       25.2100  -30.1110   11.0030 C.ar   70  PHE70      -0.0042
      8  CD2       25.0220  -28.7310    9.0640 C.ar   70  PHE70      -0.0042
      9  CE1       25.9510  -31.0430   10.2700 C.ar   70  PHE70      -0.0003
     10  CE2       25.7660  -29.6540    8.3310 C.ar   70  PHE70      -0.0003
     11  CZ        26.2220  -30.8130    8.9340 C.ar   70  PHE70      -0.0000
     12  N         26.5540  -26.3340   11.8650 N.am   71  PRO71      -0.2729
     13  CA        27.9500  -25.9590   12.1320 C.3    71  PRO71       0.1401
     14  C         28.0510  -24.5430   12.7270 C.2    71  PRO71       0.2269
     15  O         27.7560  -24.3500   13.9070 O.2    71  PRO71      -0.2865
     16  CB        28.6040  -26.0860   10.7400 C.3    71  PRO71       0.0296
     17  CG        27.4430  -25.9690    9.7410 C.3    71  PRO71       0.0237
     18  CD        26.1590  -25.8120   10.5460 C.3    71  PRO71       0.0939
     19  N         26.6460  -19.0150    9.0420 N.3    74  GLU74      -0.1245
     20  CA        27.2940  -18.1350    8.0630 C.3    74  GLU74       0.1567
     21  C         26.4310  -16.8990    7.7900 C.2    74  GLU74       0.2260
     22  O         25.2280  -17.0380    7.5470 O.2    74  GLU74      -0.2867
     23  CB        27.5870  -18.8970    6.7560 C.3    74  GLU74       0.0388
     24  CG        28.9720  -19.5270    6.7100 C.3    74  GLU74       0.1160
     25  CD        29.1440  -20.8320    7.4650 C.2    74  GLU74       0.3649
     26  OE1       29.9370  -20.8510    8.4380 O.co2  74  GLU74      -0.2457
     27  OE2       28.5180  -21.8400    7.0710 O.co2  74  GLU74      -0.2457
     28  N         22.1260  -18.7860    4.9770 N.3    78  ARG78      -0.1245
     29  CA        21.5280  -19.9460    4.3260 C.3    78  ARG78       0.1563
     30  C         20.1780  -20.4490    4.8680 C.2    78  ARG78       0.2260
     31  O         19.6720  -21.4780    4.4130 O.2    78  ARG78      -0.2867
     32  CB        22.5950  -21.0490    4.2460 C.3    78  ARG78       0.0307
     33  CG        23.5760  -20.7900    3.1050 C.3    78  ARG78       0.0489
     34  CD        24.3900  -22.0030    2.6620 C.3    78  ARG78       0.2205
     35  NE        23.5910  -23.1940    2.3480 N.pl3  78  ARG78      -0.0865
     36  CZ        22.7920  -23.3250    1.2890 C.cat  78  ARG78       0.5346
     37  NH1       22.6240  -22.3170    0.4440 N.pl3  78  ARG78       0.1354
     38  NH2       22.1290  -24.4560    1.0920 N.pl3  78  ARG78       0.1354
     39  N         16.8670  -26.6690    3.6630 N.3    83  VAL83      -0.1231
     40  CA        17.8520  -27.3450    4.5110 C.3    83  VAL83       0.1692
     41  C         18.0950  -26.6220    5.8440 C.2    83  VAL83       0.2592
     42  O         18.0770  -27.2850    6.8730 O.2    83  VAL83      -0.2718
     43  CB        19.1870  -27.6270    3.7490 C.3    83  VAL83       0.0266
     44  CG1       20.1240  -28.5120    4.5660 C.3    83  VAL83       0.0020
     45  CG2       18.9320  -28.2630    2.3830 C.3    83  VAL83       0.0020
     46  N         18.2800  -25.2900    5.8500 N.am   84  PHE84      -0.1976
     47  CA        18.5590  -24.5630    7.1020 C.3    84  PHE84       0.1639
     48  C         17.4610  -23.6100    7.5710 C.2    84  PHE84       0.2290
     49  O         17.6180  -22.9950    8.6210 O.2    84  PHE84      -0.2864
     50  CB        19.9070  -23.8230    7.0060 C.3    84  PHE84       0.0560
     51  CG        21.0330  -24.7350    6.5820 C.ar   84  PHE84      -0.0200
     52  CD1       21.4830  -25.7460    7.4260 C.ar   84  PHE84      -0.0042
     53  CD2       21.5840  -24.6390    5.3110 C.ar   84  PHE84      -0.0042
     54  CE1       22.4850  -26.6260    7.0160 C.ar   84  PHE84      -0.0003
     55  CE2       22.5970  -25.5080    4.9060 C.ar   84  PHE84      -0.0003
     56  CZ        23.0460  -26.4950    5.7680 C.ar   84  PHE84      -0.0000
     57  N         31.1800  -26.8490   -5.3540 N.3   171  LEU171     -0.1245
     58  CA        30.4910  -27.9090   -4.6520 C.3   171  LEU171      0.1561
     59  C         31.4450  -28.8600   -3.9600 C.2   171  LEU171      0.2260
     60  O         31.3250  -29.0830   -2.7940 O.2   171  LEU171     -0.2867
     61  CB        29.6280  -28.6860   -5.6360 C.3   171  LEU171      0.0270
     62  CG        28.1460  -28.9090   -5.4000 C.3   171  LEU171      0.0019
     63  CD1       27.9200  -30.0480   -4.4400 C.3   171  LEU171      0.0001
     64  CD2       27.5070  -27.6590   -4.8700 C.3   171  LEU171      0.0001
     65  N         33.1880  -27.1790   -1.0520 N.3   174  ASN174     -0.1225
     66  CA        32.2600  -27.1310    0.0770 C.3   174  ASN174      0.1785
     67  C         32.0900  -28.4880    0.7410 C.2   174  ASN174      0.2597
     68  O         31.9800  -28.5290    1.9650 O.2   174  ASN174     -0.2718
     69  CB        30.9100  -26.5300   -0.3330 C.3   174  ASN174      0.1169
     70  CG        30.9930  -25.0490   -0.6140 C.2   174  ASN174      0.2627
     71  OD1       32.0840  -24.4650   -0.7000 O.2   174  ASN174     -0.2716
     72  ND2       29.8380  -24.4020   -0.7360 N.am  174  ASN174     -0.0877
     73  N         32.1010  -29.5930   -0.0520 N.am  175  ILE175     -0.1980
     74  CA        31.9920  -30.9540    0.4800 C.3   175  ILE175      0.1595
     75  C         33.2350  -31.2820    1.3090 C.2   175  ILE175      0.2287
     76  O         33.0870  -31.6760    2.4640 O.2   175  ILE175     -0.2864
     77  CB        31.6430  -32.0270   -0.5950 C.3   175  ILE175      0.0276
     78  CG1       30.2200  -31.8080   -1.2080 C.3   175  ILE175      0.0022
     79  CG2       31.8200  -33.4600   -0.0560 C.3   175  ILE175      0.0022
     80  CD1       29.0130  -31.5000   -0.2240 C.3   175  ILE175      0.0001
     81  N         32.9750  -29.2930    4.6460 N.3   178  LEU178     -0.1245
     82  CA        31.9250  -29.9670    5.4080 C.3   178  LEU178      0.1561
     83  C         32.3160  -31.3440    5.9700 C.2   178  LEU178      0.2260
     84  O         31.9070  -31.7110    7.0300 O.2   178  LEU178     -0.2867
     85  CB        30.6900  -30.0750    4.5140 C.3   178  LEU178      0.0270
     86  CG        29.2500  -30.2200    5.0150 C.3   178  LEU178      0.0019
     87  CD1       28.9060  -29.2270    6.1060 C.3   178  LEU178      0.0001
     88  CD2       28.2640  -30.0420    3.8690 C.3   178  LEU178      0.0001
     89  N         34.0660  -21.0540    2.0940 N.3   196  LEU196     -0.1245
     90  CA        32.6800  -21.4640    2.1340 C.3   196  LEU196      0.1561
     91  C         31.7600  -20.3170    1.7760 C.2   196  LEU196      0.2260
     92  O         30.8890  -20.4620    0.9480 O.2   196  LEU196     -0.2867
     93  CB        32.3310  -21.9900    3.5250 C.3   196  LEU196      0.0270
     94  CG        31.6160  -23.3370    3.5950 C.3   196  LEU196      0.0019
     95  CD1       32.4220  -24.3860    2.8690 C.3   196  LEU196      0.0001
     96  CD2       31.3330  -23.7690    5.0190 C.3   196  LEU196      0.0001
     97  N         29.5850  -20.2080   -1.8320 N.3   200  VAL200     -0.1245
     98  CA        28.1340  -20.0650   -1.7490 C.3   200  VAL200      0.1561
     99  C         27.7110  -18.8010   -2.5290 C.2   200  VAL200      0.2260
    100  O         26.7940  -18.8860   -3.3500 O.2   200  VAL200     -0.2867
    101  CB        27.6190  -20.1180   -0.2800 C.3   200  VAL200      0.0252
    102  CG1       26.1580  -19.6830   -0.1730 C.3   200  VAL200      0.0019
    103  CG2       27.7950  -21.5200    0.3070 C.3   200  VAL200      0.0019
    104  N         27.8640  -19.5000   -6.3250 N.3   203  MET203     -0.1245
    105  CA        26.7250  -20.3330   -6.7220 C.3   203  MET203      0.1570
    106  C         25.4390  -19.5150   -6.7410 C.2   203  MET203      0.2261
    107  O         24.6680  -19.6310   -7.6910 O.2   203  MET203     -0.2867
    108  CB        26.6010  -21.5750   -5.8230 C.3   203  MET203      0.0387
    109  CG        27.7080  -22.5890   -6.0690 C.3   203  MET203      0.0595
    110  SD        27.5430  -24.1190   -5.1420 S.3   203  MET203     -0.1393
    111  CE        27.9920  -23.5720   -3.4860 C.3   203  MET203      0.0692
    112  N         20.3640  -23.2430   -4.2900 N.3   255  VAL255     -0.1231
    113  CA        21.6910  -23.6360   -3.7980 C.3   255  VAL255      0.1692
    114  C         21.5420  -24.9200   -2.9530 C.2   255  VAL255      0.2592
    115  O         22.3220  -25.8620   -3.1240 O.2   255  VAL255     -0.2718
    116  CB        22.4430  -22.4860   -3.0480 C.3   255  VAL255      0.0266
    117  CG1       23.7830  -22.9640   -2.4890 C.3   255  VAL255      0.0020
    118  CG2       22.6760  -21.2870   -3.9660 C.3   255  VAL255      0.0020
    119  N         20.5200  -24.9600   -2.0780 N.am  256  ASP256     -0.1974
    120  CA        20.1870  -26.1150   -1.2320 C.3   256  ASP256      0.1709
    121  C         19.9510  -27.3730   -2.0790 C.2   256  ASP256      0.2293
    122  O         20.5490  -28.4110   -1.8000 O.2   256  ASP256     -0.2864
    123  CB        18.9180  -25.8230   -0.4130 C.3   256  ASP256      0.1436
    124  CG        19.1110  -24.9500    0.8070 C.2   256  ASP256      0.3671
    125  OD1       20.2100  -24.3940    0.9720 O.co2 256  ASP256     -0.2456
    126  OD2       18.1650  -24.8410    1.6050 O.co2 256  ASP256     -0.2456
    127  N         20.9280  -27.9370   -5.0980 N.3   258  PHE258     -0.1227
    128  CA        22.1840  -28.2210   -5.7810 C.3   258  PHE258      0.1736
    129  C         23.1540  -28.9650   -4.9070 C.2   258  PHE258      0.2596
    130  O         23.7600  -29.9000   -5.3160 O.2   258  PHE258     -0.2718
    131  CB        22.8450  -26.9120   -6.1870 C.3   258  PHE258      0.0547
    132  CG        22.9580  -26.7200   -7.6430 C.ar  258  PHE258     -0.0202
    133  CD1       23.7490  -27.5320   -8.3890 C.ar  258  PHE258     -0.0042
    134  CD2       22.2810  -25.7290   -8.2520 C.ar  258  PHE258     -0.0042
    135  CE1       23.8540  -27.3670   -9.7370 C.ar  258  PHE258     -0.0003
    136  CE2       22.3730  -25.5460   -9.6070 C.ar  258  PHE258     -0.0003
    137  CZ        23.1600  -26.3750  -10.3560 C.ar  258  PHE258     -0.0000
    138  N         23.2950  -28.5030   -3.6920 N.am  259  GLY259     -0.1942
    139  CA        24.1740  -29.1010   -2.7020 C.3   259  GLY259      0.2014
    140  C         23.7030  -30.4730   -2.2780 C.2   259  GLY259      0.2638
    141  O         24.4420  -31.4470   -2.4340 O.2   259  GLY259     -0.2714
    142  N         22.4690  -30.5480   -1.7320 N.am  260  ALA260     -0.1977
    143  CA        21.8420  -31.7850   -1.2620 C.3   260  ALA260      0.1597
    144  C         21.5720  -32.7880   -2.3910 C.2   260  ALA260      0.2287
    145  O         21.7640  -33.9840   -2.2010 O.2   260  ALA260     -0.2864
    146  CB        20.5570  -31.4760   -0.5050 C.3   260  ALA260      0.0319
    147  N         25.8890  -34.4650   -3.8280 N.3   263  GLU263     -0.1231
    148  CA        26.8090  -35.2750   -3.0320 C.3   263  GLU263      0.1699
    149  C         26.2510  -36.5900   -2.4710 C.2   263  GLU263      0.2592
    150  O         26.9450  -37.6080   -2.5720 O.2   263  GLU263     -0.2718
    151  CB        27.4390  -34.4460   -1.8920 C.3   263  GLU263      0.0402
    152  CG        28.6410  -35.1110   -1.2140 C.3   263  GLU263      0.1161
    153  CD        29.7980  -35.5750   -2.0930 C.2   263  GLU263      0.3649
    154  OE1       30.5140  -36.5060   -1.6620 O.co2 263  GLU263     -0.2457
    155  OE2       30.0150  -34.9950   -3.1820 O.co2 263  GLU263     -0.2457
    156  N         25.0640  -36.5640   -1.8360 N.am  264  THR264     -0.1953
    157  CA        24.4500  -37.7580   -1.2200 C.3   264  THR264      0.1897
    158  C         24.2550  -38.8510   -2.2460 C.2   264  THR264      0.2313
    159  O         24.7240  -39.9690   -2.0430 O.2   264  THR264     -0.2863
    160  CB        23.1510  -37.4280   -0.4590 C.3   264  THR264      0.1794
    161  OG1       22.4060  -36.4570   -1.1810 O.3   264  THR264     -0.2208
    162  CG2       23.4130  -36.9130    0.9470 C.3   264  THR264      0.0378
    163  N         24.4340  -40.9640    6.2220 N.3   325  LEU325     -0.1245
    164  CA        24.3380  -39.8560    7.1760 C.3   325  LEU325      0.1561
    165  C         23.9720  -40.4190    8.5460 C.2   325  LEU325      0.2260
    166  O         22.7840  -40.5390    8.8690 O.2   325  LEU325     -0.2867
    167  CB        23.3420  -38.7890    6.6710 C.3   325  LEU325      0.0270
    168  CG        23.6480  -38.2380    5.2630 C.3   325  LEU325      0.0019
    169  CD1       22.4320  -37.5620    4.6350 C.3   325  LEU325      0.0001
    170  CD2       24.8630  -37.2860    5.2770 C.3   325  LEU325      0.0001
    171  N         21.8020  -37.9040   10.4890 N.3   328  SER328     -0.1202
    172  CA        20.8880  -37.0940    9.6620 C.3   328  SER328      0.2020
    173  C         21.4100  -35.6380    9.6360 C.2   328  SER328      0.2618
    174  O         22.5720  -35.3880    9.2610 O.2   328  SER328     -0.2717
    175  CB        19.4600  -37.1670   10.2340 C.3   328  SER328      0.2103
    176  OG        18.4320  -36.7960    9.3320 O.3   328  SER328     -0.2182
    177  N         20.5530  -34.7000   10.0720 N.am  329  LEU329     -0.1979
    178  CA        20.8300  -33.2780   10.2540 C.3   329  LEU329      0.1596
    179  C         20.2270  -32.9360   11.6030 C.2   329  LEU329      0.2287
    180  O         19.2480  -33.5950   11.9770 O.2   329  LEU329     -0.2864
    181  CB        20.1970  -32.4240    9.1400 C.3   329  LEU329      0.0297
    182  CG        21.0820  -32.1930    7.9110 C.3   329  LEU329      0.0022
    183  CD1       20.3200  -31.4540    6.8480 C.3   329  LEU329      0.0001
    184  CD2       22.3570  -31.4280    8.2630 C.3   329  LEU329      0.0001
    185  N         13.8640  -36.1240    3.8010 N.3   398  CYS398     -0.1235
    186  CA        14.4730  -35.6390    2.5740 C.3   398  CYS398      0.1677
    187  C         13.4330  -35.4060    1.4560 C.2   398  CYS398      0.2270
    188  O         12.8010  -36.3550    1.0150 O.2   398  CYS398     -0.2867
    189  CB        15.5700  -36.5900    2.1260 C.3   398  CYS398      0.0956
    190  SG        16.1840  -36.2630    0.4670 S.3   398  CYS398     -0.0801
    191  N         30.9560  -35.7010    8.1430 N.3   439  PHE439     -0.1241
    192  CA        29.4930  -35.7210    8.0250 C.3   439  PHE439      0.1605
    193  C         28.9240  -37.0060    7.4120 C.2   439  PHE439      0.2264
    194  O         27.8350  -37.4070    7.8220 O.2   439  PHE439     -0.2867
    195  CB        28.9420  -34.4610    7.3030 C.3   439  PHE439      0.0534
    196  CG        28.9530  -34.4630    5.7820 C.ar  439  PHE439     -0.0203
    197  CD1       30.1310  -34.2680    5.0770 C.ar  439  PHE439     -0.0042
    198  CD2       27.7670  -34.5980    5.0660 C.ar  439  PHE439     -0.0042
    199  CE1       30.1350  -34.2410    3.6770 C.ar  439  PHE439     -0.0003
    200  CE2       27.7700  -34.5760    3.6670 C.ar  439  PHE439     -0.0003
    201  CZ        28.9520  -34.4300    2.9780 C.ar  439  PHE439     -0.0000
@<TRIPOS>BOND
     1   137   135   ar
     2   137   136   ar
     3   135   133   ar
     4   136   134   ar
     5   133   132   ar
     6   134   132   ar
     7   107   106    2
     8   132   131    1
     9   106   105    1
    10   105   104    1
    11   105   108    1
    12   131   128    1
    13   109   108    1
    14   109   110    1
    15   128   127    1
    16   128   129    1
    17    61    62    1
    18    61    58    1
    19    62    64    1
    20    62    63    1
    21    57    58    1
    22   130   129    2
    23   110   111    1
    24   129   138   am
    25    58    59    1
    26   112   113    1
    27   118   116    1
    28    59    60    2
    29   147   148    1
    30   113   116    1
    31   113   114    1
    32   138   139    1
    33   100    99    2
    34   155   153   ar
    35   115   114    2
    36   116   117    1
    37   148   149    1
    38   148   151    1
    39   114   119   am
    40   139   140    1
    41   150   149    2
    42    99    98    1
    43   149   156   am
    44   141   140    2
    45   144   145    2
    46   144   143    1
    47   140   142   am
    48   158   159    2
    49   158   157    1
    50   153   154   ar
    51   153   152    1
    52   121   122    2
    53   121   120    1
    54   119   120    1
    55   151   152    1
    56   156   157    1
    57    97    98    1
    58    98   101    1
    59   142   143    1
    60   143   146    1
    61   120   123    1
    62   157   160    1
    63    78    77    1
    64    78    80    1
    65   161   160    1
    66    65    66    1
    67    72    70   am
    68    71    70    2
    69    70    69    1
    70    77    79    1
    71    77    74    1
    72   160   162    1
    73   123   124    1
    74    69    66    1
    75   101   102    1
    76   101   103    1
    77    73    74    1
    78    73    67   am
    79    66    67    1
    80    37    36    1
    81   190   189    1
    82    74    75    1
    83    67    68    2
    84   124   125   ar
    85   124   126   ar
    86    92    91    2
    87   188   187    2
    88    38    36    1
    89    36    35    2
    90    75    76    2
    91   187   186    1
    92    91    90    1
    93    89    90    1
    94   189   186    1
    95    90    93    1
    96    35    34    1
    97    45    43    1
    98   186   185    1
    99    34    33    1
   100    95    94    1
   101   201   200   ar
   102   201   199   ar
   103    33    32    1
   104    93    94    1
   105    94    96    1
   106    39    40    1
   107   200   198   ar
   108   199   197   ar
   109    43    40    1
   110    43    44    1
   111    88    86    1
   112    32    29    1
   113    29    30    1
   114    29    28    1
   115    31    30    2
   116    40    41    1
   117    85    86    1
   118    85    82    1
   119   169   168    1
   120    81    82    1
   121    55    53   ar
   122    55    56   ar
   123    86    87    1
   124   198   196   ar
   125   197   196   ar
   126   168   170    1
   127   168   167    1
   128    53    51   ar
   129    82    83    1
   130    56    54   ar
   131   196   195    1
   132    41    46   am
   133    41    42    2
   134    46    47    1
   135    83    84    2
   136   163   164    1
   137    51    50    1
   138    51    52   ar
   139   167   164    1
   140    24    23    1
   141    24    25    1
   142    23    20    1
   143   183   182    1
   144    50    47    1
   145    54    52   ar
   146    27    25   ar
   147    47    48    1
   148   164   165    1
   149   195   192    1
   150   193   194    2
   151   193   192    1
   152    25    26   ar
   153    22    21    2
   154    48    49    2
   155    21    20    1
   156   182   184    1
   157   182   181    1
   158   192   191    1
   159    20    19    1
   160    10    11   ar
   161    10     8   ar
   162   165   166    2
   163    11     9   ar
   164     8     6   ar
   165   181   178    1
   166   174   173    2
   167   176   175    1
   168   173   172    1
   169   173   177   am
   170   172   175    1
   171   172   171    1
   172    17    18    1
   173    17    16    1
   174   177   178    1
   175   178   179    1
   176     9     7   ar
   177     6     7   ar
   178     6     5    1
   179    18    12    1
   180    16    13    1
   181     5     2    1
   182   179   180    2
   183    12    13    1
   184    12     3   am
   185    13    14    1
   186     2     3    1
   187     2     1    1
   188    14    15    2
   189     3     4    2
