@<TRIPOS>MOLECULE
tmp/5k7xE01.pdb
 192 185 0 0 0
SMALL
GASTEIGER

@<TRIPOS>ATOM
      1  N         10.8930   35.5520    1.0490 N.3    10  TRP10      -0.1227
      2  CA        11.1990   35.8500    2.4450 C.3    10  TRP10       0.1737
      3  C         10.0130   36.4890    3.1450 C.2    10  TRP10       0.2596
      4  O         10.1710   37.4210    3.9320 O.2    10  TRP10      -0.2718
      5  CB        12.4220   36.7630    2.5520 C.3    10  TRP10       0.0564
      6  CG        13.7220   36.0500    2.3430 C.ar   10  TRP10       0.0003
      7  CD1       14.4390   35.3670    3.2810 C.ar   10  TRP10       0.0946
      8  CD2       14.4600   35.9490    1.1200 C.ar   10  TRP10       0.0152
      9  NE1       15.5790   34.8450    2.7170 N.ar   10  TRP10      -0.2442
     10  CE2       15.6150   35.1880    1.3940 C.ar   10  TRP10       0.0810
     11  CE3       14.2570   36.4280   -0.1760 C.ar   10  TRP10       0.0012
     12  CZ2       16.5620   34.8970    0.4130 C.ar   10  TRP10       0.0191
     13  CZ3       15.2000   36.1360   -1.1450 C.ar   10  TRP10       0.0001
     14  CH2       16.3370   35.3790   -0.8450 C.ar   10  TRP10       0.0015
     15  N          8.8240   35.9760    2.8510 N.am   11  GLY11      -0.1942
     16  CA         7.6070   36.4870    3.4450 C.3    11  GLY11       0.2014
     17  C          7.1160   37.7330    2.7480 C.2    11  GLY11       0.2638
     18  O          7.7740   38.2550    1.8440 O.2    11  GLY11      -0.2714
     19  N          5.9560   38.2150    3.1850 N.am   12  ASP12      -0.1971
     20  CA         5.3530   39.4460    2.6640 C.3    12  ASP12       0.1709
     21  C          5.0980   39.3990    1.1570 C.2    12  ASP12       0.2293
     22  O          5.0900   40.4320    0.4970 O.2    12  ASP12      -0.2864
     23  CB         6.2310   40.6500    3.0040 C.3    12  ASP12       0.1436
     24  CG         6.5650   40.7280    4.4800 C.2    12  ASP12       0.3671
     25  OD1        5.6680   40.4550    5.3030 O.co2  12  ASP12      -0.2456
     26  OD2        7.7080   41.1180    4.8140 O.co2  12  ASP12      -0.2456
     27  N          4.2620   36.5620   14.6300 N.3    39  ASN39      -0.1225
     28  CA         5.3400   37.3640   14.0740 C.3    39  ASN39       0.1785
     29  C          5.0400   37.8050   12.6720 C.2    39  ASN39       0.2597
     30  O          5.7290   38.5990   12.0970 O.2    39  ASN39      -0.2718
     31  CB         6.6600   36.6120   14.1460 C.3    39  ASN39       0.1169
     32  CG         6.6540   35.3610   13.3480 C.2    39  ASN39       0.2627
     33  OD1        5.6500   34.7130   13.1960 O.2    39  ASN39      -0.2716
     34  ND2        7.7930   35.0070   12.8520 N.am   39  ASN39      -0.0877
     35  N          3.9680   37.2510   12.1450 N.am   40  ALA40      -0.1966
     36  CA         3.5290   37.5120   10.7800 C.3    40  ALA40       0.1728
     37  C          2.5720   38.6960   10.7180 C.2    40  ALA40       0.2617
     38  O          1.7290   38.8770   11.5960 O.2    40  ALA40      -0.2715
     39  CB         2.8740   36.2730   10.1920 C.3    40  ALA40       0.0334
     40  N          2.7090   39.4990    9.6690 N.am   41  GLY41      -0.1940
     41  CA         1.8010   40.6040    9.4330 C.3    41  GLY41       0.2014
     42  C          1.1640   40.4730    8.0650 C.2    41  GLY41       0.2638
     43  O          1.8170   40.6890    7.0430 O.2    41  GLY41      -0.2714
     44  N         -0.1160   40.1120    8.0490 N.am   42  HIS42      -0.1973
     45  CA        -0.8320   39.8840    6.8000 C.3    42  HIS42       0.1656
     46  C         -1.8280   41.0060    6.5500 C.2    42  HIS42       0.2291
     47  O         -2.7500   41.2150    7.3400 O.2    42  HIS42      -0.2864
     48  CB        -1.5590   38.5350    6.8260 C.3    42  HIS42       0.0771
     49  CG        -0.6500   37.3530    6.9630 C.ar   42  HIS42       0.0820
     50  ND1       -0.9120   36.1410    6.3610 N.ar   42  HIS42      -0.2267
     51  CD2        0.5160   37.1940    7.6340 C.ar   42  HIS42       0.1154
     52  CE1        0.0540   35.2880    6.6530 C.ar   42  HIS42       0.1986
     53  NE2        0.9330   35.9020    7.4230 N.ar   42  HIS42      -0.2212
     54  N         12.8550   38.5260   23.2550 N.3   113  ASP113     -0.1239
     55  CA        12.9470   38.6070   21.8030 C.3   113  ASP113      0.1674
     56  C         13.2310   40.0350   21.3440 C.2   113  ASP113      0.2266
     57  O         13.8250   40.2560   20.2870 O.2   113  ASP113     -0.2867
     58  CB        11.6520   38.1000   21.1610 C.3   113  ASP113      0.1410
     59  CG        11.8090   37.8030   19.6800 C.2   113  ASP113      0.3668
     60  OD1       12.9430   37.9080   19.1690 O.co2 113  ASP113     -0.2456
     61  OD2       10.7980   37.4630   19.0280 O.co2 113  ASP113     -0.2456
     62  N         19.1160   38.0090   18.9780 N.3   119  LEU119     -0.1245
     63  CA        17.8340   37.9780   18.2890 C.3   119  LEU119      0.1561
     64  C         17.4390   39.3530   17.7410 C.2   119  LEU119      0.2260
     65  O         16.8940   39.4520   16.6450 O.2   119  LEU119     -0.2867
     66  CB        16.7430   37.4430   19.2220 C.3   119  LEU119      0.0270
     67  CG        16.6870   35.9110   19.3570 C.3   119  LEU119      0.0019
     68  CD1       15.6430   35.4880   20.3910 C.3   119  LEU119      0.0001
     69  CD2       16.5040   35.1820   18.0290 C.3   119  LEU119      0.0001
     70  N         19.8470   39.1380   13.9740 N.3   123  ILE123     -0.1231
     71  CA        19.0100   38.3980   13.0300 C.3   123  ILE123      0.1692
     72  C         18.2920   39.2800   11.9800 C.2   123  ILE123      0.2593
     73  O         18.4160   38.9890   10.7900 O.2   123  ILE123     -0.2718
     74  CB        17.9920   37.4880   13.7800 C.3   123  ILE123      0.0266
     75  CG1       18.7390   36.5440   14.7240 C.3   123  ILE123      0.0019
     76  CG2       17.1390   36.7060   12.7910 C.3   123  ILE123      0.0020
     77  CD1       19.7760   35.6790   14.0340 C.3   123  ILE123      0.0001
     78  N         17.5430   40.3250   12.3510 N.am  124  GLY124     -0.1942
     79  CA        17.1200   40.6510   13.7010 C.3   124  GLY124      0.2014
     80  C         15.6230   40.4220   13.7430 C.2   124  GLY124      0.2640
     81  O         14.9080   40.7860   12.8070 O.2   124  GLY124     -0.2714
     82  N         15.1390   39.8260   14.8260 N.am  125  THR125     -0.1936
     83  CA        13.7690   39.3230   14.8570 C.3   125  THR125      0.2028
     84  C         12.6860   40.3950   14.8800 C.2   125  THR125      0.2642
     85  O         12.9540   41.5920   14.7560 O.2   125  THR125     -0.2714
     86  CB        13.5480   38.4000   16.0670 C.3   125  THR125      0.1808
     87  OG1       13.7270   39.1460   17.2790 O.3   125  THR125     -0.2208
     88  CG2       14.5190   37.2370   16.0290 C.3   125  THR125      0.0379
     89  N         11.4530   39.9330   15.0470 N.am  126  THR126     -0.1950
     90  CA        10.2830   40.7920   15.0120 C.3   126  THR126      0.1897
     91  C          9.9820   41.3930   16.3830 C.2   126  THR126      0.2313
     92  O          9.6040   42.5580   16.4920 O.2   126  THR126     -0.2863
     93  CB         9.0580   40.0020   14.5100 C.3   126  THR126      0.1794
     94  OG1        8.9440   38.7790   15.2480 O.3   126  THR126     -0.2208
     95  CG2        9.1810   39.6890   13.0330 C.3   126  THR126      0.0378
     96  N          7.9760   35.0490   19.3120 N.3   130  CYS130     -0.1221
     97  CA         7.7470   33.7510   18.6850 C.3   130  CYS130      0.1808
     98  C          8.9690   32.8480   18.7930 C.2   130  CYS130      0.2601
     99  O          8.8410   31.6360   18.9810 O.2   130  CYS130     -0.2717
    100  CB         7.3500   33.9280   17.2200 C.3   130  CYS130      0.0970
    101  SG         5.6860   34.6000   16.9990 S.3   130  CYS130     -0.0800
    102  N         10.1490   33.4430   18.6590 N.am  131  GLY131     -0.1957
    103  CA        11.3920   32.7120   18.8180 C.3   131  GLY131      0.1869
    104  C         11.5070   32.0420   20.1760 C.2   131  GLY131      0.2309
    105  O         11.5040   30.8140   20.2600 O.2   131  GLY131     -0.2863
    106  N          5.1460   33.5770    6.6200 N.3   178  GLN178     -0.1245
    107  CA         6.4850   33.7610    6.0590 C.3   178  GLN178      0.1566
    108  C          6.7460   33.4010    4.5980 C.2   178  GLN178      0.2260
    109  O          5.9620   33.7350    3.7100 O.2   178  GLN178     -0.2867
    110  CB         7.5570   33.3220    7.0630 C.3   178  GLN178      0.0367
    111  CG         7.6250   34.1950    8.3060 C.3   178  GLN178      0.0905
    112  CD         6.7110   33.7130    9.4130 C.2   178  GLN178      0.2608
    113  OE1        6.4320   32.5210    9.5280 O.2   178  GLN178     -0.2717
    114  NE2        6.2270   34.6440   10.2250 N.am  178  GLN178     -0.0878
    115  N         12.7290   31.8510    4.7700 N.3   182  LEU182     -0.1245
    116  CA        12.8020   32.0220    6.2130 C.3   182  LEU182      0.1561
    117  C         12.6160   30.7010    6.9460 C.2   182  LEU182      0.2260
    118  O         12.4820   30.6770    8.1680 O.2   182  LEU182     -0.2867
    119  CB        11.7510   33.0260    6.6830 C.3   182  LEU182      0.0270
    120  CG        11.9490   34.4600    6.1980 C.3   182  LEU182      0.0019
    121  CD1       10.7960   35.3370    6.6590 C.3   182  LEU182      0.0001
    122  CD2       13.2830   35.0100    6.6760 C.3   182  LEU182      0.0001
    123  N         19.5490   33.3580    9.6160 N.3   191  TYR191     -0.1227
    124  CA        18.6440   34.4580    9.3050 C.3   191  TYR191      0.1736
    125  C         17.3020   33.9290    8.8160 C.2   191  TYR191      0.2595
    126  O         16.9150   34.1350    7.6660 O.2   191  TYR191     -0.2718
    127  CB        19.2760   35.3870    8.2710 C.3   191  TYR191      0.0548
    128  CG        20.6310   35.9000    8.7040 C.ar  191  TYR191     -0.0200
    129  CD1       20.7420   36.9450    9.6130 C.ar  191  TYR191     -0.0009
    130  CD2       21.7990   35.3240    8.2220 C.ar  191  TYR191     -0.0009
    131  CE1       21.9800   37.4120   10.0190 C.ar  191  TYR191      0.0417
    132  CE2       23.0390   35.7830    8.6220 C.ar  191  TYR191      0.0417
    133  CZ        23.1250   36.8260    9.5210 C.ar  191  TYR191      0.1957
    134  OH        24.3580   37.2860    9.9230 O.3   191  TYR191     -0.2866
    135  N         16.6070   33.2310    9.7060 N.am  192  VAL192     -0.1966
    136  CA        15.3250   32.6140    9.4000 C.3   192  VAL192      0.1727
    137  C         14.3700   32.7980   10.5710 C.2   192  VAL192      0.2617
    138  O         14.6940   33.4780   11.5440 O.2   192  VAL192     -0.2715
    139  CB        15.4770   31.1120    9.0900 C.3   192  VAL192      0.0290
    140  CG1       16.2480   30.9130    7.7990 C.3   192  VAL192      0.0023
    141  CG2       16.1620   30.3940   10.2500 C.3   192  VAL192      0.0023
    142  N         13.1850   32.2090   10.4720 N.am  193  THR193     -0.1937
    143  CA        12.2560   32.2160   11.5930 C.3   193  THR193      0.2028
    144  C         12.4900   30.9640   12.4370 C.2   193  THR193      0.2642
    145  O         13.3700   30.1600   12.1330 O.2   193  THR193     -0.2714
    146  CB        10.7910   32.2890   11.1260 C.3   193  THR193      0.1808
    147  OG1        9.9480   32.6170   12.2360 O.3   193  THR193     -0.2208
    148  CG2       10.3490   30.9680   10.5170 C.3   193  THR193      0.0379
    149  N         11.7040   30.7990   13.4950 N.am  194  SER194     -0.1949
    150  CA        11.9570   29.7550   14.4840 C.3   194  SER194      0.1924
    151  C         11.3250   28.4090   14.1320 C.2   194  SER194      0.2314
    152  O         11.1250   27.5660   15.0090 O.2   194  SER194     -0.2863
    153  CB        11.4520   30.2120   15.8520 C.3   194  SER194      0.2116
    154  OG        10.0600   30.4720   15.8140 O.3   194  SER194     -0.2180
    155  N         13.0750   41.5250    1.8880 N.3   226  ARG226     -0.1231
    156  CA        13.5830   40.9770    3.1330 C.3   226  ARG226      0.1694
    157  C         13.4820   41.9910    4.2620 C.2   226  ARG226      0.2592
    158  O         13.9560   43.1200    4.1410 O.2   226  ARG226     -0.2718
    159  CB        15.0340   40.5370    2.9670 C.3   226  ARG226      0.0321
    160  CG        15.1860   39.1890    2.3020 C.3   226  ARG226      0.0489
    161  CD        16.4190   38.4710    2.8040 C.3   226  ARG226      0.2205
    162  NE        16.2330   37.9660    4.1580 N.pl3 226  ARG226     -0.0865
    163  CZ        17.0080   37.0450    4.7180 C.cat 226  ARG226      0.5346
    164  NH1       18.0170   36.5250    4.0340 N.pl3 226  ARG226      0.1354
    165  NH2       16.7700   36.6380    5.9570 N.pl3 226  ARG226      0.1354
    166  N         12.8500   41.5900    5.3570 N.am  227  VAL227     -0.1966
    167  CA        12.8720   42.3900    6.5700 C.3   227  VAL227      0.1727
    168  C         13.9470   41.8310    7.4870 C.2   227  VAL227      0.2617
    169  O         13.9860   40.6290    7.7450 O.2   227  VAL227     -0.2715
    170  CB        11.5170   42.3840    7.2940 C.3   227  VAL227      0.0290
    171  CG1       11.5910   43.2340    8.5510 C.3   227  VAL227      0.0023
    172  CG2       10.4160   42.8800    6.3700 C.3   227  VAL227      0.0023
    173  N         14.8280   42.6970    7.9700 N.am  228  GLY228     -0.1940
    174  CA        15.9060   42.2580    8.8340 C.3   228  GLY228      0.2014
    175  C         17.1400   41.8690    8.0450 C.2   228  GLY228      0.2638
    176  O         17.1850   42.0350    6.8260 O.2   228  GLY228     -0.2714
    177  N         18.1390   41.3340    8.7410 N.am  229  ALA229     -0.1977
    178  CA        19.4150   40.9990    8.1180 C.3   229  ALA229      0.1597
    179  C         19.3660   39.6480    7.4100 C.2   229  ALA229      0.2287
    180  O         18.3570   38.9430    7.4640 O.2   229  ALA229     -0.2864
    181  CB        20.5270   41.0090    9.1570 C.3   229  ALA229      0.0319
    182  N          9.4750   48.5520    9.9270 N.3   255  ARG255     -0.1245
    183  CA        10.7950   48.7280    9.3260 C.3   255  ARG255      0.1563
    184  C         10.6850   48.6570    7.8100 C.2   255  ARG255      0.2260
    185  O          9.8240   47.9540    7.2790 O.2   255  ARG255     -0.2867
    186  CB        11.7920   47.6820    9.8360 C.3   255  ARG255      0.0307
    187  CG        12.2840   47.9310   11.2540 C.3   255  ARG255      0.0489
    188  CD        13.2290   46.8230   11.7080 C.3   255  ARG255      0.2205
    189  NE        12.5900   45.5100   11.7380 N.pl3 255  ARG255     -0.0865
    190  CZ        13.2520   44.3650   11.8850 C.cat 255  ARG255      0.5346
    191  NH1       14.5740   44.3710   12.0160 N.pl3 255  ARG255      0.1354
    192  NH2       12.5970   43.2110   11.8950 N.pl3 255  ARG255      0.1354
@<TRIPOS>BOND
     1    13    14   ar
     2    13    11   ar
     3    14    12   ar
     4    11     8   ar
     5    12    10   ar
     6    22    21    2
     7     1     2    1
     8     8    10   ar
     9     8     6   ar
    10    21    20    1
    11    10     9   ar
    12    18    17    2
    13   155   156    1
    14   160   161    1
    15   160   159    1
    16     6     5    1
    17     6     7   ar
    18     2     5    1
    19     2     3    1
    20    20    23    1
    21    20    19    1
    22     9     7   ar
    23    17    19   am
    24    17    16    1
    25   161   162    1
    26    15     3   am
    27    15    16    1
    28   159   156    1
    29    23    24    1
    30   156   157    1
    31     3     4    2
    32   109   108    2
    33   164   163    1
    34   158   157    2
    35   162   163    2
    36   157   166   am
    37    24    26   ar
    38    24    25   ar
    39   108   107    1
    40   163   165    1
    41   115   116    1
    42   166   167    1
    43   107   106    1
    44   107   110    1
    45   120   121    1
    46   120   122    1
    47   120   119    1
    48   116   119    1
    49   116   117    1
    50    50    52   ar
    51    50    49   ar
    52   172   170    1
    53    46    45    1
    54    46    47    2
    55   167   170    1
    56   167   168    1
    57    52    53   ar
    58    45    48    1
    59    45    44    1
    60    48    49    1
    61   176   175    2
    62   117   118    2
    63    49    51   ar
    64    43    42    2
    65   110   111    1
    66   185   184    2
    67   170   171    1
    68   179   180    2
    69   179   178    1
    70    53    51   ar
    71   168   169    2
    72   168   173   am
    73   126   125    2
    74   140   139    1
    75   184   183    1
    76   173   174    1
    77   175   177   am
    78   175   174    1
    79    44    42   am
    80    42    41    1
    81   178   177    1
    82   178   181    1
    83   130   132   ar
    84   130   128   ar
    85   127   128    1
    86   127   124    1
    87   111   112    1
    88   132   133   ar
    89   128   129   ar
    90   125   124    1
    91   125   135   am
    92   139   136    1
    93   139   141    1
    94   124   123    1
    95   183   186    1
    96   183   182    1
    97   136   135    1
    98   136   137    1
    99   112   113    2
   100   112   114   am
   101    41    40    1
   102   133   134    1
   103   133   131   ar
   104   129   131   ar
   105    40    37   am
   106   186   187    1
   107    39    36    1
   108   142   137   am
   109   142   143    1
   110   148   146    1
   111   137   138    2
   112    37    36    1
   113    37    38    2
   114    36    35    1
   115    73    72    2
   116   146   143    1
   117   146   147    1
   118   187   188    1
   119   143   144    1
   120   188   189    1
   121   189   190    2
   122   190   192    1
   123   190   191    1
   124    72    78   am
   125    72    71    1
   126    30    29    2
   127   145   144    2
   128    35    29   am
   129    78    79    1
   130   144   149   am
   131    29    28    1
   132    76    74    1
   133    81    80    2
   134    34    32   am
   135    71    74    1
   136    71    70    1
   137    95    93    1
   138    33    32    2
   139    32    31    1
   140   149   150    1
   141    79    80    1
   142    80    82   am
   143    74    75    1
   144    77    75    1
   145    28    31    1
   146    28    27    1
   147   151   150    1
   148   151   152    2
   149   150   153    1
   150    93    90    1
   151    93    94    1
   152    85    84    2
   153    82    83    1
   154    83    84    1
   155    83    86    1
   156    84    89   am
   157    90    89    1
   158    90    91    1
   159   154   153    1
   160    88    86    1
   161    86    87    1
   162    91    92    2
   163    65    64    2
   164   101   100    1
   165   100    97    1
   166    64    63    1
   167    69    67    1
   168    63    62    1
   169    63    66    1
   170   102    98   am
   171   102   103    1
   172    97    98    1
   173    97    96    1
   174    98    99    2
   175   103   104    1
   176    61    59   ar
   177    60    59   ar
   178    66    67    1
   179    67    68    1
   180    59    58    1
   181   104   105    2
   182    57    56    2
   183    58    55    1
   184    56    55    1
   185    55    54    1
