@<TRIPOS>MOLECULE
tmp/5k7xE02.pdb
 75 69 0 0 0
SMALL
GASTEIGER

@<TRIPOS>ATOM
      1  N          5.9560   38.2150    3.1850 N.3    12  ASP12      -0.1239
      2  CA         5.3530   39.4460    2.6640 C.3    12  ASP12       0.1674
      3  C          5.0980   39.3990    1.1570 C.2    12  ASP12       0.2266
      4  O          5.0900   40.4320    0.4970 O.2    12  ASP12      -0.2867
      5  CB         6.2310   40.6500    3.0040 C.3    12  ASP12       0.1410
      6  CG         6.5650   40.7280    4.4800 C.2    12  ASP12       0.3668
      7  OD1        5.6680   40.4550    5.3030 O.co2  12  ASP12      -0.2456
      8  OD2        7.7080   41.1180    4.8140 O.co2  12  ASP12      -0.2456
      9  N          4.2620   36.5620   14.6300 N.3    39  ASN39      -0.1225
     10  CA         5.3400   37.3640   14.0740 C.3    39  ASN39       0.1785
     11  C          5.0400   37.8050   12.6720 C.2    39  ASN39       0.2597
     12  O          5.7290   38.5990   12.0970 O.2    39  ASN39      -0.2718
     13  CB         6.6600   36.6120   14.1460 C.3    39  ASN39       0.1169
     14  CG         6.6540   35.3610   13.3480 C.2    39  ASN39       0.2627
     15  OD1        5.6500   34.7130   13.1960 O.2    39  ASN39      -0.2716
     16  ND2        7.7930   35.0070   12.8520 N.am   39  ASN39      -0.0877
     17  N          3.9680   37.2510   12.1450 N.am   40  ALA40      -0.1966
     18  CA         3.5290   37.5120   10.7800 C.3    40  ALA40       0.1728
     19  C          2.5720   38.6960   10.7180 C.2    40  ALA40       0.2616
     20  O          1.7290   38.8770   11.5960 O.2    40  ALA40      -0.2715
     21  CB         2.8740   36.2730   10.1920 C.3    40  ALA40       0.0334
     22  N          2.7090   39.4990    9.6690 N.am   41  GLY41      -0.1955
     23  CA         1.8010   40.6040    9.4330 C.3    41  GLY41       0.1869
     24  C          1.1640   40.4730    8.0650 C.2    41  GLY41       0.2309
     25  O          1.8170   40.6890    7.0430 O.2    41  GLY41      -0.2863
     26  N         11.4530   39.9330   15.0470 N.3   126  THR126     -0.1218
     27  CA        10.2830   40.7920   15.0120 C.3   126  THR126      0.1862
     28  C          9.9820   41.3930   16.3830 C.2   126  THR126      0.2287
     29  O          9.6040   42.5580   16.4920 O.2   126  THR126     -0.2866
     30  CB         9.0580   40.0020   14.5100 C.3   126  THR126      0.1770
     31  OG1        8.9440   38.7790   15.2480 O.3   126  THR126     -0.2211
     32  CG2        9.1810   39.6890   13.0330 C.3   126  THR126      0.0375
     33  N         12.8500   41.5900    5.3570 N.3   227  VAL227     -0.1245
     34  CA        12.8720   42.3900    6.5700 C.3   227  VAL227      0.1561
     35  C         13.9470   41.8310    7.4870 C.2   227  VAL227      0.2260
     36  O         13.9860   40.6290    7.7450 O.2   227  VAL227     -0.2867
     37  CB        11.5170   42.3840    7.2940 C.3   227  VAL227      0.0252
     38  CG1       11.5910   43.2340    8.5510 C.3   227  VAL227      0.0019
     39  CG2       10.4160   42.8800    6.3700 C.3   227  VAL227      0.0019
     40  N          7.2090   47.3350    7.2970 N.3   250  GLY250     -0.1210
     41  CA         6.7470   46.1740    8.0360 C.3   250  GLY250      0.1956
     42  C          5.3780   46.3470    8.6630 C.2   250  GLY250      0.2613
     43  O          5.0760   47.3870    9.2460 O.2   250  GLY250     -0.2717
     44  N          4.5450   45.3210    8.5380 N.am  251  THR251     -0.1938
     45  CA         3.1970   45.3620    9.0850 C.3   251  THR251      0.2028
     46  C          3.2350   45.3780   10.6130 C.2   251  THR251      0.2642
     47  O          2.3590   45.9480   11.2630 O.2   251  THR251     -0.2714
     48  CB         2.3660   44.1550    8.6060 C.3   251  THR251      0.1808
     49  OG1        2.5370   43.9820    7.1930 O.3   251  THR251     -0.2208
     50  CG2        0.8910   44.3540    8.9190 C.3   251  THR251      0.0379
     51  N          4.2760   44.7750   11.1790 N.am  252  VAL252     -0.1963
     52  CA         4.3770   44.6100   12.6240 C.3   252  VAL252      0.1727
     53  C          5.4020   45.5630   13.2360 C.2   252  VAL252      0.2616
     54  O          5.1420   46.1830   14.2680 O.2   252  VAL252     -0.2715
     55  CB         4.7550   43.1610   12.9950 C.3   252  VAL252      0.0290
     56  CG1        4.9360   43.0260   14.4970 C.3   252  VAL252      0.0023
     57  CG2        3.6950   42.1920   12.4990 C.3   252  VAL252      0.0023
     58  N          6.5600   45.6890   12.5930 N.am  253  THR253     -0.1951
     59  CA         7.6530   46.4780   13.1550 C.3   253  THR253      0.1897
     60  C          7.8080   47.8370   12.4740 C.2   253  THR253      0.2313
     61  O          8.4770   48.7310   12.9970 O.2   253  THR253     -0.2863
     62  CB         8.9940   45.7250   13.0520 C.3   253  THR253      0.1794
     63  OG1        9.5970   45.9890   11.7790 O.3   253  THR253     -0.2208
     64  CG2        8.7790   44.2260   13.2080 C.3   253  THR253      0.0378
     65  N         11.2970   47.5930    4.0710 N.3   257  ARG257     -0.1245
     66  CA        11.6450   46.3340    3.4320 C.3   257  ARG257      0.1563
     67  C         12.7750   46.5020    2.4200 C.2   257  ARG257      0.2260
     68  O         12.7190   47.3620    1.5400 O.2   257  ARG257     -0.2867
     69  CB        10.4210   45.7260    2.7440 C.3   257  ARG257      0.0307
     70  CG         9.4100   45.1120    3.6940 C.3   257  ARG257      0.0489
     71  CD         8.1120   44.7830    2.9740 C.3   257  ARG257      0.2205
     72  NE         7.1040   44.2400    3.8800 N.pl3 257  ARG257     -0.0865
     73  CZ         5.8060   44.1800    3.6030 C.cat 257  ARG257      0.5346
     74  NH1        5.3530   44.6310    2.4420 N.pl3 257  ARG257      0.1354
     75  NH2        4.9580   43.6690    4.4870 N.pl3 257  ARG257      0.1354
@<TRIPOS>BOND
     1     4     3    2
     2     3     2    1
     3    68    67    2
     4    67    66    1
     5    74    73    1
     6     2     5    1
     7     2     1    1
     8    69    66    1
     9    69    70    1
    10    71    70    1
    11    71    72    1
    12     5     6    1
    13    66    65    1
    14    73    72    2
    15    73    75    1
    16     6     8   ar
    17     6     7   ar
    18    33    34    1
    19    39    37    1
    20    34    37    1
    21    34    35    1
    22    25    24    2
    23    49    48    1
    24    37    38    1
    25    40    41    1
    26    35    36    2
    27    41    42    1
    28    24    23    1
    29    44    42   am
    30    44    45    1
    31    48    50    1
    32    48    45    1
    33    42    43    2
    34    45    46    1
    35    23    22    1
    36    22    19   am
    37    21    18    1
    38    46    51   am
    39    46    47    2
    40    19    18    1
    41    19    20    2
    42    18    17    1
    43    51    52    1
    44    63    62    1
    45    12    11    2
    46    17    11   am
    47    60    61    2
    48    60    59    1
    49    57    55    1
    50    58    59    1
    51    58    53   am
    52    52    55    1
    53    52    53    1
    54    11    10    1
    55    16    14   am
    56    55    56    1
    57    32    30    1
    58    62    59    1
    59    62    64    1
    60    15    14    2
    61    53    54    2
    62    14    13    1
    63    10    13    1
    64    10     9    1
    65    30    27    1
    66    30    31    1
    67    27    26    1
    68    27    28    1
    69    28    29    2
