@<TRIPOS>MOLECULE
tmp/5k7xE00.pdb
 180 171 0 0 0
SMALL
GASTEIGER

@<TRIPOS>ATOM
      1  N          8.8240   35.9760    2.8510 N.3    11  GLY11      -0.1210
      2  CA         7.6070   36.4870    3.4450 C.3    11  GLY11       0.1956
      3  C          7.1160   37.7330    2.7480 C.2    11  GLY11       0.2612
      4  O          7.7740   38.2550    1.8440 O.2    11  GLY11      -0.2717
      5  N          5.9560   38.2150    3.1850 N.am   12  ASP12      -0.1959
      6  CA         5.3530   39.4460    2.6640 C.3    12  ASP12       0.1840
      7  C          5.0980   39.3990    1.1570 C.2    12  ASP12       0.2622
      8  O          5.0900   40.4320    0.4970 O.2    12  ASP12      -0.2715
      9  CB         6.2310   40.6500    3.0040 C.3    12  ASP12       0.1450
     10  CG         6.5650   40.7280    4.4800 C.2    12  ASP12       0.3671
     11  OD1        5.6680   40.4550    5.3030 O.co2  12  ASP12      -0.2456
     12  OD2        7.7080   41.1180    4.8140 O.co2  12  ASP12      -0.2456
     13  N          4.8650   38.2020    0.6250 N.am   13  GLU13      -0.1963
     14  CA         4.6610   38.0430   -0.8100 C.3    13  GLU13       0.1733
     15  C          3.2280   38.3710   -1.2310 C.2    13  GLU13       0.2617
     16  O          2.9230   38.4380   -2.4230 O.2    13  GLU13      -0.2715
     17  CB         5.0160   36.6210   -1.2540 C.3    13  GLU13       0.0429
     18  CG         6.3900   36.1500   -0.8230 C.3    13  GLU13       0.1163
     19  CD         6.3590   35.3730    0.4760 C.2    13  GLU13       0.3649
     20  OE1        5.3270   35.4260    1.1780 O.co2  13  GLU13      -0.2457
     21  OE2        7.3680   34.7050    0.7900 O.co2  13  GLU13      -0.2457
     22  N          2.3520   38.5790   -0.2540 N.am   14  GLY14      -0.1940
     23  CA         0.9560   38.8660   -0.5290 C.3    14  GLY14       0.2014
     24  C          0.0510   37.6850   -0.2410 C.2    14  GLY14       0.2639
     25  O         -1.0210   37.5520   -0.8320 O.2    14  GLY14      -0.2714
     26  N          0.4850   36.8320    0.6830 N.am   15  LYS15      -0.1963
     27  CA        -0.2760   35.6460    1.0550 C.3    15  LYS15       0.1728
     28  C         -1.6550   36.0170    1.5780 C.2    15  LYS15       0.2617
     29  O         -2.6480   35.3780    1.2350 O.2    15  LYS15      -0.2715
     30  CB         0.4760   34.8320    2.1080 C.3    15  LYS15       0.0311
     31  CG         1.6410   34.0340    1.5580 C.3    15  LYS15       0.0038
     32  CD         2.1560   33.0360    2.5820 C.3    15  LYS15       0.0206
     33  CE         2.7490   33.7370    3.7890 C.3    15  LYS15       0.1093
     34  NZ         3.8260   34.6850    3.3950 N.3    15  LYS15      -0.1314
     35  N         -1.7090   37.0580    2.4030 N.am   16  GLY16      -0.1940
     36  CA        -2.9610   37.5170    2.9760 C.3    16  GLY16       0.2014
     37  C         -3.9650   37.9290    1.9190 C.2    16  GLY16       0.2639
     38  O         -5.1230   37.5260    1.9660 O.2    16  GLY16      -0.2714
     39  N         -3.5100   38.7180    0.9510 N.am   17  SER17      -0.1949
     40  CA        -4.3760   39.2270   -0.1080 C.3    17  SER17       0.1924
     41  C         -4.9250   38.1110   -0.9910 C.2    17  SER17       0.2314
     42  O         -5.9550   38.2720   -1.6460 O.2    17  SER17      -0.2863
     43  CB        -3.6160   40.2390   -0.9680 C.3    17  SER17       0.2116
     44  OG        -3.1900   41.3480   -0.1960 O.3    17  SER17      -0.2180
     45  N          3.9680   37.2510   12.1450 N.3    40  ALA40      -0.1231
     46  CA         3.5290   37.5120   10.7800 C.3    40  ALA40       0.1694
     47  C          2.5720   38.6960   10.7180 C.2    40  ALA40       0.2593
     48  O          1.7290   38.8770   11.5960 O.2    40  ALA40      -0.2718
     49  CB         2.8740   36.2730   10.1920 C.3    40  ALA40       0.0304
     50  N          2.7090   39.4990    9.6690 N.am   41  GLY41      -0.1942
     51  CA         1.8010   40.6040    9.4330 C.3    41  GLY41       0.2014
     52  C          1.1640   40.4730    8.0650 C.2    41  GLY41       0.2639
     53  O          1.8170   40.6890    7.0430 O.2    41  GLY41      -0.2714
     54  N         -0.1160   40.1120    8.0490 N.am   42  HIS42      -0.1959
     55  CA        -0.8320   39.8840    6.8000 C.3    42  HIS42       0.1787
     56  C         -1.8280   41.0060    6.5500 C.2    42  HIS42       0.2621
     57  O         -2.7500   41.2150    7.3400 O.2    42  HIS42      -0.2715
     58  CB        -1.5590   38.5350    6.8260 C.3    42  HIS42       0.0785
     59  CG        -0.6500   37.3530    6.9630 C.ar   42  HIS42       0.0821
     60  ND1       -0.9120   36.1410    6.3610 N.ar   42  HIS42      -0.2267
     61  CD2        0.5160   37.1940    7.6340 C.ar   42  HIS42       0.1154
     62  CE1        0.0540   35.2880    6.6530 C.ar   42  HIS42       0.1986
     63  NE2        0.9330   35.9020    7.4230 N.ar   42  HIS42      -0.2212
     64  N         -1.6420   41.7290    5.4500 N.am   43  SER43      -0.1936
     65  CA        -2.4960   42.8710    5.1520 C.3    43  SER43       0.2055
     66  C         -3.3950   42.6250    3.9460 C.2    43  SER43       0.2643
     67  O         -3.0280   41.9130    3.0100 O.2    43  SER43      -0.2714
     68  CB        -1.6540   44.1230    4.9230 C.3    43  SER43       0.2130
     69  OG        -0.9080   44.4530    6.0810 O.3    43  SER43      -0.2179
     70  N         -4.5790   43.2260    3.9880 N.am   44  VAL44      -0.1963
     71  CA        -5.5480   43.1260    2.9070 C.3    44  VAL44       0.1727
     72  C         -6.3330   44.4320    2.7820 C.2    44  VAL44       0.2616
     73  O         -6.6450   45.0710    3.7870 O.2    44  VAL44      -0.2715
     74  CB        -6.5130   41.9450    3.1400 C.3    44  VAL44       0.0290
     75  CG1       -7.1670   42.0620    4.5100 C.3    44  VAL44       0.0023
     76  CG2       -7.5570   41.8700    2.0340 C.3    44  VAL44       0.0023
     77  N         -6.6500   44.8310    1.5560 N.am   45  VAL45      -0.1977
     78  CA        -7.4830   46.0070    1.3490 C.3    45  VAL45       0.1596
     79  C         -8.8870   45.5900    0.9340 C.2    45  VAL45       0.2287
     80  O         -9.0740   44.9390   -0.0930 O.2    45  VAL45      -0.2864
     81  CB        -6.8930   46.9500    0.2850 C.3    45  VAL45       0.0276
     82  CG1       -7.7340   48.2140    0.1790 C.3    45  VAL45       0.0022
     83  CG2       -5.4510   47.2930    0.6190 C.3    45  VAL45       0.0022
     84  N         -7.8940   49.1740    4.2570 N.3    50  LYS50      -0.1245
     85  CA        -6.8300   48.2030    4.4880 C.3    50  LYS50       0.1561
     86  C         -6.8120   47.6510    5.9150 C.2    50  LYS50       0.2260
     87  O         -6.7840   48.4020    6.8920 O.2    50  LYS50      -0.2867
     88  CB        -5.4780   48.8260    4.1440 C.3    50  LYS50       0.0271
     89  CG        -4.3000   47.8770    4.2520 C.3    50  LYS50       0.0035
     90  CD        -3.0750   48.5040    3.6150 C.3    50  LYS50       0.0206
     91  CE        -2.3900   49.4690    4.5550 C.3    50  LYS50       0.1093
     92  NZ        -1.1920   50.0830    3.9190 N.3    50  LYS50      -0.1314
     93  N          5.1460   33.5770    6.6200 N.3   178  GLN178     -0.1245
     94  CA         6.4850   33.7610    6.0590 C.3   178  GLN178      0.1566
     95  C          6.7460   33.4010    4.5980 C.2   178  GLN178      0.2260
     96  O          5.9620   33.7350    3.7100 O.2   178  GLN178     -0.2867
     97  CB         7.5570   33.3220    7.0630 C.3   178  GLN178      0.0367
     98  CG         7.6250   34.1950    8.3060 C.3   178  GLN178      0.0905
     99  CD         6.7110   33.7130    9.4130 C.2   178  GLN178      0.2608
    100  OE1        6.4320   32.5210    9.5280 O.2   178  GLN178     -0.2717
    101  NE2        6.2270   34.6440   10.2250 N.am  178  GLN178     -0.0878
    102  N          8.2400   49.7780    0.9590 N.3   248  GLU248     -0.1245
    103  CA         7.2490   49.1190    1.8060 C.3   248  GLU248      0.1567
    104  C          7.7210   49.0470    3.2650 C.2   248  GLU248      0.2260
    105  O          8.9150   48.9090    3.5280 O.2   248  GLU248     -0.2867
    106  CB         6.9710   47.7140    1.2690 C.3   248  GLU248      0.0388
    107  CG         5.9910   47.6600    0.1090 C.3   248  GLU248      0.1160
    108  CD         5.7490   46.2400   -0.3730 C.2   248  GLU248      0.3649
    109  OE1        6.5770   45.3550   -0.0620 O.co2 248  GLU248     -0.2457
    110  OE2        4.7540   46.0110   -1.0910 O.co2 248  GLU248     -0.2457
    111  N          4.5450   45.3210    8.5380 N.3   251  THR251     -0.1218
    112  CA         3.1970   45.3620    9.0850 C.3   251  THR251      0.1862
    113  C          3.2350   45.3780   10.6130 C.2   251  THR251      0.2287
    114  O          2.3590   45.9480   11.2630 O.2   251  THR251     -0.2866
    115  CB         2.3660   44.1550    8.6060 C.3   251  THR251      0.1770
    116  OG1        2.5370   43.9820    7.1930 O.3   251  THR251     -0.2211
    117  CG2        0.8910   44.3540    8.9190 C.3   251  THR251      0.0375
    118  N         11.2970   47.5930    4.0710 N.3   257  ARG257     -0.1245
    119  CA        11.6450   46.3340    3.4320 C.3   257  ARG257      0.1563
    120  C         12.7750   46.5020    2.4200 C.2   257  ARG257      0.2260
    121  O         12.7190   47.3620    1.5400 O.2   257  ARG257     -0.2867
    122  CB        10.4210   45.7260    2.7440 C.3   257  ARG257      0.0307
    123  CG         9.4100   45.1120    3.6940 C.3   257  ARG257      0.0489
    124  CD         8.1120   44.7830    2.9740 C.3   257  ARG257      0.2205
    125  NE         7.1040   44.2400    3.8800 N.pl3 257  ARG257     -0.0865
    126  CZ         5.8060   44.1800    3.6030 C.cat 257  ARG257      0.5346
    127  NH1        5.3530   44.6310    2.4420 N.pl3 257  ARG257      0.1354
    128  NH2        4.9580   43.6690    4.4870 N.pl3 257  ARG257      0.1354
    129  N          1.9830   38.2810   -7.2010 N.3   282  THR282     -0.1203
    130  CA         1.4060   39.5390   -6.7620 C.3   282  THR282      0.1994
    131  C          2.2550   40.7260   -7.2000 C.2   282  THR282      0.2617
    132  O          3.4070   40.5630   -7.6090 O.2   282  THR282     -0.2717
    133  CB         1.2510   39.5730   -5.2320 C.3   282  THR282      0.1784
    134  OG1        2.5370   39.4240   -4.6180 O.3   282  THR282     -0.2211
    135  CG2        0.3390   38.4510   -4.7630 C.3   282  THR282      0.0376
    136  N          1.6610   41.9140   -7.1130 N.am  283  MET283     -0.1979
    137  CA         2.3390   43.1720   -7.4100 C.3   283  MET283      0.1605
    138  C          2.9120   43.2190   -8.8230 C.2   283  MET283      0.2287
    139  O          4.0270   43.6990   -9.0320 O.2   283  MET283     -0.2864
    140  CB         3.4510   43.4300   -6.3920 C.3   283  MET283      0.0413
    141  CG         2.9800   43.3860   -4.9510 C.3   283  MET283      0.0598
    142  SD         4.3120   43.7160   -3.7860 S.3   283  MET283     -0.1393
    143  CE         3.5110   43.2740   -2.2490 C.3   283  MET283      0.0692
    144  N          1.5870   45.0030  -11.0800 N.3   285  ASP285     -0.1225
    145  CA         1.3650   46.4000  -11.4380 C.3   285  ASP285      0.1805
    146  C          2.5780   47.2660  -11.1780 C.2   285  ASP285      0.2597
    147  O          2.7430   48.3480  -11.7520 O.2   285  ASP285     -0.2718
    148  CB         0.1670   46.9570  -10.6550 C.3   285  ASP285      0.1424
    149  CG         0.2160   46.6050   -9.1700 C.2   285  ASP285      0.3668
    150  OD1        0.4370   45.4190   -8.8480 O.co2 285  ASP285     -0.2456
    151  OD2        0.0270   47.5050   -8.3240 O.co2 285  ASP285     -0.2456
    152  N          3.4010   46.8010  -10.2530 N.am  286  LYS286     -0.1979
    153  CA         4.6100   47.5180   -9.8780 C.3   286  LYS286      0.1596
    154  C          5.8430   47.1540  -10.7180 C.2   286  LYS286      0.2287
    155  O          6.8200   47.9100  -10.8120 O.2   286  LYS286     -0.2864
    156  CB         4.8450   47.2460   -8.4170 C.3   286  LYS286      0.0298
    157  CG         6.1470   47.6110   -7.8500 C.3   286  LYS286      0.0038
    158  CD         6.0610   47.1440   -6.4030 C.3   286  LYS286      0.0206
    159  CE         6.2150   48.2420   -5.3940 C.3   286  LYS286      0.1093
    160  NZ         6.4940   47.7530   -4.0160 N.3   286  LYS286     -0.1314
    161  N         -2.3100   38.8430   -9.0200 N.3   323  LYS323     -0.1245
    162  CA        -2.8500   40.0480   -8.4080 C.3   323  LYS323      0.1561
    163  C         -2.2140   41.2800   -9.0470 C.2   323  LYS323      0.2260
    164  O         -0.9920   41.3570   -9.1880 O.2   323  LYS323     -0.2867
    165  CB        -2.6200   40.0270   -6.8950 C.3   323  LYS323      0.0271
    166  CG        -3.6130   40.8600   -6.1040 C.3   323  LYS323      0.0035
    167  CD        -3.9770   40.1710   -4.7980 C.3   323  LYS323      0.0206
    168  CE        -5.2480   40.7510   -4.1960 C.3   323  LYS323      0.1093
    169  NZ        -6.4210   40.5910   -5.0990 N.3   323  LYS323     -0.1314
    170  N         -3.0210   44.5750   -8.0760 N.3   325  GLY325     -0.1210
    171  CA        -3.2410   45.7320   -7.2270 C.3   325  GLY325      0.1940
    172  C         -3.7050   45.3570   -5.8320 C.2   325  GLY325      0.2453
    173  O         -4.0270   44.1970   -5.5720 O.2   325  GLY325     -0.2732
    174  N         -3.7390   46.3430   -4.9240 N.am  326  PRO326     -0.2728
    175  CA        -4.0910   46.1490   -3.5110 C.3   326  PRO326      0.1401
    176  C         -5.5300   45.6770   -3.2740 C.2   326  PRO326      0.2269
    177  O         -5.7750   44.9690   -2.2980 O.2   326  PRO326     -0.2865
    178  CB        -3.8750   47.5420   -2.9040 C.3   326  PRO326      0.0296
    179  CG        -3.9590   48.4820   -4.0550 C.3   326  PRO326      0.0237
    180  CD        -3.3820   47.7410   -5.2150 C.3   326  PRO326      0.0939
@<TRIPOS>BOND
     1   147   146    2
     2   145   146    1
     3   145   144    1
     4   145   148    1
     5   146   152   am
     6   155   154    2
     7   154   153    1
     8   148   149    1
     9   152   153    1
    10   153   156    1
    11   164   163    2
    12   149   150   ar
    13   149   151   ar
    14   163   162    1
    15   139   138    2
    16   161   162    1
    17   138   137    1
    18   156   157    1
    19   162   165    1
    20   170   171    1
    21   157   158    1
    22   132   131    2
    23   137   136    1
    24   137   140    1
    25   171   172    1
    26   129   130    1
    27   131   136   am
    28   131   130    1
    29   165   166    1
    30   130   133    1
    31   158   159    1
    32   140   141    1
    33   166   167    1
    34   172   173    2
    35   172   174   am
    36   159   160    1
    37   133   135    1
    38   133   134    1
    39   180   174    1
    40   180   179    1
    41   169   168    1
    42   141   142    1
    43   174   175    1
    44   167   168    1
    45   179   178    1
    46   142   143    1
    47   175   176    1
    48   175   178    1
    49   176   177    2
    50    16    15    2
    51    42    41    2
    52    17    18    1
    53    17    14    1
    54    15    14    1
    55    15    22   am
    56   110   108   ar
    57    41    40    1
    58    43    44    1
    59    43    40    1
    60    25    24    2
    61    18    19    1
    62    14    13    1
    63    23    22    1
    64    23    24    1
    65   108   109   ar
    66   108   107    1
    67    24    26   am
    68    40    39    1
    69    80    79    2
    70   107   106    1
    71    82    81    1
    72    81    83    1
    73    81    78    1
    74    19    21   ar
    75    19    20   ar
    76     8     7    2
    77    13     7   am
    78    26    27    1
    79    79    78    1
    80    39    37   am
    81   102   103    1
    82    27    28    1
    83    27    30    1
    84     7     6    1
    85    29    28    2
    86   106   103    1
    87    78    77    1
    88   121   120    2
    89    77    72   am
    90    31    30    1
    91    31    32    1
    92    28    35   am
    93   103   104    1
    94     4     3    2
    95    37    38    2
    96    37    36    1
    97    76    74    1
    98    35    36    1
    99   120   119    1
   100   127   126    1
   101    32    33    1
   102     6     9    1
   103     6     5    1
   104   122   119    1
   105   122   123    1
   106     3     5   am
   107     3     2    1
   108    72    71    1
   109    72    73    2
   110     1     2    1
   111    71    74    1
   112    71    70    1
   113   124   123    1
   114   124   125    1
   115     9    10    1
   116    67    66    2
   117    74    75    1
   118   104   105    2
   119    34    33    1
   120   119   118    1
   121   126   125    2
   122   126   128    1
   123    90    89    1
   124    90    91    1
   125    96    95    2
   126    92    91    1
   127    66    70   am
   128    66    65    1
   129    88    89    1
   130    88    85    1
   131    84    85    1
   132    10    12   ar
   133    10    11   ar
   134    85    86    1
   135    95    94    1
   136    68    65    1
   137    68    69    1
   138    65    64    1
   139    64    56   am
   140    86    87    2
   141    94    93    1
   142    94    97    1
   143    60    62   ar
   144    60    59   ar
   145    56    55    1
   146    56    57    2
   147    62    63   ar
   148    55    58    1
   149    55    54    1
   150    58    59    1
   151    59    61   ar
   152    53    52    2
   153    97    98    1
   154   116   115    1
   155    63    61   ar
   156    54    52   am
   157    52    51    1
   158    98    99    1
   159   111   112    1
   160   115   117    1
   161   115   112    1
   162   112   113    1
   163    99   100    2
   164    99   101   am
   165    51    50    1
   166    50    47   am
   167    49    46    1
   168   113   114    2
   169    47    46    1
   170    47    48    2
   171    46    45    1
