@<TRIPOS>MOLECULE
tmp/5k7zC01.pdb
 187 175 0 0 0
SMALL
GASTEIGER

@<TRIPOS>ATOM
      1  N         53.7290   90.0630   33.0830 N.3    57  MET57      -0.1245
      2  CA        52.6190   89.2670   33.5980 C.3    57  MET57       0.1570
      3  C         52.9540   87.7810   33.5690 C.2    57  MET57       0.2261
      4  O         52.7400   87.0680   34.5550 O.2    57  MET57      -0.2867
      5  CB        51.3510   89.5480   32.7900 C.3    57  MET57       0.0387
      6  CG        50.7860   90.9510   32.9690 C.3    57  MET57       0.0595
      7  SD        50.3110   91.3320   34.6640 S.3    57  MET57      -0.1393
      8  CE        48.9810   90.1650   34.9280 C.3    57  MET57       0.0692
      9  N         54.8980   87.1870   36.5680 N.3    60  PHE60      -0.1241
     10  CA        54.0870   87.2460   37.7790 C.3    60  PHE60       0.1605
     11  C         53.2460   85.9860   37.9400 C.2    60  PHE60       0.2264
     12  O         53.2250   85.3710   39.0120 O.2    60  PHE60      -0.2867
     13  CB        53.1930   88.4840   37.7510 C.3    60  PHE60       0.0534
     14  CG        51.9790   88.3650   38.6200 C.ar   60  PHE60      -0.0203
     15  CD1       52.0710   88.5440   39.9860 C.ar   60  PHE60      -0.0042
     16  CD2       50.7460   88.0630   38.0710 C.ar   60  PHE60      -0.0042
     17  CE1       50.9570   88.4290   40.7880 C.ar   60  PHE60      -0.0003
     18  CE2       49.6290   87.9470   38.8680 C.ar   60  PHE60      -0.0003
     19  CZ        49.7350   88.1300   40.2280 C.ar   60  PHE60      -0.0000
     20  N         53.7780   87.6350   46.6350 N.3    85  ASN85      -0.1240
     21  CA        53.6510   88.8840   45.8940 C.3    85  ASN85       0.1653
     22  C         54.4730   89.9930   46.5380 C.2    85  ASN85       0.2266
     23  O         55.0280   90.8470   45.8370 O.2    85  ASN85      -0.2867
     24  CB        52.1810   89.2880   45.8000 C.3    85  ASN85       0.1155
     25  CG        51.9240   90.2960   44.7010 C.2    85  ASN85       0.2627
     26  OD1       52.7920   91.1000   44.3690 O.2    85  ASN85      -0.2716
     27  ND2       50.7280   90.2540   44.1270 N.am   85  ASN85      -0.0877
     28  N         58.0230   89.3710   45.5470 N.3    88  LEU88      -0.1231
     29  CA        58.2500   89.6290   44.1290 C.3    88  LEU88       0.1693
     30  C         58.6400   91.0790   43.8840 C.2    88  LEU88       0.2591
     31  O         59.3620   91.3720   42.9250 O.2    88  LEU88      -0.2718
     32  CB        56.9980   89.2770   43.3280 C.3    88  LEU88       0.0284
     33  CG        57.0430   89.5840   41.8290 C.3    88  LEU88       0.0019
     34  CD1       58.1670   88.8190   41.1520 C.3    88  LEU88       0.0001
     35  CD2       55.7080   89.2600   41.1810 C.3    88  LEU88       0.0001
     36  N         58.1790   91.9910   44.7330 N.am   89  VAL89      -0.1980
     37  CA        58.4660   93.4130   44.5720 C.3    89  VAL89       0.1595
     38  C         59.7590   93.7980   45.2770 C.2    89  VAL89       0.2287
     39  O         60.6200   94.4660   44.6980 O.2    89  VAL89      -0.2864
     40  CB        57.2740   94.2470   45.0910 C.3    89  VAL89       0.0276
     41  CG1       57.5480   95.7380   44.9360 C.3    89  VAL89       0.0022
     42  CG2       55.9960   93.8610   44.3600 C.3    89  VAL89       0.0022
     43  N         57.7960   93.7460   36.2950 N.3    97  VAL97      -0.1245
     44  CA        56.6290   93.8280   37.1640 C.3    97  VAL97       0.1561
     45  C         56.4740   95.2360   37.7200 C.2    97  VAL97       0.2260
     46  O         55.3560   95.6790   38.0000 O.2    97  VAL97      -0.2867
     47  CB        56.7360   92.7830   38.2900 C.3    97  VAL97       0.0252
     48  CG1       55.5620   92.8980   39.2530 C.3    97  VAL97       0.0019
     49  CG2       56.8040   91.3820   37.7040 C.3    97  VAL97       0.0019
     50  N         54.7880   97.5630   35.2850 N.3   100  ILE100     -0.1231
     51  CA        53.3520   97.3220   35.2380 C.3   100  ILE100      0.1692
     52  C         52.6470   98.1000   36.3400 C.2   100  ILE100      0.2591
     53  O         51.5310   98.5970   36.1530 O.2   100  ILE100     -0.2718
     54  CB        53.0670   95.8120   35.3310 C.3   100  ILE100      0.0266
     55  CG1       53.5730   95.1060   34.0720 C.3   100  ILE100      0.0019
     56  CG2       51.5820   95.5510   35.5040 C.3   100  ILE100      0.0020
     57  CD1       53.5460   93.5980   34.1550 C.3   100  ILE100      0.0001
     58  N         53.2850   98.2220   37.5040 N.am  101  LEU101     -0.1980
     59  CA        52.6680   98.9260   38.6210 C.3   101  LEU101      0.1596
     60  C         52.7350  100.4360   38.4370 C.2   101  LEU101      0.2287
     61  O         51.7760  101.1440   38.7570 O.2   101  LEU101     -0.2864
     62  CB        53.3460   98.5210   39.9290 C.3   101  LEU101      0.0297
     63  CG        53.3260   97.0280   40.2610 C.3   101  LEU101      0.0022
     64  CD1       54.1040   96.7640   41.5340 C.3   101  LEU101      0.0001
     65  CD2       51.9030   96.5130   40.3900 C.3   101  LEU101      0.0001
     66  N         50.7400  102.3760   34.9870 N.3   104  HIS104     -0.1241
     67  CA        49.4270  101.7430   34.9580 C.3   104  HIS104      0.1621
     68  C         48.5350  102.3290   33.8720 C.2   104  HIS104      0.2264
     69  O         47.7240  101.6050   33.2860 O.2   104  HIS104     -0.2867
     70  CB        48.7500  101.8690   36.3220 C.3   104  HIS104      0.0745
     71  CG        48.3950  103.2730   36.6960 C.ar  104  HIS104      0.0817
     72  ND1       49.2210  104.0750   37.4530 N.ar  104  HIS104     -0.2268
     73  CD2       47.2970  104.0170   36.4250 C.ar  104  HIS104      0.1154
     74  CE1       48.6500  105.2520   37.6280 C.ar  104  HIS104      0.1986
     75  NE2       47.4810  105.2430   37.0130 N.ar  104  HIS104     -0.2212
     76  N         46.3900   98.6920   26.1960 N.3   112  ARG112     -0.1245
     77  CA        46.0250   98.8000   27.6040 C.3   112  ARG112      0.1563
     78  C         44.8760   97.8620   27.9430 C.2   112  ARG112      0.2260
     79  O         44.9140   97.1610   28.9600 O.2   112  ARG112     -0.2867
     80  CB        45.6520  100.2380   27.9530 C.3   112  ARG112      0.0307
     81  CG        45.1540  100.3720   29.3750 C.3   112  ARG112      0.0489
     82  CD        45.0710  101.8040   29.8430 C.3   112  ARG112      0.2205
     83  NE        44.6220  101.8650   31.2290 N.pl3 112  ARG112     -0.0865
     84  CZ        44.3900  102.9880   31.8970 C.cat 112  ARG112      0.5346
     85  NH1       44.5600  104.1640   31.3110 N.pl3 112  ARG112      0.1354
     86  NH2       43.9830  102.9330   33.1560 N.pl3 112  ARG112      0.1354
     87  N         45.2440   95.3920   31.0010 N.3   116  ASP116     -0.1225
     88  CA        44.2810   95.5090   32.0900 C.3   116  ASP116      0.1805
     89  C         43.4760   94.2310   32.2650 C.2   116  ASP116      0.2597
     90  O         43.1150   93.8740   33.3910 O.2   116  ASP116     -0.2718
     91  CB        43.3430   96.6880   31.8340 C.3   116  ASP116      0.1424
     92  CG        43.9970   98.0260   32.1060 C.2   116  ASP116      0.3668
     93  OD1       45.2430   98.0970   32.0930 O.co2 116  ASP116     -0.2456
     94  OD2       43.2590   99.0080   32.3300 O.co2 116  ASP116     -0.2456
     95  N         43.1910   93.5280   31.1690 N.am  117  ALA117     -0.1979
     96  CA        42.4220   92.2910   31.2580 C.3   117  ALA117      0.1597
     97  C         43.2060   91.2130   31.9940 C.2   117  ALA117      0.2287
     98  O         42.6720   90.5440   32.8850 O.2   117  ALA117     -0.2864
     99  CB        42.0340   91.8210   29.8590 C.3   117  ALA117      0.0319
    100  N         45.5320   91.8570   34.0770 N.3   119  LYS119     -0.1231
    101  CA        45.5440   92.3670   35.4430 C.3   119  LYS119      0.1693
    102  C         44.2640   91.9960   36.1770 C.2   119  LYS119      0.2591
    103  O         44.2980   91.6370   37.3590 O.2   119  LYS119     -0.2718
    104  CB        45.7160   93.8840   35.4360 C.3   119  LYS119      0.0285
    105  CG        47.1200   94.3820   35.1710 C.3   119  LYS119      0.0035
    106  CD        47.1430   95.8990   35.2650 C.3   119  LYS119      0.0206
    107  CE        48.5380   96.4660   35.2190 C.3   119  LYS119      0.1093
    108  NZ        48.5260   97.9530   35.2980 N.3   119  LYS119     -0.1314
    109  N         43.1210   92.0820   35.4950 N.am  120  LYS120     -0.1980
    110  CA        41.8430   91.8750   36.1630 C.3   120  LYS120      0.1596
    111  C         41.6500   90.4220   36.5720 C.2   120  LYS120      0.2287
    112  O         40.9730   90.1460   37.5680 O.2   120  LYS120     -0.2864
    113  CB        40.7020   92.3310   35.2570 C.3   120  LYS120      0.0298
    114  CG        39.3490   92.3420   35.9360 C.3   120  LYS120      0.0038
    115  CD        38.4920   93.4920   35.4430 C.3   120  LYS120      0.0206
    116  CE        37.0830   93.4110   35.9970 C.3   120  LYS120      0.1093
    117  NZ        37.0720   93.2680   37.4780 N.3   120  LYS120     -0.1314
    118  N         43.7500   88.6820   37.9960 N.3   122  TYR122     -0.1227
    119  CA        44.3170   88.6110   39.3360 C.3   122  TYR122      0.1736
    120  C         43.4240   89.2690   40.3770 C.2   122  TYR122      0.2595
    121  O         43.5140   88.9220   41.5590 O.2   122  TYR122     -0.2718
    122  CB        45.7000   89.2660   39.3550 C.3   122  TYR122      0.0548
    123  CG        46.4030   89.1900   40.6910 C.ar  122  TYR122     -0.0200
    124  CD1       46.3860   88.0250   41.4430 C.ar  122  TYR122     -0.0009
    125  CD2       47.1000   90.2790   41.1940 C.ar  122  TYR122     -0.0009
    126  CE1       47.0300   87.9490   42.6620 C.ar  122  TYR122      0.0417
    127  CE2       47.7490   90.2110   42.4120 C.ar  122  TYR122      0.0417
    128  CZ        47.7110   89.0450   43.1410 C.ar  122  TYR122      0.1957
    129  OH        48.3550   88.9740   44.3530 O.3   122  TYR122     -0.2866
    130  N         42.5730   90.2070   39.9690 N.am  123  VAL123     -0.1966
    131  CA        41.6080   90.7960   40.8900 C.3   123  VAL123      0.1727
    132  C         40.4600   89.8280   41.1460 C.2   123  VAL123      0.2616
    133  O         40.0590   89.6070   42.2930 O.2   123  VAL123     -0.2715
    134  CB        41.1050   92.1420   40.3350 C.3   123  VAL123      0.0290
    135  CG1       40.0350   92.7410   41.2390 C.3   123  VAL123      0.0023
    136  CG2       42.2670   93.1100   40.1750 C.3   123  VAL123      0.0023
    137  N         39.9190   89.2330   40.0810 N.am  124  ASP124     -0.1971
    138  CA        38.8650   88.2390   40.2450 C.3   124  ASP124      0.1709
    139  C         39.3370   87.0820   41.1160 C.2   124  ASP124      0.2293
    140  O         38.5940   86.5990   41.9770 O.2   124  ASP124     -0.2864
    141  CB        38.4070   87.7300   38.8790 C.3   124  ASP124      0.1436
    142  CG        37.6930   88.7950   38.0680 C.2   124  ASP124      0.3671
    143  OD1       37.0780   89.6960   38.6740 O.co2 124  ASP124     -0.2456
    144  OD2       37.7430   88.7250   36.8220 O.co2 124  ASP124     -0.2456
    145  N         39.0950   88.3030   44.4470 N.3   127  GLU127     -0.1245
    146  CA        37.6840   88.4970   44.7610 C.3   127  GLU127      0.1567
    147  C         37.0320   87.1840   45.1740 C.2   127  GLU127      0.2260
    148  O         36.2160   87.1520   46.1030 O.2   127  GLU127     -0.2867
    149  CB        36.9520   89.0990   43.5620 C.3   127  GLU127      0.0388
    150  CG        37.2170   90.5780   43.3380 C.3   127  GLU127      0.1160
    151  CD        36.4850   91.1200   42.1250 C.2   127  GLU127      0.3649
    152  OE1       35.5600   90.4390   41.6360 O.co2 127  GLU127     -0.2457
    153  OE2       36.8350   92.2230   41.6560 O.co2 127  GLU127     -0.2457
    154  N         35.3460   92.8900   46.7270 N.3   145  THR145     -0.1218
    155  CA        36.1950   93.8190   45.9890 C.3   145  THR145      0.1862
    156  C         36.9430   94.7650   46.9200 C.2   145  THR145      0.2287
    157  O         38.0760   95.1560   46.6220 O.2   145  THR145     -0.2866
    158  CB        35.3550   94.6130   44.9890 C.3   145  THR145      0.1770
    159  OG1       34.1100   94.9840   45.5930 O.3   145  THR145     -0.2211
    160  CG2       35.0910   93.7840   43.7470 C.3   145  THR145      0.0375
    161  N         41.2430   94.7800   46.7850 N.3   149  PHE149     -0.1241
    162  CA        42.0850   95.9460   46.5600 C.3   149  PHE149      0.1605
    163  C         42.7920   96.4260   47.8200 C.2   149  PHE149      0.2264
    164  O         43.8380   97.0760   47.7150 O.2   149  PHE149     -0.2867
    165  CB        41.2560   97.0860   45.9630 C.3   149  PHE149      0.0534
    166  CG        40.9380   96.8970   44.5070 C.ar  149  PHE149     -0.0203
    167  CD1       41.9460   96.9160   43.5590 C.ar  149  PHE149     -0.0042
    168  CD2       39.6360   96.7010   44.0840 C.ar  149  PHE149     -0.0042
    169  CE1       41.6630   96.7410   42.2220 C.ar  149  PHE149     -0.0003
    170  CE2       39.3490   96.5270   42.7460 C.ar  149  PHE149     -0.0003
    171  CZ        40.3640   96.5470   41.8150 C.ar  149  PHE149     -0.0000
    172  N         45.8000   94.3390   47.3970 N.3   152  LEU152     -0.1245
    173  CA        46.7190   94.8810   46.4040 C.3   152  LEU152      0.1561
    174  C         47.3090   96.2140   46.8420 C.2   152  LEU152      0.2260
    175  O         48.4430   96.5370   46.4740 O.2   152  LEU152     -0.2867
    176  CB        45.9940   95.0340   45.0700 C.3   152  LEU152      0.0270
    177  CG        45.4130   93.7310   44.5210 C.3   152  LEU152      0.0019
    178  CD1       44.3340   94.0150   43.5000 C.3   152  LEU152      0.0001
    179  CD2       46.5100   92.8800   43.9150 C.3   152  LEU152      0.0001
    180  N         51.3630   96.0510   46.6610 N.3   156  LEU156     -0.1245
    181  CA        51.9600   96.6950   45.4980 C.3   156  LEU156      0.1561
    182  C         52.5030   98.0800   45.8230 C.2   156  LEU156      0.2260
    183  O         53.5140   98.4930   45.2470 O.2   156  LEU156     -0.2867
    184  CB        50.9330   96.7670   44.3730 C.3   156  LEU156      0.0270
    185  CG        50.3360   95.4080   44.0030 C.3   156  LEU156      0.0019
    186  CD1       49.2690   95.5620   42.9380 C.3   156  LEU156      0.0001
    187  CD2       51.4210   94.4410   43.5420 C.3   156  LEU156      0.0001
@<TRIPOS>BOND
     1    76    77    1
     2    77    78    1
     3    77    80    1
     4    78    79    2
     5    80    81    1
     6    81    82    1
     7    82    83    1
     8    99    96    1
     9    87    88    1
    10    95    96    1
    11    95    89   am
    12    83    84    2
    13    96    97    1
    14    85    84    1
    15    91    88    1
    16    91    92    1
    17    84    86    1
    18    97    98    2
    19    88    89    1
    20    93    92   ar
    21    92    94   ar
    22    89    90    2
    23     5     6    1
    24     5     2    1
    25     6     7    1
    26     1     2    1
    27    69    68    2
    28     3     2    1
    29     3     4    2
    30    68    67    1
    31    55    57    1
    32    55    54    1
    33   100   101    1
    34     7     8    1
    35    67    66    1
    36    67    70    1
    37   105   106    1
    38   105   104    1
    39   107   106    1
    40   107   108    1
    41    51    50    1
    42    51    54    1
    43    51    52    1
    44   113   114    1
    45   113   110    1
    46    54    56    1
    47   104   101    1
    48   101   102    1
    49   115   114    1
    50   115   116    1
    51   109   110    1
    52   109   102   am
    53   116   117    1
    54    53    52    2
    55   110   111    1
    56   102   103    2
    57    43    44    1
    58    70    71    1
    59    52    58   am
    60    73    71   ar
    61    73    75   ar
    62     9    10    1
    63   111   112    2
    64    71    72   ar
    65   144   142   ar
    66    75    74   ar
    67    44    45    1
    68    44    47    1
    69    72    74   ar
    70    58    59    1
    71    49    47    1
    72    45    46    2
    73    13    10    1
    74    13    14    1
    75    10    11    1
    76    11    12    2
    77   118   119    1
    78   142   143   ar
    79   142   141    1
    80    16    14   ar
    81    16    18   ar
    82    47    48    1
    83    60    59    1
    84    60    61    2
    85    14    15   ar
    86    59    62    1
    87    18    19   ar
    88   141   138    1
    89   119   122    1
    90   119   120    1
    91   122   123    1
    92    62    63    1
    93   130   120   am
    94   130   131    1
    95    15    17   ar
    96   137   138    1
    97   137   132   am
    98   136   134    1
    99    19    17   ar
   100   138   139    1
   101    63    65    1
   102    63    64    1
   103   134   131    1
   104   134   135    1
   105   120   121    2
   106   123   125   ar
   107   123   124   ar
   108   131   132    1
   109   139   140    2
   110   132   133    2
   111    34    33    1
   112    35    33    1
   113   125   127   ar
   114   124   126   ar
   115   152   151   ar
   116   153   151   ar
   117   171   169   ar
   118   171   170   ar
   119    33    32    1
   120   151   150    1
   121   169   167   ar
   122   127   128   ar
   123   126   128   ar
   124   170   168   ar
   125    31    30    2
   126   186   185    1
   127   128   129    1
   128    32    29    1
   129   150   149    1
   130   178   177    1
   131   187   185    1
   132   167   166   ar
   133   149   146    1
   134   160   158    1
   135    30    29    1
   136    30    36   am
   137   179   177    1
   138   185   184    1
   139   168   166   ar
   140    27    25   am
   141    29    28    1
   142    42    40    1
   143    26    25    2
   144   184   181    1
   145   145   146    1
   146   166   165    1
   147   177   176    1
   148    37    36    1
   149    37    40    1
   150    37    38    1
   151    39    38    2
   152    25    24    1
   153   146   147    1
   154    41    40    1
   155   158   159    1
   156   158   155    1
   157   176   173    1
   158   147   148    2
   159   183   182    2
   160   181   182    1
   161   181   180    1
   162    24    21    1
   163    23    22    2
   164    21    22    1
   165    21    20    1
   166   165   162    1
   167   155   154    1
   168   155   156    1
   169   173   174    1
   170   173   172    1
   171   175   174    2
   172   162   161    1
   173   162   163    1
   174   157   156    2
   175   164   163    2
