@<TRIPOS>MOLECULE
tmp/5k7zC00.pdb
 95 97 0 0 0
SMALL
GASTEIGER

@<TRIPOS>ATOM
      1  N         51.8630   98.8080   46.7380 N.3   157  TRP157     -0.1241
      2  CA        52.3710  100.1160   47.1370 C.3   157  TRP157      0.1605
      3  C         53.7840  100.0430   47.7040 C.2   157  TRP157      0.2264
      4  O         54.4340  101.0860   47.8360 O.2   157  TRP157     -0.2867
      5  CB        51.4260  100.7410   48.1630 C.3   157  TRP157      0.0550
      6  CG        51.7120  102.1800   48.4790 C.ar  157  TRP157      0.0003
      7  CD1       52.3140  102.6660   49.6000 C.ar  157  TRP157      0.0946
      8  CD2       51.3930  103.3180   47.6700 C.ar  157  TRP157      0.0152
      9  NE1       52.3930  104.0360   49.5390 N.ar  157  TRP157     -0.2442
     10  CE2       51.8350  104.4600   48.3630 C.ar  157  TRP157      0.0810
     11  CE3       50.7790  103.4830   46.4250 C.ar  157  TRP157      0.0012
     12  CZ2       51.6860  105.7460   47.8540 C.ar  157  TRP157      0.0191
     13  CZ3       50.6310  104.7600   45.9230 C.ar  157  TRP157      0.0001
     14  CH2       51.0820  105.8750   46.6360 C.ar  157  TRP157      0.0015
     15  N         56.9680  101.8130   46.1020 N.3   160  LYS160     -0.1231
     16  CA        57.1440  103.2560   46.1420 C.3   160  LYS160      0.1693
     17  C         57.9500  103.7410   47.3410 C.2   160  LYS160      0.2592
     18  O         58.3630  104.9050   47.3540 O.2   160  LYS160     -0.2718
     19  CB        55.7720  103.9450   46.1390 C.3   160  LYS160      0.0285
     20  CG        55.2830  104.3610   44.7610 C.3   160  LYS160      0.0035
     21  CD        53.8170  104.7650   44.7870 C.3   160  LYS160      0.0206
     22  CE        53.4650  105.7050   43.6410 C.3   160  LYS160      0.1093
     23  NZ        53.6270  105.0900   42.2970 N.3   160  LYS160     -0.1314
     24  N         58.1950  102.8890   48.3390 N.am  161  TRP161     -0.1962
     25  CA        58.8930  103.3220   49.5450 C.3   161  TRP161      0.1771
     26  C         59.9110  102.3320   50.0870 C.2   161  TRP161      0.2620
     27  O         60.6890  102.7170   50.9640 O.2   161  TRP161     -0.2715
     28  CB        57.8840  103.6280   50.6590 C.3   161  TRP161      0.0590
     29  CG        57.0300  102.4630   51.0440 C.ar  161  TRP161      0.0006
     30  CD1       55.8080  102.1420   50.5350 C.ar  161  TRP161      0.0946
     31  CD2       57.3290  101.4660   52.0280 C.ar  161  TRP161      0.0152
     32  NE1       55.3270  101.0080   51.1390 N.ar  161  TRP161     -0.2442
     33  CE2       56.2430  100.5720   52.0590 C.ar  161  TRP161      0.0810
     34  CE3       58.4100  101.2420   52.8850 C.ar  161  TRP161      0.0012
     35  CZ2       56.2050   99.4730   52.9110 C.ar  161  TRP161      0.0191
     36  CZ3       58.3700  100.1500   53.7290 C.ar  161  TRP161      0.0001
     37  CH2       57.2760   99.2790   53.7360 C.ar  161  TRP161      0.0015
     38  N         59.9490  101.0920   49.6110 N.am  162  PHE162     -0.1960
     39  CA        60.8290  100.0960   50.2030 C.3   162  PHE162      0.1771
     40  C         62.2800  100.3340   49.7990 C.2   162  PHE162      0.2619
     41  O         62.5790  100.7670   48.6840 O.2   162  PHE162     -0.2715
     42  CB        60.4000   98.6920   49.7840 C.3   162  PHE162      0.0574
     43  CG        61.2810   97.6030   50.3260 C.ar  162  PHE162     -0.0200
     44  CD1       61.0200   97.0320   51.5590 C.ar  162  PHE162     -0.0042
     45  CD2       62.3690   97.1510   49.6010 C.ar  162  PHE162     -0.0042
     46  CE1       61.8290   96.0310   52.0580 C.ar  162  PHE162     -0.0003
     47  CE2       63.1820   96.1520   50.0960 C.ar  162  PHE162     -0.0003
     48  CZ        62.9110   95.5910   51.3250 C.ar  162  PHE162     -0.0000
     49  N         63.1870  100.0400   50.7330 N.am  163  LYS163     -0.1964
     50  CA        64.6150  100.1010   50.4930 C.3   163  LYS163      0.1713
     51  C         65.2610   98.9900   51.3120 C.2   163  LYS163      0.2458
     52  O         65.0530   98.9450   52.5340 O.2   163  LYS163     -0.2730
     53  CB        65.2180  101.4520   50.8800 C.3   163  LYS163      0.0311
     54  CG        64.7630  102.6110   50.0090 C.3   163  LYS163      0.0038
     55  CD        65.4870  103.9020   50.3640 C.3   163  LYS163      0.0206
     56  CE        65.0960  105.0350   49.4270 C.3   163  LYS163      0.1093
     57  NZ        65.7810  106.3150   49.7670 N.3   163  LYS163     -0.1314
     58  N         66.0350   98.0940   50.6940 N.am  164  PRO164     -0.2727
     59  CA        66.6460   97.0060   51.4750 C.3   164  PRO164      0.1402
     60  C         67.6090   97.4920   52.5410 C.2   164  PRO164      0.2269
     61  O         67.8460   96.7670   53.5140 O.2   164  PRO164     -0.2865
     62  CB        67.3610   96.1650   50.4090 C.3   164  PRO164      0.0296
     63  CG        67.5950   97.1000   49.2790 C.3   164  PRO164      0.0237
     64  CD        66.4310   98.0410   49.2760 C.3   164  PRO164      0.0939
     65  N         66.9080   99.6680   54.5950 N.3   166  GLY166     -0.1210
     66  CA        66.0840  100.1550   55.6760 C.3   166  GLY166      0.1956
     67  C         66.2050   99.3030   56.9270 C.2   166  GLY166      0.2612
     68  O         67.0870   98.4580   57.0810 O.2   166  GLY166     -0.2717
     69  N         65.2680   99.5450   57.8450 N.am  167  ARG167     -0.1965
     70  CA        65.2910   98.8880   59.1460 C.3   167  ARG167      0.1729
     71  C         64.7950   97.4490   59.0490 C.2   167  ARG167      0.2616
     72  O         65.5410   96.5030   59.3220 O.2   167  ARG167     -0.2715
     73  CB        64.4460   99.6870   60.1400 C.3   167  ARG167      0.0348
     74  CG        64.6020   99.2500   61.5830 C.3   167  ARG167      0.0492
     75  CD        63.8800  100.2030   62.5200 C.3   167  ARG167      0.2205
     76  NE        62.4500  100.2740   62.2300 N.pl3 167  ARG167     -0.0865
     77  CZ        61.5420   99.4270   62.7050 C.cat 167  ARG167      0.5346
     78  NH1       61.9040   98.4300   63.5020 N.pl3 167  ARG167      0.1354
     79  NH2       60.2660   99.5760   62.3820 N.pl3 167  ARG167      0.1354
     80  N         63.5360   97.2660   58.6620 N.am  168  LEU168     -0.1977
     81  CA        62.9770   95.9310   58.5370 C.3   168  LEU168      0.1596
     82  C         63.3300   95.3250   57.1820 C.2   168  LEU168      0.2287
     83  O         63.6040   96.0280   56.2060 O.2   168  LEU168     -0.2864
     84  CB        61.4580   95.9580   58.7050 C.3   168  LEU168      0.0297
     85  CG        60.9080   96.6310   59.9640 C.3   168  LEU168      0.0022
     86  CD1       59.3990   96.4580   60.0220 C.3   168  LEU168      0.0001
     87  CD2       61.5570   96.0750   61.2190 C.3   168  LEU168      0.0001
     88  N         58.3510   92.5910   56.9080 N.3   173  ILE173     -0.1245
     89  CA        57.1980   93.3290   56.3980 C.3   173  ILE173      0.1561
     90  C         56.0860   92.3600   56.0210 C.2   173  ILE173      0.2260
     91  O         54.9120   92.5760   56.3440 O.2   173  ILE173     -0.2867
     92  CB        57.6090   94.2090   55.2040 C.3   173  ILE173      0.0252
     93  CG1       58.6730   95.2220   55.6340 C.3   173  ILE173      0.0019
     94  CG2       56.3920   94.9320   54.6290 C.3   173  ILE173      0.0019
     95  CD1       59.2750   96.0140   54.4920 C.3   173  ILE173      0.0001
@<TRIPOS>BOND
     1    23    22    1
     2    22    21    1
     3    20    21    1
     4    20    19    1
     5    13    11   ar
     6    13    14   ar
     7    15    16    1
     8    19    16    1
     9    16    17    1
    10    11     8   ar
    11    14    12   ar
    12     1     2    1
    13     2     3    1
    14     2     5    1
    15    17    18    2
    16    17    24   am
    17     8    10   ar
    18     8     6   ar
    19     3     4    2
    20    12    10   ar
    21     5     6    1
    22    24    25    1
    23    10     9   ar
    24     6     7   ar
    25    41    40    2
    26    64    63    1
    27    64    58    1
    28    63    62    1
    29    56    57    1
    30    56    55    1
    31     9     7   ar
    32    25    26    1
    33    25    28    1
    34    45    47   ar
    35    45    43   ar
    36    38    26   am
    37    38    39    1
    38    42    39    1
    39    42    43    1
    40    40    39    1
    41    40    49   am
    42    54    55    1
    43    54    53    1
    44    26    27    2
    45    47    48   ar
    46    43    44   ar
    47    62    59    1
    48    50    49    1
    49    50    53    1
    50    50    51    1
    51    30    29   ar
    52    30    32   ar
    53    28    29    1
    54    58    51   am
    55    58    59    1
    56    29    31   ar
    57    32    33   ar
    58    51    52    2
    59    48    46   ar
    60    59    60    1
    61    44    46   ar
    62    31    33   ar
    63    31    34   ar
    64    33    35   ar
    65    60    61    2
    66    34    36   ar
    67    35    37   ar
    68    36    37   ar
    69    95    93    1
    70    65    66    1
    71    94    92    1
    72    92    93    1
    73    92    89    1
    74    66    67    1
    75    90    91    2
    76    90    89    1
    77    83    82    2
    78    89    88    1
    79    67    68    2
    80    67    69   am
    81    82    81    1
    82    69    70    1
    83    81    80    1
    84    81    84    1
    85    80    71   am
    86    84    85    1
    87    71    70    1
    88    71    72    2
    89    70    73    1
    90    85    86    1
    91    85    87    1
    92    73    74    1
    93    74    75    1
    94    76    75    1
    95    76    77    2
    96    79    77    1
    97    77    78    1
