@<TRIPOS>MOLECULE
tmp/5k83H00.pdb
 152 150 0 0 0
SMALL
GASTEIGER

@<TRIPOS>ATOM
      1  N         61.6720   25.5110   45.4560 N.3    28  SER28      -0.1202
      2  CA        61.8010   26.9290   45.7710 C.3    28  SER28       0.2020
      3  C         61.3820   27.2040   47.1970 C.2    28  SER28       0.2619
      4  O         60.9080   26.3090   47.9060 O.2    28  SER28      -0.2717
      5  CB        60.9530   27.7850   44.8280 C.3    28  SER28       0.2103
      6  OG        61.4840   27.7920   43.5190 O.3    28  SER28      -0.2182
      7  N         61.5820   28.4530   47.6080 N.am   29  GLY29      -0.1942
      8  CA        61.0370   28.9640   48.8470 C.3    29  GLY29       0.2014
      9  C         59.6200   29.4310   48.5840 C.2    29  GLY29       0.2638
     10  O         59.1690   29.4780   47.4330 O.2    29  GLY29      -0.2714
     11  N         58.9220   29.7910   49.6540 N.am   30  LEU30      -0.1977
     12  CA        57.4990   30.0870   49.5860 C.3    30  LEU30       0.1596
     13  C         57.2680   31.5610   49.9490 C.2    30  LEU30       0.2287
     14  O         58.0260   32.1230   50.7370 O.2    30  LEU30      -0.2864
     15  CB        56.7210   29.1510   50.5290 C.3    30  LEU30       0.0297
     16  CG        56.7550   27.6140   50.3980 C.3    30  LEU30       0.0022
     17  CD1       58.1040   27.0020   50.7860 C.3    30  LEU30       0.0001
     18  CD2       55.6360   26.9370   51.2020 C.3    30  LEU30       0.0001
     19  N         55.6180   30.5400   56.6890 N.3    59  TYR59      -0.1228
     20  CA        56.2220   29.9240   57.8520 C.3    59  TYR59       0.1721
     21  C         55.5760   30.4310   59.1240 C.2    59  TYR59       0.2437
     22  O         56.2210   31.1000   59.9290 O.2    59  TYR59      -0.2733
     23  CB        57.7360   30.1710   57.8650 C.3    59  TYR59       0.0547
     24  CG        58.3740   29.9300   56.5140 C.ar   59  TYR59      -0.0200
     25  CD1       57.8920   28.9330   55.6630 C.ar   59  TYR59      -0.0009
     26  CD2       59.4360   30.7120   56.0770 C.ar   59  TYR59      -0.0009
     27  CE1       58.4590   28.7190   54.4220 C.ar   59  TYR59       0.0417
     28  CE2       60.0110   30.5050   54.8330 C.ar   59  TYR59       0.0417
     29  CZ        59.5190   29.5060   54.0100 C.ar   59  TYR59       0.1957
     30  OH        60.0890   29.2950   52.7700 O.3    59  TYR59      -0.2866
     31  N         54.2880   30.1130   59.3080 N.am   60  PRO60      -0.2718
     32  CA        53.7830   30.2630   60.6750 C.3    60  PRO60       0.1535
     33  C         54.3640   29.1330   61.5310 C.2    60  PRO60       0.2598
     34  O         54.8800   28.1640   60.9620 O.2    60  PRO60      -0.2715
     35  CB        52.2570   30.1640   60.5080 C.3    60  PRO60       0.0310
     36  CG        52.0690   29.3610   59.2280 C.3    60  PRO60       0.0237
     37  CD        53.2600   29.6270   58.3600 C.3    60  PRO60       0.0939
     38  N         54.3240   29.2580   62.8580 N.am   61  LYS61      -0.1964
     39  CA        54.8030   28.1790   63.7190 C.3    61  LYS61       0.1728
     40  C         53.7160   27.1190   63.7810 C.2    61  LYS61       0.2616
     41  O         52.5780   27.3950   63.4210 O.2    61  LYS61      -0.2715
     42  CB        55.1560   28.6820   65.1250 C.3    61  LYS61       0.0311
     43  CG        56.0530   29.9270   65.1670 C.3    61  LYS61       0.0038
     44  CD        57.5420   29.5840   65.1260 C.3    61  LYS61       0.0206
     45  CE        58.4030   30.8410   65.2840 C.3    61  LYS61       0.1093
     46  NZ        59.8480   30.5880   65.0090 N.3    61  LYS61      -0.1314
     47  N         54.0700   25.9270   64.2610 N.am   62  ALA62      -0.1977
     48  CA        53.2060   24.7420   64.2310 C.3    62  ALA62       0.1597
     49  C         51.7040   24.9800   64.5260 C.2    62  ALA62       0.2287
     50  O         50.8300   24.5190   63.7610 O.2    62  ALA62      -0.2864
     51  CB        53.7620   23.7140   65.1930 C.3    62  ALA62       0.0319
     52  N         49.7290   26.6880   61.6240 N.3    65  HIS65      -0.1241
     53  CA        49.7030   26.1100   60.2820 C.3    65  HIS65       0.1621
     54  C         48.2500   26.0860   59.8680 C.2    65  HIS65       0.2264
     55  O         47.3800   25.8230   60.7010 O.2    65  HIS65      -0.2867
     56  CB        50.2920   24.7060   60.2390 C.3    65  HIS65       0.0745
     57  CG        51.7750   24.6670   60.3960 C.ar   65  HIS65       0.0817
     58  ND1       52.4790   23.4830   60.4650 N.ar   65  HIS65      -0.2268
     59  CD2       52.6910   25.6570   60.4940 C.ar   65  HIS65       0.1154
     60  CE1       53.7690   23.7500   60.5850 C.ar   65  HIS65       0.1986
     61  NE2       53.9210   25.0610   60.6100 N.ar   65  HIS65      -0.2212
     62  N         46.4820   24.0140   58.4810 N.3    67  GLU67      -0.1245
     63  CA        45.8280   22.7560   58.8060 C.3    67  GLU67       0.1567
     64  C         45.2640   22.7630   60.2150 C.2    67  GLU67       0.2260
     65  O         44.1770   22.2530   60.4290 O.2    67  GLU67      -0.2867
     66  CB        46.7870   21.5780   58.6440 C.3    67  GLU67       0.0388
     67  CG        47.3490   21.4390   57.2450 C.3    67  GLU67       0.1160
     68  CD        48.6940   22.0970   57.1060 C.2    67  GLU67       0.3649
     69  OE1       48.8310   23.3060   57.4220 O.co2  67  GLU67      -0.2457
     70  OE2       49.6280   21.3930   56.6830 O.co2  67  GLU67      -0.2457
     71  N         50.8540   23.8730   50.4680 N.3    94  TRP94      -0.1227
     72  CA        52.0770   23.1890   50.8550 C.3    94  TRP94       0.1737
     73  C         51.8230   21.7850   51.4020 C.2    94  TRP94       0.2596
     74  O         50.6680   21.3660   51.5570 O.2    94  TRP94      -0.2718
     75  CB        52.8560   24.0400   51.8760 C.3    94  TRP94       0.0564
     76  CG        52.3340   24.0880   53.3160 C.ar   94  TRP94       0.0003
     77  CD1       51.2370   23.4380   53.8360 C.ar   94  TRP94       0.0946
     78  CD2       52.9130   24.8190   54.4110 C.ar   94  TRP94       0.0152
     79  NE1       51.1100   23.7190   55.1710 N.ar   94  TRP94      -0.2442
     80  CE2       52.1180   24.5660   55.5530 C.ar   94  TRP94       0.0810
     81  CE3       54.0310   25.6600   54.5400 C.ar   94  TRP94       0.0012
     82  CZ2       52.4040   25.1200   56.8080 C.ar   94  TRP94       0.0191
     83  CZ3       54.3060   26.2180   55.7950 C.ar   94  TRP94       0.0001
     84  CH2       53.4920   25.9390   56.9080 C.ar   94  TRP94       0.0015
     85  N         52.9160   21.0770   51.6960 N.am   95  SER95      -0.1952
     86  CA        52.8950   19.7390   52.2980 C.3    95  SER95       0.1924
     87  C         52.5570   19.7820   53.7830 C.2    95  SER95       0.2314
     88  O         53.0780   20.6250   54.5170 O.2    95  SER95      -0.2863
     89  CB        54.2610   19.0410   52.1380 C.3    95  SER95       0.2116
     90  OG        54.5000   18.6190   50.8090 O.3    95  SER95      -0.2180
     91  N         53.0940   18.8650   57.4990 N.3    97  CYS97      -0.1235
     92  CA        54.1320   18.3800   58.3960 C.3    97  CYS97       0.1677
     93  C         53.5680   17.2220   59.2330 C.2    97  CYS97       0.2270
     94  O         52.3740   16.9490   59.2000 O.2    97  CYS97      -0.2867
     95  CB        54.6480   19.5150   59.2940 C.3    97  CYS97       0.0956
     96  SG        53.4600   20.1000   60.5310 S.3    97  CYS97      -0.0801
     97  N         53.2570   16.8360   62.5580 N.3    99  ARG99      -0.1245
     98  CA        52.3570   17.3380   63.6020 C.3    99  ARG99       0.1563
     99  C         50.9620   17.5120   63.0510 C.2    99  ARG99       0.2260
    100  O         50.0040   16.9990   63.6060 O.2    99  ARG99      -0.2867
    101  CB        52.8290   18.6830   64.1630 C.3    99  ARG99       0.0307
    102  CG        54.2420   18.7020   64.7080 C.3    99  ARG99       0.0489
    103  CD        54.2550   18.8980   66.2230 C.3    99  ARG99       0.2205
    104  NE        54.9450   20.1260   66.6330 N.pl3  99  ARG99      -0.0865
    105  CZ        54.3760   21.1090   67.3330 C.cat  99  ARG99       0.5346
    106  NH1       53.0990   21.0110   67.7020 N.pl3  99  ARG99       0.1354
    107  NH2       55.0810   22.1900   67.6700 N.pl3  99  ARG99       0.1354
    108  N         56.5650   19.8080   49.4400 N.3   124  TYR124     -0.1227
    109  CA        57.8620   20.3290   49.8770 C.3   124  TYR124      0.1736
    110  C         58.5100   19.3750   50.8690 C.2   124  TYR124      0.2595
    111  O         57.8150   18.7040   51.6640 O.2   124  TYR124     -0.2718
    112  CB        57.7490   21.7270   50.5160 C.3   124  TYR124      0.0548
    113  CG        57.1480   22.8110   49.6420 C.ar  124  TYR124     -0.0200
    114  CD1       55.7690   22.9640   49.5450 C.ar  124  TYR124     -0.0009
    115  CD2       57.9580   23.7090   48.9530 C.ar  124  TYR124     -0.0009
    116  CE1       55.2120   23.9580   48.7630 C.ar  124  TYR124      0.0417
    117  CE2       57.4070   24.7140   48.1610 C.ar  124  TYR124      0.0417
    118  CZ        56.0310   24.8330   48.0650 C.ar  124  TYR124      0.1957
    119  OH        55.4570   25.8170   47.2720 O.3   124  TYR124     -0.2866
    120  N         59.8390   19.3230   50.8060 N.am  125  TYR125     -0.1976
    121  CA        60.6430   18.4840   51.6880 C.3   125  TYR125      0.1639
    122  C         60.2670   17.0330   51.4860 C.2   125  TYR125      0.2290
    123  O         60.2990   16.2450   52.4200 O.2   125  TYR125     -0.2864
    124  CB        60.4510   18.8990   53.1460 C.3   125  TYR125      0.0560
    125  CG        61.0350   20.2530   53.4400 C.ar  125  TYR125     -0.0198
    126  CD1       62.3450   20.5400   53.0880 C.ar  125  TYR125     -0.0009
    127  CD2       60.2950   21.2420   54.0670 C.ar  125  TYR125     -0.0009
    128  CE1       62.9120   21.7630   53.3550 C.ar  125  TYR125      0.0417
    129  CE2       60.8590   22.4850   54.3350 C.ar  125  TYR125      0.0417
    130  CZ        62.1650   22.7300   53.9670 C.ar  125  TYR125      0.1957
    131  OH        62.7520   23.9370   54.2140 O.3   125  TYR125     -0.2866
    132  N         62.5320   14.5690   52.7620 N.3   128  LYS128     -0.1245
    133  CA        62.6750   14.3870   54.2080 C.3   128  LYS128      0.1561
    134  C         61.6800   13.3680   54.7610 C.2   128  LYS128      0.2260
    135  O         60.4760   13.4690   54.5090 O.2   128  LYS128     -0.2867
    136  CB        62.5210   15.7120   54.9540 C.3   128  LYS128      0.0271
    137  CG        63.5630   16.7670   54.5850 C.3   128  LYS128      0.0035
    138  CD        63.5940   17.8710   55.6430 C.3   128  LYS128      0.0206
    139  CE        64.5970   18.9820   55.2950 C.3   128  LYS128      0.1093
    140  NZ        64.8450   19.8850   56.4720 N.3   128  LYS128     -0.1314
    141  N         58.2790   14.2050   56.4010 N.3   131  TYR131     -0.1241
    142  CA        57.2880   14.7040   55.4580 C.3   131  TYR131      0.1605
    143  C         56.7210   13.5880   54.5860 C.2   131  TYR131      0.2264
    144  O         55.5510   13.6070   54.2280 O.2   131  TYR131     -0.2867
    145  CB        57.8860   15.8140   54.6000 C.3   131  TYR131      0.0534
    146  CG        57.9350   17.1320   55.3460 C.ar  131  TYR131     -0.0201
    147  CD1       56.8530   17.9940   55.3330 C.ar  131  TYR131     -0.0009
    148  CD2       59.0500   17.4950   56.0940 C.ar  131  TYR131     -0.0009
    149  CE1       56.8850   19.1860   56.0270 C.ar  131  TYR131      0.0417
    150  CE2       59.0930   18.6860   56.7870 C.ar  131  TYR131      0.0417
    151  CZ        58.0070   19.5280   56.7520 C.ar  131  TYR131      0.1957
    152  OH        58.0410   20.7270   57.4350 O.3   131  TYR131     -0.2866
@<TRIPOS>BOND
     1     6     5    1
     2     5     2    1
     3     1     2    1
     4     2     3    1
     5     3     7   am
     6     3     4    2
     7   119   118    1
     8    10     9    2
     9     7     8    1
    10   118   117   ar
    11   118   116   ar
    12   117   115   ar
    13     9     8    1
    14     9    11   am
    15   116   114   ar
    16   115   113   ar
    17   108   109    1
    18   114   113   ar
    19    12    11    1
    20    12    13    1
    21    12    15    1
    22   113   112    1
    23   109   112    1
    24   109   110    1
    25    13    14    2
    26    16    15    1
    27    16    17    1
    28    16    18    1
    29    71    72    1
    30   120   110   am
    31   120   121    1
    32    90    89    1
    33    72    73    1
    34    72    75    1
    35   110   111    2
    36    73    74    2
    37    73    85   am
    38   122   121    1
    39   122   123    2
    40   121   124    1
    41    85    86    1
    42    75    76    1
    43    89    86    1
    44    86    87    1
    45   132   133    1
    46    30    29    1
    47   126   128   ar
    48   126   125   ar
    49   124   125    1
    50    76    77   ar
    51    76    78   ar
    52   128   130   ar
    53   125   127   ar
    54    87    88    2
    55    77    79   ar
    56   130   131    1
    57   130   129   ar
    58    29    27   ar
    59    29    28   ar
    60   127   129   ar
    61   133   134    1
    62   133   136    1
    63   144   143    2
    64    78    81   ar
    65    78    80   ar
    66    27    25   ar
    67   135   134    2
    68    81    83   ar
    69   137   136    1
    70   137   138    1
    71   143   142    1
    72   145   146    1
    73   145   142    1
    74    28    26   ar
    75    79    80   ar
    76   139   138    1
    77   139   140    1
    78   147   146   ar
    79   147   149   ar
    80   146   148   ar
    81   142   141    1
    82    80    82   ar
    83    25    24   ar
    84    83    84   ar
    85   149   151   ar
    86    26    24   ar
    87   148   150   ar
    88    24    23    1
    89    70    68   ar
    90    19    20    1
    91   151   150   ar
    92   151   152    1
    93    82    84   ar
    94    68    67    1
    95    68    69   ar
    96    67    66    1
    97    91    92    1
    98    20    23    1
    99    20    21    1
   100    37    36    1
   101    37    31    1
   102    92    93    1
   103    92    95    1
   104    62    63    1
   105    66    63    1
   106    63    64    1
   107    21    31   am
   108    21    22    2
   109    94    93    2
   110    36    35    1
   111    95    96    1
   112    31    32    1
   113    54    53    1
   114    54    55    2
   115    64    65    2
   116    56    53    1
   117    56    57    1
   118    53    52    1
   119    57    58   ar
   120    57    59   ar
   121    58    60   ar
   122    59    61   ar
   123    35    32    1
   124    60    61   ar
   125    32    33    1
   126    34    33    2
   127    33    38   am
   128    97    98    1
   129    38    39    1
   130    99    98    1
   131    99   100    2
   132    41    40    2
   133    98   101    1
   134    39    40    1
   135    39    42    1
   136    50    49    2
   137    40    47   am
   138   101   102    1
   139    48    47    1
   140    48    49    1
   141    48    51    1
   142   102   103    1
   143    46    45    1
   144    42    43    1
   145    44    43    1
   146    44    45    1
   147   103   104    1
   148   104   105    2
   149   105   107    1
   150   105   106    1
