@<TRIPOS>MOLECULE
tmp/5k85A00.pdb
 179 176 0 0 0
SMALL
GASTEIGER

@<TRIPOS>ATOM
      1  N         -2.3760    4.6160  -23.5670 N.3   280  THR280     -0.1218
      2  CA        -3.3960    4.6640  -24.6030 C.3   280  THR280      0.1862
      3  C         -2.7300    4.7600  -25.9680 C.2   280  THR280      0.2287
      4  O         -1.6990    5.4240  -26.1160 O.2   280  THR280     -0.2866
      5  CB        -4.3100    5.8620  -24.3890 C.3   280  THR280      0.1770
      6  OG1       -3.5310    7.0540  -24.5200 O.3   280  THR280     -0.2211
      7  CG2       -4.9130    5.8170  -22.9930 C.3   280  THR280      0.0375
      8  N         -7.2770   -2.9110  -21.3960 N.3   322  TRP322     -0.1227
      9  CA        -8.1010   -1.7280  -21.6330 C.3   322  TRP322      0.1737
     10  C         -8.5520   -1.1550  -20.2970 C.2   322  TRP322      0.2595
     11  O         -8.6930   -1.8930  -19.3160 O.2   322  TRP322     -0.2718
     12  CB        -9.3390   -2.1130  -22.4600 C.3   322  TRP322      0.0564
     13  CG       -10.1100   -0.9940  -23.1550 C.ar  322  TRP322      0.0003
     14  CD1       -9.6940    0.2930  -23.3760 C.ar  322  TRP322      0.0946
     15  CD2      -11.4260   -1.0920  -23.7340 C.ar  322  TRP322      0.0152
     16  NE1      -10.6670    0.9950  -24.0520 N.ar  322  TRP322     -0.2442
     17  CE2      -11.7380    0.1690  -24.2840 C.ar  322  TRP322      0.0810
     18  CE3      -12.3670   -2.1270  -23.8410 C.ar  322  TRP322      0.0012
     19  CZ2      -12.9580    0.4260  -24.9380 C.ar  322  TRP322      0.0191
     20  CZ3      -13.5790   -1.8700  -24.4860 C.ar  322  TRP322      0.0001
     21  CH2      -13.8620   -0.6010  -25.0250 C.ar  322  TRP322      0.0015
     22  N         -8.8480    0.1480  -20.2720 N.am  323  ILE323     -0.1966
     23  CA        -9.3360    0.7140  -19.0170 C.3   323  ILE323      0.1727
     24  C        -10.6310    0.0370  -18.5870 C.2   323  ILE323      0.2616
     25  O        -10.8640   -0.1570  -17.3840 O.2   323  ILE323     -0.2715
     26  CB        -9.4960    2.2440  -19.1190 C.3   323  ILE323      0.0290
     27  CG1       -9.7410    2.8350  -17.7240 C.3   323  ILE323      0.0022
     28  CG2      -10.5980    2.6200  -20.0760 C.3   323  ILE323      0.0023
     29  CD1       -8.5040    2.7600  -16.8100 C.3   323  ILE323      0.0001
     30  N        -11.4750   -0.3540  -19.5550 N.am  324  THR324     -0.1951
     31  CA       -12.7080   -1.0760  -19.2490 C.3   324  THR324      0.1897
     32  C        -12.4270   -2.3490  -18.4560 C.2   324  THR324      0.2313
     33  O        -13.1140   -2.6420  -17.4690 O.2   324  THR324     -0.2863
     34  CB       -13.4550   -1.4090  -20.5480 C.3   324  THR324      0.1794
     35  OG1      -13.6530   -0.2160  -21.3280 O.3   324  THR324     -0.2208
     36  CG2      -14.8100   -2.0560  -20.2430 C.3   324  THR324      0.0378
     37  N        -23.1000   -0.8960  -22.6570 N.3   398  SER398     -0.1202
     38  CA       -22.3620   -0.6570  -23.8890 C.3   398  SER398      0.2020
     39  C        -21.3160    0.4160  -23.6160 C.2   398  SER398      0.2619
     40  O        -21.6280    1.4200  -22.9710 O.2   398  SER398     -0.2717
     41  CB       -23.3230   -0.2310  -25.0030 C.3   398  SER398      0.2103
     42  OG       -22.6600   -0.0430  -26.2320 O.3   398  SER398     -0.2182
     43  N        -20.0850    0.2130  -24.0960 N.am  399  VAL399     -0.1965
     44  CA       -18.9750    1.1310  -23.8140 C.3   399  VAL399      0.1727
     45  C        -18.0090    1.1590  -24.9950 C.2   399  VAL399      0.2617
     46  O        -17.7410    0.1310  -25.6200 O.2   399  VAL399     -0.2715
     47  CB       -18.2180    0.7400  -22.5210 C.3   399  VAL399      0.0290
     48  CG1      -17.6820   -0.6860  -22.5920 C.3   399  VAL399      0.0023
     49  CG2      -17.0480    1.6990  -22.2630 C.3   399  VAL399      0.0023
     50  N        -17.4440    2.3360  -25.2730 N.am  400  GLY400     -0.1940
     51  CA       -16.3240    2.4820  -26.1900 C.3   400  GLY400      0.2014
     52  C        -16.5850    3.4560  -27.3220 C.2   400  GLY400      0.2639
     53  O        -15.6500    4.0890  -27.8140 O.2   400  GLY400     -0.2714
     54  N        -17.8400    3.6010  -27.7260 N.am  401  GLU401     -0.1963
     55  CA       -18.2120    4.4210  -28.8710 C.3   401  GLU401      0.1718
     56  C        -19.6990    4.7050  -28.7750 C.2   401  GLU401      0.2458
     57  O        -20.4190    4.0030  -28.0470 O.2   401  GLU401     -0.2730
     58  CB       -17.8920    3.7030  -30.1980 C.3   401  GLU401      0.0428
     59  CG       -16.9270    4.4460  -31.1050 C.3   401  GLU401      0.1163
     60  CD       -16.5950    3.6870  -32.3890 C.2   401  GLU401      0.3649
     61  OE1      -17.1820    2.5960  -32.6340 O.co2 401  GLU401     -0.2457
     62  OE2      -15.7260    4.1880  -33.1410 O.co2 401  GLU401     -0.2457
     63  N        -20.1960    5.7080  -29.5000 N.am  402  PRO402     -0.2727
     64  CA       -21.6500    5.8290  -29.6550 C.3   402  PRO402      0.1402
     65  C        -22.2170    4.5370  -30.2170 C.2   402  PRO402      0.2269
     66  O        -21.6390    3.9210  -31.1170 O.2   402  PRO402     -0.2865
     67  CB       -21.8130    7.0010  -30.6290 C.3   402  PRO402      0.0296
     68  CG       -20.5390    7.8260  -30.4330 C.3   402  PRO402      0.0237
     69  CD       -19.4730    6.7850  -30.2100 C.3   402  PRO402      0.0939
     70  N        -25.9140    2.7720  -21.5560 N.3   424  ASP424     -0.1225
     71  CA       -24.8840    3.3220  -22.4260 C.3   424  ASP424      0.1805
     72  C        -23.9200    4.1340  -21.5650 C.2   424  ASP424      0.2598
     73  O        -24.2740    5.2210  -21.0940 O.2   424  ASP424     -0.2718
     74  CB       -25.5580    4.1830  -23.4890 C.3   424  ASP424      0.1424
     75  CG       -24.6110    4.6740  -24.5490 C.2   424  ASP424      0.3668
     76  OD1      -23.4320    4.2680  -24.5690 O.co2 424  ASP424     -0.2456
     77  OD2      -25.0760    5.4630  -25.3950 O.co2 424  ASP424     -0.2456
     78  N        -22.7100    3.6120  -21.3410 N.am  425  THR425     -0.1939
     79  CA       -21.7780    4.1750  -20.3620 C.3   425  THR425      0.2028
     80  C        -20.6900    4.9570  -21.0840 C.2   425  THR425      0.2642
     81  O        -19.8290    4.3600  -21.7450 O.2   425  THR425     -0.2714
     82  CB       -21.1290    3.0850  -19.5120 C.3   425  THR425      0.1808
     83  OG1      -20.1680    2.3910  -20.3190 O.3   425  THR425     -0.2208
     84  CG2      -22.1730    2.0980  -18.9980 C.3   425  THR425      0.0379
     85  N        -20.7040    6.2800  -20.9160 N.am  426  TYR426     -0.1959
     86  CA       -19.6880    7.1550  -21.4810 C.3   426  TYR426      0.1771
     87  C        -18.6080    7.4810  -20.4460 C.2   426  TYR426      0.2620
     88  O        -18.9180    7.9650  -19.3490 O.2   426  TYR426     -0.2715
     89  CB       -20.3190    8.4450  -22.0010 C.3   426  TYR426      0.0574
     90  CG       -19.2670    9.4720  -22.3640 C.ar  426  TYR426     -0.0198
     91  CD1      -18.5630    9.3780  -23.5630 C.ar  426  TYR426     -0.0009
     92  CD2      -18.9560   10.5160  -21.5030 C.ar  426  TYR426     -0.0009
     93  CE1      -17.5940   10.2940  -23.8930 C.ar  426  TYR426      0.0417
     94  CE2      -17.9680   11.4350  -21.8240 C.ar  426  TYR426      0.0417
     95  CZ       -17.2920   11.3190  -23.0170 C.ar  426  TYR426      0.1957
     96  OH       -16.3140   12.2350  -23.3530 O.3   426  TYR426     -0.2866
     97  N        -17.3500    7.2570  -20.8120 N.am  427  TRP427     -0.1960
     98  CA       -16.1860    7.6530  -20.0140 C.3   427  TRP427      0.1771
     99  C        -14.9470    7.4850  -20.8900 C.2   427  TRP427      0.2620
    100  O        -15.0520    7.2520  -22.1010 O.2   427  TRP427     -0.2715
    101  CB       -16.0750    6.8630  -18.7010 C.3   427  TRP427      0.0590
    102  CG       -16.0950    5.3440  -18.8260 C.ar  427  TRP427      0.0006
    103  CD1      -17.0930    4.5660  -19.3860 C.ar  427  TRP427      0.0946
    104  CD2      -15.1050    4.4270  -18.3490 C.ar  427  TRP427      0.0152
    105  NE1      -16.7600    3.2320  -19.2890 N.ar  427  TRP427     -0.2442
    106  CE2      -15.5460    3.1200  -18.6610 C.ar  427  TRP427      0.0810
    107  CE3      -13.8710    4.5830  -17.6890 C.ar  427  TRP427      0.0012
    108  CZ2      -14.7910    1.9760  -18.3410 C.ar  427  TRP427      0.0191
    109  CZ3      -13.1330    3.4480  -17.3710 C.ar  427  TRP427      0.0001
    110  CH2      -13.5920    2.1660  -17.6960 C.ar  427  TRP427      0.0015
    111  N        -13.7720    7.6220  -20.2710 N.am  428  MET428     -0.1963
    112  CA       -12.4730    7.5310  -20.9230 C.3   428  MET428      0.1736
    113  C        -11.4700    6.9860  -19.9220 C.2   428  MET428      0.2617
    114  O        -11.6860    7.0600  -18.7080 O.2   428  MET428     -0.2715
    115  CB       -11.9480    8.8870  -21.4080 C.3   428  MET428      0.0427
    116  CG       -12.9530    9.7650  -22.0900 C.3   428  MET428      0.0599
    117  SD       -12.1460   11.2820  -22.6100 S.3   428  MET428     -0.1393
    118  CE       -11.7010   12.0030  -21.0470 C.3   428  MET428      0.0692
    119  N        -10.3620    6.4530  -20.4510 N.am  429  THR429     -0.1937
    120  CA        -9.2300    6.0630  -19.6160 C.3   429  THR429      0.2028
    121  C         -8.8920    7.1530  -18.6030 C.2   429  THR429      0.2642
    122  O         -8.7030    6.8740  -17.4100 O.2   429  THR429     -0.2714
    123  CB        -8.0070    5.7660  -20.4950 C.3   429  THR429      0.1808
    124  OG1       -8.3340    4.7720  -21.4760 O.3   429  THR429     -0.2208
    125  CG2       -6.8320    5.2600  -19.6580 C.3   429  THR429      0.0379
    126  N         -8.8400    8.4090  -19.0550 N.am  430  GLU430     -0.1976
    127  CA        -8.5070    9.5320  -18.1820 C.3   430  GLU430      0.1602
    128  C         -9.5760    9.8580  -17.1280 C.2   430  GLU430      0.2287
    129  O         -9.2620   10.6160  -16.2000 O.2   430  GLU430     -0.2864
    130  CB        -8.2300   10.7820  -19.0250 C.3   430  GLU430      0.0415
    131  CG        -7.0550   10.6570  -19.9910 C.3   430  GLU430      0.1163
    132  CD        -7.4600   10.1570  -21.3970 C.2   430  GLU430      0.3649
    133  OE1       -8.4810    9.4460  -21.5440 O.co2 430  GLU430     -0.2457
    134  OE2       -6.7330   10.4700  -22.3620 O.co2 430  GLU430     -0.2457
    135  N        -26.3230    8.6720  -23.5560 N.3   450  ALA450     -0.1245
    136  CA       -25.7800    8.2820  -22.2570 C.3   450  ALA450      0.1562
    137  C        -26.6360    8.7880  -21.1030 C.2   450  ALA450      0.2260
    138  O        -26.4890    8.2940  -19.9740 O.2   450  ALA450     -0.2867
    139  CB       -24.3500    8.7990  -22.1020 C.3   450  ALA450      0.0290
    140  N        -14.6950   15.1260  -26.9320 N.3   515  ASP515     -0.1239
    141  CA       -15.8520   14.5840  -27.6460 C.3   515  ASP515      0.1674
    142  C        -16.8860   15.6670  -27.9430 C.2   515  ASP515      0.2266
    143  O        -17.1200   16.5520  -27.1140 O.2   515  ASP515     -0.2867
    144  CB       -16.5120   13.4660  -26.8300 C.3   515  ASP515      0.1410
    145  CG       -15.6510   12.2290  -26.7460 C.2   515  ASP515      0.3668
    146  OD1      -15.4020   11.6450  -27.8210 O.co2 515  ASP515     -0.2456
    147  OD2      -15.2350   11.8320  -25.6290 O.co2 515  ASP515     -0.2456
    148  N        -23.4640   11.8710  -26.6340 N.3   527  ILE527     -0.1245
    149  CA       -22.0760   11.9550  -27.0720 C.3   527  ILE527      0.1561
    150  C        -22.0040   11.4550  -28.5020 C.2   527  ILE527      0.2260
    151  O        -22.2500   10.2760  -28.7620 O.2   527  ILE527     -0.2867
    152  CB       -21.1380   11.1390  -26.1780 C.3   527  ILE527      0.0252
    153  CG1      -21.5310   11.2550  -24.7000 C.3   527  ILE527      0.0019
    154  CG2      -19.7240   11.5980  -26.4180 C.3   527  ILE527      0.0019
    155  CD1      -21.3580   12.6090  -24.1500 C.3   527  ILE527      0.0001
    156  N        -19.4140   11.5920  -30.9740 N.3   529  GLY529     -0.1210
    157  CA       -18.1650   11.3400  -31.6630 C.3   529  GLY529      0.1956
    158  C        -17.0780   12.3090  -31.2280 C.2   529  GLY529      0.2611
    159  O        -17.3170   13.2760  -30.5120 O.2   529  GLY529     -0.2717
    160  N        -15.8600   12.0020  -31.6740 N.am  530  ARG530     -0.1979
    161  CA       -14.6890   12.8090  -31.3390 C.3   530  ARG530      0.1597
    162  C        -14.7670   14.1760  -32.0100 C.2   530  ARG530      0.2287
    163  O        -15.2500   14.3100  -33.1340 O.2   530  ARG530     -0.2864
    164  CB       -13.3980   12.1010  -31.7790 C.3   530  ARG530      0.0334
    165  CG       -13.0520   10.8100  -31.0310 C.3   530  ARG530      0.0492
    166  CD       -12.6700   11.0950  -29.5970 C.3   530  ARG530      0.2205
    167  NE       -11.3710   11.7630  -29.4820 N.pl3 530  ARG530     -0.0865
    168  CZ       -10.8520   12.2010  -28.3350 C.cat 530  ARG530      0.5346
    169  NH1      -11.5170   12.0440  -27.1940 N.pl3 530  ARG530      0.1354
    170  NH2       -9.6650   12.7980  -28.3240 N.pl3 530  ARG530      0.1354
    171  N        -12.3040    0.4220  -31.4280 N.3   628  LYS628     -0.1245
    172  CA       -12.4860    1.7810  -31.9130 C.3   628  LYS628      0.1561
    173  C        -12.1980    1.8320  -33.4080 C.2   628  LYS628      0.2260
    174  O        -11.2170    1.2530  -33.8810 O.2   628  LYS628     -0.2867
    175  CB       -11.5730    2.7430  -31.1560 C.3   628  LYS628      0.0271
    176  CG       -12.0170    2.8750  -29.6770 C.3   628  LYS628      0.0035
    177  CD       -11.1040    3.9290  -29.0490 C.3   628  LYS628      0.0206
    178  CE       -11.6960    4.4710  -27.7560 C.3   628  LYS628      0.1093
    179  NZ       -11.9490    3.3530  -26.8170 N.3   628  LYS628     -0.1314
@<TRIPOS>BOND
     1   174   173    2
     2   173   172    1
     3    62    60   ar
     4   163   162    2
     5    61    60   ar
     6    60    59    1
     7   162   161    1
     8   172   171    1
     9   172   175    1
    10   164   161    1
    11   164   165    1
    12   160   161    1
    13   160   158   am
    14   157   158    1
    15   157   156    1
    16   158   159    2
    17   175   176    1
    18    66    65    2
    19    59    58    1
    20   165   166    1
    21    67    68    1
    22    67    64    1
    23    68    69    1
    24    65    64    1
    25    69    63    1
    26    58    55    1
    27   176   177    1
    28    64    63    1
    29   166   167    1
    30    63    56   am
    31   167   168    2
    32   177   178    1
    33    55    56    1
    34    55    54    1
    35    56    57    2
    36   151   150    2
    37   150   149    1
    38   168   170    1
    39   168   169    1
    40   142   141    1
    41   142   143    2
    42   146   145   ar
    43    53    52    2
    44   178   179    1
    45    54    52   am
    46   141   140    1
    47   141   144    1
    48    52    51    1
    49   149   148    1
    50   149   152    1
    51   144   145    1
    52   145   147   ar
    53   154   152    1
    54    42    41    1
    55    51    50    1
    56   152   153    1
    57     4     3    2
    58     3     2    1
    59    46    45    2
    60    77    75   ar
    61    50    45   am
    62    21    19   ar
    63    21    20   ar
    64    41    38    1
    65    45    44    1
    66    19    17   ar
    67   153   155    1
    68     2     5    1
    69     2     1    1
    70    76    75   ar
    71    75    74    1
    72     6     5    1
    73    20    18   ar
    74     5     7    1
    75    17    16   ar
    76    17    15   ar
    77    43    44    1
    78    43    39   am
    79    16    14   ar
    80    93    91   ar
    81    93    95   ar
    82    38    39    1
    83    38    37    1
    84    18    15   ar
    85    44    47    1
    86    15    13   ar
    87    39    40    2
    88    91    90   ar
    89   135   136    1
    90    74    71    1
    91    14    13   ar
    92    96    95    1
    93    13    12    1
    94    95    94   ar
    95   117   116    1
    96   117   118    1
    97    48    47    1
    98    47    49    1
    99    12     9    1
   100    71    72    1
   101    71    70    1
   102    90    89    1
   103    90    92   ar
   104   134   132   ar
   105   136   139    1
   106   136   137    1
   107   100    99    2
   108   116   115    1
   109    89    86    1
   110    94    92   ar
   111    81    80    2
   112     9     8    1
   113     9    10    1
   114    72    78   am
   115    72    73    2
   116   133   132   ar
   117    86    85    1
   118    86    87    1
   119   124   123    1
   120   115   112    1
   121   132   131    1
   122    78    79    1
   123    35    34    1
   124   137   138    2
   125    80    85   am
   126    80    79    1
   127   112   111    1
   128   112   113    1
   129    99   111   am
   130    99    98    1
   131    97    87   am
   132    97    98    1
   133    34    36    1
   134    34    31    1
   135   123   125    1
   136   123   120    1
   137   119   113   am
   138   119   120    1
   139    87    88    2
   140    79    82    1
   141    83    82    1
   142    10    22   am
   143    10    11    2
   144    22    23    1
   145    28    26    1
   146    98   101    1
   147   131   130    1
   148   113   114    2
   149   120   121    1
   150    30    31    1
   151    30    24   am
   152    82    84    1
   153   103   105   ar
   154   103   102   ar
   155   105   106   ar
   156    31    32    1
   157    26    23    1
   158    26    27    1
   159   126   121   am
   160   126   127    1
   161   130   127    1
   162    23    24    1
   163   102   101    1
   164   102   104   ar
   165   106   104   ar
   166   106   108   ar
   167   121   122    2
   168    24    25    2
   169    32    33    2
   170   104   107   ar
   171   108   110   ar
   172   127   128    1
   173    27    29    1
   174   110   109   ar
   175   107   109   ar
   176   128   129    2
