@<TRIPOS>MOLECULE
tmp/5k85C00.pdb
 223 216 0 0 0
SMALL
GASTEIGER

@<TRIPOS>ATOM
      1  N         25.7730   27.2810    3.2630 N.3   163  PHE163     -0.1227
      2  CA        25.6640   28.7250    3.0930 C.3   163  PHE163      0.1736
      3  C         26.2070   29.1530    1.7380 C.2   163  PHE163      0.2595
      4  O         27.2790   28.7160    1.3160 O.2   163  PHE163     -0.2718
      5  CB        26.4210   29.4260    4.2270 C.3   163  PHE163      0.0547
      6  CG        26.4540   30.9290    4.1190 C.ar  163  PHE163     -0.0202
      7  CD1       25.2970   31.6510    3.8400 C.ar  163  PHE163     -0.0042
      8  CD2       27.6400   31.6240    4.3370 C.ar  163  PHE163     -0.0042
      9  CE1       25.3250   33.0410    3.7580 C.ar  163  PHE163     -0.0003
     10  CE2       27.6740   33.0130    4.2580 C.ar  163  PHE163     -0.0003
     11  CZ        26.5130   33.7230    3.9690 C.ar  163  PHE163     -0.0000
     12  N         25.4380   29.9930    1.0450 N.am  164  ALA164     -0.1966
     13  CA        25.8160   30.4670   -0.2810 C.3   164  ALA164      0.1728
     14  C         27.0810   31.3070   -0.2730 C.2   164  ALA164      0.2616
     15  O         27.6120   31.5910   -1.3520 O.2   164  ALA164     -0.2715
     16  CB        24.6790   31.2840   -0.8990 C.3   164  ALA164      0.0334
     17  N         27.5590   31.7250    0.8980 N.am  165  GLY165     -0.1955
     18  CA        28.8060   32.4400    1.0330 C.3   165  GLY165      0.1869
     19  C         30.0270   31.5680    1.2300 C.2   165  GLY165      0.2309
     20  O         31.1380   32.0960    1.3440 O.2   165  GLY165     -0.2863
     21  N         22.9080   39.3620   -5.0730 N.3   191  ARG191     -0.1245
     22  CA        22.8940   39.8990   -3.7200 C.3   191  ARG191      0.1563
     23  C         23.5960   41.2450   -3.7250 C.2   191  ARG191      0.2260
     24  O         24.7110   41.3580   -4.2430 O.2   191  ARG191     -0.2867
     25  CB        23.5740   38.9390   -2.7400 C.3   191  ARG191      0.0307
     26  CG        23.4630   39.3650   -1.2860 C.3   191  ARG191      0.0489
     27  CD        24.0680   38.3240   -0.3700 C.3   191  ARG191      0.2205
     28  NE        24.0770   38.7180    1.0400 N.pl3 191  ARG191     -0.0865
     29  CZ        25.0140   39.4750    1.6050 C.cat 191  ARG191      0.5346
     30  NH1       26.0140   39.9520    0.8730 N.pl3 191  ARG191      0.1354
     31  NH2       24.9480   39.7690    2.9010 N.pl3 191  ARG191      0.1354
     32  N         26.6750   36.1080   -7.6830 N.3   196  ILE196     -0.1245
     33  CA        27.3540   34.9830   -7.0530 C.3   196  ILE196      0.1561
     34  C         27.3790   33.8510   -8.0680 C.2   196  ILE196      0.2260
     35  O         26.3220   33.3590   -8.4840 O.2   196  ILE196     -0.2867
     36  CB        26.6410   34.5440   -5.7650 C.3   196  ILE196      0.0252
     37  CG1       26.2820   35.7540   -4.9040 C.3   196  ILE196      0.0019
     38  CG2       27.5030   33.5630   -4.9830 C.3   196  ILE196      0.0019
     39  CD1       25.2790   35.4220   -3.8090 C.3   196  ILE196      0.0001
     40  N         15.6230   38.5560    8.6930 N.3   302  MET302     -0.1230
     41  CA        16.5480   38.9760    7.6500 C.3   302  MET302      0.1702
     42  C         17.7780   38.0810    7.5530 C.2   302  MET302      0.2592
     43  O         18.7190   38.4180    6.8300 O.2   302  MET302     -0.2718
     44  CB        16.9730   40.4310    7.8770 C.3   302  MET302      0.0401
     45  CG        15.8130   41.3810    8.1740 C.3   302  MET302      0.0596
     46  SD        14.4030   41.2150    7.0510 S.3   302  MET302     -0.1393
     47  CE        14.6720   42.5900    5.9380 C.3   302  MET302      0.0692
     48  N         17.7830   36.9430    8.2360 N.am  303  ALA303     -0.1966
     49  CA        18.9460   36.0650    8.2580 C.3   303  ALA303      0.1728
     50  C         19.0540   35.2960    6.9360 C.2   303  ALA303      0.2616
     51  O         18.3410   35.5670    5.9670 O.2   303  ALA303     -0.2715
     52  CB        18.8670   35.1250    9.4570 C.3   303  ALA303      0.0334
     53  N         19.9470   34.3120    6.8910 N.am  304  ASP304     -0.1971
     54  CA        20.1830   33.4990    5.7080 C.3   304  ASP304      0.1709
     55  C         19.7820   32.0540    5.9960 C.2   304  ASP304      0.2293
     56  O         20.1130   31.5100    7.0560 O.2   304  ASP304     -0.2864
     57  CB        21.6560   33.5760    5.2880 C.3   304  ASP304      0.1436
     58  CG        21.8950   33.0700    3.8760 C.2   304  ASP304      0.3671
     59  OD1       21.8060   31.8450    3.6520 O.co2 304  ASP304     -0.2456
     60  OD2       22.1890   33.8970    2.9880 O.co2 304  ASP304     -0.2456
     61  N         22.0200   29.1710    7.5740 N.3   307  TRP307     -0.1227
     62  CA        22.3560   29.0810    8.9900 C.3   307  TRP307      0.1737
     63  C         21.1140   28.7200    9.7960 C.2   307  TRP307      0.2595
     64  O         19.9910   28.6780    9.2740 O.2   307  TRP307     -0.2718
     65  CB        22.9520   30.3940    9.4980 C.3   307  TRP307      0.0564
     66  CG        24.1480   30.8700    8.7270 C.ar  307  TRP307      0.0003
     67  CD1       24.2430   32.0120    7.9820 C.ar  307  TRP307      0.0946
     68  CD2       25.4250   30.2240    8.6320 C.ar  307  TRP307      0.0152
     69  NE1       25.4940   32.1150    7.4320 N.ar  307  TRP307     -0.2442
     70  CE2       26.2400   31.0300    7.8150 C.ar  307  TRP307      0.0810
     71  CE3       25.9550   29.0390    9.1550 C.ar  307  TRP307      0.0012
     72  CZ2       27.5630   30.6950    7.5130 C.ar  307  TRP307      0.0191
     73  CZ3       27.2720   28.7030    8.8530 C.ar  307  TRP307      0.0001
     74  CH2       28.0600   29.5320    8.0400 C.ar  307  TRP307      0.0015
     75  N         21.3190   28.4860   11.0960 N.am  308  ILE308     -0.1966
     76  CA        20.2230   27.9250   11.8870 C.3   308  ILE308      0.1727
     77  C         19.0890   28.9340   12.0580 C.2   308  ILE308      0.2616
     78  O         17.9240   28.5400   12.2080 O.2   308  ILE308     -0.2715
     79  CB        20.7320   27.4190   13.2470 C.3   308  ILE308      0.0290
     80  CG1       19.6630   26.5620   13.9290 C.3   308  ILE308      0.0022
     81  CG2       21.1200   28.5860   14.1290 C.3   308  ILE308      0.0023
     82  CD1       19.4500   25.1920   13.2770 C.3   308  ILE308      0.0001
     83  N         19.4020   30.2370   12.0380 N.am  309  THR309     -0.1951
     84  CA        18.3680   31.2580   12.1610 C.3   309  THR309      0.1897
     85  C         17.4370   31.2330   10.9550 C.2   309  THR309      0.2313
     86  O         16.2180   31.3980   11.0940 O.2   309  THR309     -0.2863
     87  CB        19.0030   32.6440   12.3060 C.3   309  THR309      0.1794
     88  OG1       20.0350   32.6170   13.3030 O.3   309  THR309     -0.2208
     89  CG2       17.9530   33.6680   12.6930 C.3   309  THR309      0.0378
     90  N         21.0860   42.9650    0.7730 N.3   331  THR331     -0.1204
     91  CA        21.8330   43.4130    1.9430 C.3   331  THR331      0.1979
     92  C         21.1050   44.5760    2.6040 C.2   331  THR331      0.2460
     93  O         20.2410   45.2070    1.9860 O.2   331  THR331     -0.2732
     94  CB        23.2660   43.8590    1.5910 C.3   331  THR331      0.1783
     95  OG1       23.2470   45.1910    1.0670 O.3   331  THR331     -0.2211
     96  CG2       23.9030   42.9250    0.5810 C.3   331  THR331      0.0376
     97  N         21.4180   44.8820    3.8690 N.am  332  PRO332     -0.2717
     98  CA        20.7520   46.0110    4.5410 C.3   332  PRO332      0.1535
     99  C         21.0580   47.3710    3.9390 C.2   332  PRO332      0.2598
    100  O         20.3730   48.3410    4.2940 O.2   332  PRO332     -0.2715
    101  CB        21.2800   45.9260    5.9800 C.3   332  PRO332      0.0310
    102  CG        21.6780   44.4970    6.1540 C.3   332  PRO332      0.0237
    103  CD        22.1950   44.0600    4.8160 C.3   332  PRO332      0.0939
    104  N         22.0500   47.4860    3.0550 N.am  333  VAL333     -0.1978
    105  CA        22.4670   48.7840    2.5370 C.3   333  VAL333      0.1596
    106  C         22.3600   48.8540    1.0130 C.2   333  VAL333      0.2287
    107  O         22.9350   49.7540    0.3990 O.2   333  VAL333     -0.2864
    108  CB        23.8910   49.1470    3.0090 C.3   333  VAL333      0.0276
    109  CG1       23.9370   49.3080    4.5200 C.3   333  VAL333      0.0022
    110  CG2       24.8980   48.1020    2.5470 C.3   333  VAL333      0.0022
    111  N         16.0300   48.2500    4.8860 N.3   340  TYR340     -0.1241
    112  CA        15.2470   47.5400    5.8960 C.3   340  TYR340      0.1605
    113  C         13.9240   48.2450    6.1590 C.2   340  TYR340      0.2264
    114  O         12.8900   47.5960    6.3560 O.2   340  TYR340     -0.2867
    115  CB        16.0360   47.4120    7.2010 C.3   340  TYR340      0.0534
    116  CG        16.9210   46.1890    7.3070 C.ar  340  TYR340     -0.0201
    117  CD1       17.0090   45.2750    6.2660 C.ar  340  TYR340     -0.0009
    118  CD2       17.6600   45.9430    8.4590 C.ar  340  TYR340     -0.0009
    119  CE1       17.8150   44.1530    6.3670 C.ar  340  TYR340      0.0417
    120  CE2       18.4680   44.8240    8.5680 C.ar  340  TYR340      0.0417
    121  CZ        18.5400   43.9330    7.5200 C.ar  340  TYR340      0.1957
    122  OH        19.3400   42.8190    7.6250 O.3   340  TYR340     -0.2866
    123  N         16.8190   40.4640   13.2330 N.3   354  THR354     -0.1203
    124  CA        18.1210   40.6110   12.6040 C.3   354  THR354      0.1994
    125  C         19.1940   40.4920   13.6720 C.2   354  THR354      0.2617
    126  O         18.9020   40.3650   14.8640 O.2   354  THR354     -0.2717
    127  CB        18.2560   41.9520   11.8790 C.3   354  THR354      0.1784
    128  OG1       19.4280   41.9260   11.0550 O.3   354  THR354     -0.2211
    129  CG2       18.3830   43.0990   12.8960 C.3   354  THR354      0.0376
    130  N         20.4540   40.5500   13.2270 N.am  355  ALA355     -0.1979
    131  CA        21.6520   40.5000   14.0420 C.3   355  ALA355      0.1597
    132  C         22.0400   41.9010   14.4880 C.2   355  ALA355      0.2287
    133  O         21.7970   42.8750   13.7680 O.2   355  ALA355     -0.2864
    134  CB        22.8050   39.8770   13.2590 C.3   355  ALA355      0.0319
    135  N         24.8780   43.1560   14.4080 N.3   357  THR357     -0.1203
    136  CA        25.8060   43.6960   13.4200 C.3   357  THR357      0.1994
    137  C         25.0770   44.4470   12.3120 C.2   357  THR357      0.2617
    138  O         25.5160   45.5230   11.8900 O.2   357  THR357     -0.2717
    139  CB        26.6500   42.5660   12.8440 C.3   357  THR357      0.1784
    140  OG1       27.7650   42.3410   13.7120 O.3   357  THR357     -0.2211
    141  CG2       27.1540   42.9130   11.4550 C.3   357  THR357      0.0376
    142  N         23.9630   43.8990   11.8260 N.am  358  ALA358     -0.1979
    143  CA        23.1940   44.6080   10.8130 C.3   358  ALA358      0.1597
    144  C         22.7200   45.9520   11.3380 C.2   358  ALA358      0.2287
    145  O         22.8130   46.9670   10.6390 O.2   358  ALA358     -0.2864
    146  CB        22.0060   43.7650   10.3500 C.3   358  ALA358      0.0319
    147  N         25.5740   48.3070   11.4000 N.3   361  LEU361     -0.1245
    148  CA        25.9120   48.7980   10.0690 C.3   361  LEU361      0.1561
    149  C         24.9990   49.9460    9.6550 C.2   361  LEU361      0.2260
    150  O         25.4650   50.9470    9.0970 O.2   361  LEU361     -0.2867
    151  CB        25.8380   47.6590    9.0540 C.3   361  LEU361      0.0270
    152  CG        26.2270   48.0130    7.6190 C.3   361  LEU361      0.0019
    153  CD1       27.6520   48.5220    7.5850 C.3   361  LEU361      0.0001
    154  CD2       26.0750   46.8020    6.7170 C.3   361  LEU361      0.0001
    155  N         19.6530   38.7120   17.4630 N.3   384  VAL384     -0.1231
    156  CA        20.1810   37.3660   17.6530 C.3   384  VAL384      0.1692
    157  C         21.5920   37.2890   17.0840 C.2   384  VAL384      0.2592
    158  O         21.9350   37.9890   16.1280 O.2   384  VAL384     -0.2718
    159  CB        19.2540   36.3160   16.9900 C.3   384  VAL384      0.0266
    160  CG1       19.2210   36.4980   15.4700 C.3   384  VAL384      0.0020
    161  CG2       19.6680   34.9010   17.3650 C.3   384  VAL384      0.0020
    162  N         22.4160   36.4240   17.6860 N.am  385  GLY385     -0.1957
    163  CA        23.6630   35.9790   17.0970 C.3   385  GLY385      0.1869
    164  C         24.9070   36.4170   17.8340 C.2   385  GLY385      0.2309
    165  O         25.9740   35.8280   17.6230 O.2   385  GLY385     -0.2863
    166  N         29.8820   39.3190   13.0760 N.3   523  SER523     -0.1202
    167  CA        28.6770   39.6730   12.3190 C.3   523  SER523      0.2020
    168  C         27.6000   38.5880   12.4230 C.2   523  SER523      0.2619
    169  O         26.9050   38.2840   11.4510 O.2   523  SER523     -0.2717
    170  CB        29.0100   39.9800   10.8550 C.3   523  SER523      0.2103
    171  OG        29.8300   41.0990   10.7310 O.3   523  SER523     -0.2182
    172  N         27.4390   38.0210   13.6160 N.am  524  GLY524     -0.1942
    173  CA        26.5050   36.9330   13.8030 C.3   524  GLY524      0.2014
    174  C         26.9350   35.6170   13.1990 C.2   524  GLY524      0.2638
    175  O         26.1800   34.6420   13.2900 O.2   524  GLY524     -0.2714
    176  N         28.1150   35.5560   12.5860 N.am  525  HIS525     -0.1973
    177  CA        28.6520   34.3280   12.0160 C.3   525  HIS525      0.1656
    178  C         29.6370   33.6890   12.9840 C.2   525  HIS525      0.2291
    179  O         30.4340   34.3790   13.6250 O.2   525  HIS525     -0.2864
    180  CB        29.3280   34.5960   10.6710 C.3   525  HIS525      0.0771
    181  CG        28.3610   34.8230    9.5530 C.ar  525  HIS525      0.0820
    182  ND1       28.5270   35.8170    8.6130 N.ar  525  HIS525     -0.2267
    183  CD2       27.2120   34.1860    9.2280 C.ar  525  HIS525      0.1154
    184  CE1       27.5220   35.7810    7.7560 C.ar  525  HIS525      0.1986
    185  NE2       26.7100   34.8000    8.1070 N.ar  525  HIS525     -0.2212
    186  N         39.5770   33.6600    2.3540 N.3   569  ARG569     -0.1245
    187  CA        38.3700   33.6880    1.5300 C.3   569  ARG569      0.1563
    188  C         38.3100   32.4990    0.5780 C.2   569  ARG569      0.2260
    189  O         37.2140   32.0700    0.2020 O.2   569  ARG569     -0.2867
    190  CB        38.3000   34.9960    0.7430 C.3   569  ARG569      0.0307
    191  CG        38.2410   36.2400    1.6140 C.3   569  ARG569      0.0489
    192  CD        38.5880   37.4860    0.8160 C.3   569  ARG569      0.2205
    193  NE        37.8130   37.5690   -0.4190 N.pl3 569  ARG569     -0.0865
    194  CZ        36.7000   38.2810   -0.5610 C.cat 569  ARG569      0.5346
    195  NH1       36.2220   38.9860    0.4550 N.pl3 569  ARG569      0.1354
    196  NH2       36.0640   38.2920   -1.7240 N.pl3 569  ARG569      0.1354
    197  N         34.4520   34.4520    1.4460 N.3   574  PRO574     -0.2102
    198  CA        34.6840   35.9060    1.5460 C.3   574  PRO574      0.1504
    199  C         34.2310   36.5130    2.8640 C.2   574  PRO574      0.2575
    200  O         34.8340   37.4910    3.3260 O.2   574  PRO574     -0.2718
    201  CB        33.8740   36.4670    0.3670 C.3   574  PRO574      0.0282
    202  CG        33.7450   35.3140   -0.5910 C.3   574  PRO574      0.0208
    203  CD        33.6650   34.0870    0.2570 C.3   574  PRO574      0.0893
    204  N         33.1850   35.9620    3.4840 N.am  575  PHE575     -0.1977
    205  CA        32.6990   36.4480    4.7710 C.3   575  PHE575      0.1639
    206  C         33.6730   36.1850    5.9130 C.2   575  PHE575      0.2290
    207  O         33.5050   36.7670    6.9890 O.2   575  PHE575     -0.2864
    208  CB        31.3520   35.7960    5.0950 C.3   575  PHE575      0.0560
    209  CG        31.4690   34.3790    5.5850 C.ar  575  PHE575     -0.0200
    210  CD1       31.7720   33.3510    4.7030 C.ar  575  PHE575     -0.0042
    211  CD2       31.2770   34.0740    6.9260 C.ar  575  PHE575     -0.0042
    212  CE1       31.8870   32.0490    5.1460 C.ar  575  PHE575     -0.0003
    213  CE2       31.3890   32.7710    7.3790 C.ar  575  PHE575     -0.0003
    214  CZ        31.6940   31.7570    6.4860 C.ar  575  PHE575     -0.0000
    215  N         39.8520   40.8780    9.9910 N.3   579  LYS579     -0.1245
    216  CA        39.9000   42.3380    9.9320 C.3   579  LYS579      0.1561
    217  C         41.3250   42.8290    9.7200 C.2   579  LYS579      0.2260
    218  O         41.5750   43.7020    8.8820 O.2   579  LYS579     -0.2867
    219  CB        39.3090   42.9410   11.2070 C.3   579  LYS579      0.0271
    220  CG        37.7960   42.8590   11.2890 C.3   579  LYS579      0.0035
    221  CD        37.1590   43.6540   10.1670 C.3   579  LYS579      0.0206
    222  CE        35.6510   43.6640   10.2710 C.3   579  LYS579      0.1093
    223  NZ        35.0910   42.3160   10.0100 N.3   579  LYS579     -0.1314
@<TRIPOS>BOND
     1    35    34    2
     2    34    33    1
     3    32    33    1
     4    33    36    1
     5    36    38    1
     6    36    37    1
     7    21    22    1
     8    37    39    1
     9    24    23    2
    10    23    22    1
    11    22    25    1
    12    25    26    1
    13   196   194    1
    14    15    14    2
    15    26    27    1
    16    16    13    1
    17   202   203    1
    18   202   201    1
    19   194   193    2
    20   194   195    1
    21   193   192    1
    22    27    28    1
    23    13    14    1
    24    13    12    1
    25    14    17   am
    26   189   188    2
    27   203   197    1
    28   201   198    1
    29   107   106    2
    30   188   187    1
    31    96    94    1
    32   190   187    1
    33   190   191    1
    34    90    91    1
    35   192   191    1
    36    30    29    1
    37    17    18    1
    38   106   105    1
    39    18    19    1
    40    28    29    2
    41    12     3   am
    42    95    94    1
    43    19    20    2
    44     4     3    2
    45   197   198    1
    46   187   186    1
    47   198   199    1
    48    94    91    1
    49    29    31    1
    50     3     2    1
    51    91    92    1
    52    93    92    2
    53   105   108    1
    54   105   104    1
    55   110   108    1
    56    92    97   am
    57   199   200    2
    58   199   204   am
    59    60    58   ar
    60   108   109    1
    61   104    99   am
    62     2     1    1
    63     2     5    1
    64   204   205    1
    65    59    58   ar
    66     9     7   ar
    67     9    11   ar
    68     7     6   ar
    69    97    98    1
    70    97   103    1
    71    58    57    1
    72    99   100    2
    73    99    98    1
    74    11    10   ar
    75     6     5    1
    76     6     8   ar
    77    10     8   ar
    78    98   101    1
    79   210   212   ar
    80   210   209   ar
    81   205   208    1
    82   205   206    1
    83   103   102    1
    84   111   112    1
    85   208   209    1
    86   212   214   ar
    87    57    54    1
    88   209   211   ar
    89    54    55    1
    90    54    53    1
    91   112   113    1
    92   112   115    1
    93   206   207    2
    94    47    46    1
    95    51    50    2
    96   101   102    1
    97    55    56    2
    98   113   114    2
    99   117   119   ar
   100   117   116   ar
   101   119   121   ar
   102   214   213   ar
   103   154   152    1
   104    43    42    2
   105    53    50   am
   106   211   213   ar
   107    50    49    1
   108    46    45    1
   109   115   116    1
   110   116   118   ar
   111    69    70   ar
   112    69    67   ar
   113    72    70   ar
   114    72    74   ar
   115   121   122    1
   116   121   120   ar
   117    42    41    1
   118    42    48   am
   119    61    62    1
   120   153   152    1
   121   152   151    1
   122    41    44    1
   123    41    40    1
   124   184   185   ar
   125   184   182   ar
   126    70    68   ar
   127    44    45    1
   128    67    66   ar
   129    74    73   ar
   130   185   183   ar
   131    48    49    1
   132    49    52    1
   133   118   120   ar
   134   182   181   ar
   135    68    66   ar
   136    68    71   ar
   137    66    65    1
   138    73    71   ar
   139   218   217    2
   140    62    65    1
   141    62    63    1
   142   151   148    1
   143   150   149    2
   144   183   181   ar
   145    64    63    2
   146   181   180    1
   147   149   148    1
   148   217   216    1
   149    63    75   am
   150   216   215    1
   151   216   219    1
   152   223   222    1
   153   148   147    1
   154   221   222    1
   155   221   220    1
   156   146   143    1
   157   145   144    2
   158   180   177    1
   159   171   170    1
   160   143   144    1
   161   143   142    1
   162   170   167    1
   163    85    86    2
   164    85    84    1
   165   128   127    1
   166    75    76    1
   167   219   220    1
   168   169   168    2
   169   141   139    1
   170   142   137   am
   171   127   124    1
   172   127   129    1
   173    76    77    1
   174    76    79    1
   175   138   137    2
   176   177   176    1
   177   177   178    1
   178    83    77   am
   179    83    84    1
   180    77    78    2
   181    84    87    1
   182    87    89    1
   183    87    88    1
   184   137   136    1
   185   167   168    1
   186   167   166    1
   187   168   172   am
   188   176   174   am
   189   124   123    1
   190   124   125    1
   191   139   136    1
   192   139   140    1
   193   178   179    2
   194   174   175    2
   195   174   173    1
   196   130   125   am
   197   130   131    1
   198    79    80    1
   199    79    81    1
   200   134   131    1
   201    82    80    1
   202   136   135    1
   203   172   173    1
   204   125   126    2
   205   133   132    2
   206   131   132    1
   207   160   159    1
   208   158   157    2
   209   159   161    1
   210   159   156    1
   211   157   156    1
   212   157   162   am
   213   163   162    1
   214   163   164    1
   215   155   156    1
   216   165   164    2
