@<TRIPOS>MOLECULE
tmp/5k87A01.pdb
 127 119 0 0 0
SMALL
GASTEIGER

@<TRIPOS>ATOM
      1  N         20.9540  -13.9130   77.9880 N.3    18  SER18      -0.1217
      2  CA        20.1390  -13.9260   79.2070 C.3    18  SER18       0.1889
      3  C         20.7200  -14.8400   80.2730 C.2    18  SER18       0.2288
      4  O         21.5090  -15.7330   79.9690 O.2    18  SER18      -0.2866
      5  CB        18.7290  -14.3930   78.8830 C.3    18  SER18       0.2089
      6  OG        18.1840  -13.5910   77.8440 O.3    18  SER18      -0.2183
      7  N         14.6740   -7.6680   82.7970 N.3    65  SER65      -0.1202
      8  CA        13.8420   -8.7470   82.2860 C.3    65  SER65       0.2020
      9  C         14.6980   -9.9350   81.8290 C.2    65  SER65       0.2619
     10  O         14.2920  -11.0940   81.9870 O.2    65  SER65      -0.2717
     11  CB        12.9260   -8.2540   81.1580 C.3    65  SER65       0.2103
     12  OG        13.6560   -7.9160   80.0000 O.3    65  SER65      -0.2182
     13  N         15.8830   -9.6510   81.2950 N.am   66  SER66      -0.1951
     14  CA        16.7180  -10.7290   80.7750 C.3    66  SER66       0.1924
     15  C         17.5090  -11.4460   81.8670 C.2    66  SER66       0.2314
     16  O         18.2240  -12.4070   81.5810 O.2    66  SER66      -0.2863
     17  CB        17.6440  -10.2170   79.6710 C.3    66  SER66       0.2116
     18  OG        18.3690   -9.0870   80.1070 O.3    66  SER66      -0.2180
     19  N         14.5180  -14.5900   85.3820 N.3    69  GLU69      -0.1245
     20  CA        14.0840  -15.6880   84.5230 C.3    69  GLU69       0.1567
     21  C         14.2610  -17.0200   85.2230 C.2    69  GLU69       0.2260
     22  O         15.2990  -17.2690   85.8570 O.2    69  GLU69      -0.2867
     23  CB        14.8750  -15.6950   83.2030 C.3    69  GLU69       0.0388
     24  CG        14.6300  -14.4550   82.3550 C.3    69  GLU69       0.1160
     25  CD        15.1030  -14.5660   80.9200 C.2    69  GLU69       0.3649
     26  OE1       15.8290  -15.5060   80.5610 O.co2  69  GLU69      -0.2457
     27  OE2       14.7270  -13.6880   80.1190 O.co2  69  GLU69      -0.2457
     28  N          9.0860  -21.9260   80.7470 N.3    87  PHE87      -0.1241
     29  CA         9.7620  -20.6800   81.0490 C.3    87  PHE87       0.1605
     30  C          8.8620  -19.7890   81.8870 C.2    87  PHE87       0.2264
     31  O          7.7030  -19.5400   81.5170 O.2    87  PHE87      -0.2867
     32  CB        10.1200  -19.9510   79.7580 C.3    87  PHE87       0.0534
     33  CG        10.6350  -18.5690   79.9830 C.ar   87  PHE87      -0.0203
     34  CD1       11.8080  -18.3670   80.6940 C.ar   87  PHE87      -0.0042
     35  CD2        9.9520  -17.4660   79.5050 C.ar   87  PHE87      -0.0042
     36  CE1       12.2970  -17.0900   80.9290 C.ar   87  PHE87      -0.0003
     37  CE2       10.4430  -16.1850   79.7370 C.ar   87  PHE87      -0.0003
     38  CZ        11.6140  -16.0040   80.4510 C.ar   87  PHE87      -0.0000
     39  N          8.6790  -15.9940   83.3680 N.3    89  GLN89      -0.1245
     40  CA         9.1760  -14.6310   83.3990 C.3    89  GLN89       0.1566
     41  C          8.7640  -14.0370   84.7390 C.2    89  GLN89       0.2260
     42  O          7.5700  -13.8530   85.0010 O.2    89  GLN89      -0.2867
     43  CB         8.5520  -13.8180   82.2660 C.3    89  GLN89       0.0367
     44  CG         9.0570  -12.3770   82.1920 C.3    89  GLN89       0.0905
     45  CD        10.4820  -12.3020   81.6990 C.2    89  GLN89       0.2608
     46  OE1       10.8200  -12.9250   80.7020 O.2    89  GLN89      -0.2717
     47  NE2       11.3300  -11.5560   82.4010 N.am   89  GLN89      -0.0878
     48  N          7.6350  -18.2450   75.5610 N.3   102  ASN102     -0.1225
     49  CA         8.9250  -18.9150   75.5480 C.3   102  ASN102      0.1785
     50  C         10.0310  -17.9070   75.8670 C.2   102  ASN102      0.2597
     51  O          9.8010  -16.6920   75.8810 O.2   102  ASN102     -0.2718
     52  CB         9.1170  -19.5210   74.1470 C.3   102  ASN102      0.1169
     53  CG        10.4020  -20.2980   73.9910 C.2   102  ASN102      0.2627
     54  OD1       10.9330  -20.8630   74.9470 O.2   102  ASN102     -0.2716
     55  ND2       10.8960  -20.3560   72.7610 N.am  102  ASN102     -0.0877
     56  N         11.2190  -18.4270   76.1560 N.am  103  CYS103     -0.1956
     57  CA        12.4310  -17.6250   76.1470 C.3   103  CYS103      0.1843
     58  C         13.3780  -18.2310   75.1270 C.2   103  CYS103      0.2626
     59  O         13.8370  -19.3640   75.2820 O.2   103  CYS103     -0.2714
     60  CB        13.1070  -17.5830   77.5130 C.3   103  CYS103      0.0997
     61  SG        14.6230  -16.5950   77.4360 S.3   103  CYS103     -0.0797
     62  N         13.6660  -17.4870   74.0700 N.am  104  GLY104     -0.1940
     63  CA        14.5030  -17.9880   72.9990 C.3   104  GLY104      0.2014
     64  C         15.9680  -18.0640   73.3600 C.2   104  GLY104      0.2638
     65  O         16.6490  -19.0160   72.9790 O.2   104  GLY104     -0.2714
     66  N         16.4680  -17.0660   74.0780 N.am  105  ASN105     -0.1972
     67  CA        17.8730  -17.0640   74.4610 C.3   105  ASN105      0.1688
     68  C         18.2400  -18.2410   75.3440 C.2   105  ASN105      0.2292
     69  O         19.3380  -18.7870   75.2310 O.2   105  ASN105     -0.2864
     70  CB        18.2630  -15.7540   75.1260 C.3   105  ASN105      0.1181
     71  CG        18.6490  -14.7040   74.1150 C.2   105  ASN105      0.2629
     72  OD1       19.6250  -14.8730   73.3790 O.2   105  ASN105     -0.2716
     73  ND2       17.8860  -13.6180   74.0500 N.am  105  ASN105     -0.0877
     74  N          3.9460   -9.4240   79.3620 N.3   270  HIS270     -0.1241
     75  CA         4.9590  -10.2370   78.6910 C.3   270  HIS270      0.1621
     76  C          4.6570  -10.4310   77.2150 C.2   270  HIS270      0.2264
     77  O          5.5590  -10.4610   76.3890 O.2   270  HIS270     -0.2867
     78  CB         5.0220  -11.5660   79.4450 C.3   270  HIS270      0.0745
     79  CG         6.0730  -12.5270   78.9850 C.ar  270  HIS270      0.0817
     80  ND1        7.2980  -12.1550   78.4640 N.ar  270  HIS270     -0.2268
     81  CD2        6.0900  -13.8790   79.0470 C.ar  270  HIS270      0.1154
     82  CE1        8.0040  -13.2400   78.1930 C.ar  270  HIS270      0.1986
     83  NE2        7.2920  -14.2990   78.5410 N.ar  270  HIS270     -0.2212
     84  N          4.9430   -8.5430   72.4920 N.3   273  LYS273     -0.1245
     85  CA         6.0730   -7.6270   72.5030 C.3   273  LYS273      0.1561
     86  C          5.8270   -6.4990   71.5060 C.2   273  LYS273      0.2260
     87  O          5.0310   -6.6460   70.5640 O.2   273  LYS273     -0.2867
     88  CB         7.3470   -8.3830   72.1140 C.3   273  LYS273      0.0271
     89  CG         7.6590   -9.5670   73.0280 C.3   273  LYS273      0.0035
     90  CD         7.9150   -9.1450   74.4720 C.3   273  LYS273      0.0206
     91  CE         8.3680  -10.3200   75.3330 C.3   273  LYS273      0.1093
     92  NZ         8.4760   -9.9250   76.7770 N.3   273  LYS273     -0.1314
     93  N         10.9170   -5.1350   76.2370 N.3   304  SER304     -0.1217
     94  CA        10.4470   -6.2770   77.0050 C.3   304  SER304      0.1889
     95  C         10.1430   -5.8070   78.4090 C.2   304  SER304      0.2288
     96  O         10.9660   -5.1470   79.0400 O.2   304  SER304     -0.2866
     97  CB        11.4850   -7.3950   77.0250 C.3   304  SER304      0.2089
     98  OG        10.9370   -8.5800   77.5850 O.3   304  SER304     -0.2183
     99  N         15.0460   -3.4630   75.3110 N.3   309  HIS309     -0.1241
    100  CA        15.8820   -4.6210   75.5640 C.3   309  HIS309      0.1621
    101  C         17.3260   -4.3450   75.1600 C.2   309  HIS309      0.2264
    102  O         17.5920   -3.6820   74.1580 O.2   309  HIS309     -0.2867
    103  CB        15.3150   -5.8150   74.7980 C.3   309  HIS309      0.0745
    104  CG        15.9100   -7.1280   75.1780 C.ar  309  HIS309      0.0817
    105  ND1       17.0930   -7.5940   74.6310 N.ar  309  HIS309     -0.2268
    106  CD2       15.4820   -8.0990   76.0180 C.ar  309  HIS309      0.1154
    107  CE1       17.3660   -8.7780   75.1310 C.ar  309  HIS309      0.1986
    108  NE2       16.4050   -9.1100   75.9850 N.ar  309  HIS309     -0.2212
    109  N         15.4730  -10.2410   72.2740 N.3   313  MET313     -0.1230
    110  CA        14.8690  -11.4720   72.7670 C.3   313  MET313      0.1702
    111  C         14.9270  -12.5290   71.6610 C.2   313  MET313      0.2593
    112  O         14.7080  -12.2260   70.4790 O.2   313  MET313     -0.2718
    113  CB        13.4180  -11.2290   73.1840 C.3   313  MET313      0.0401
    114  CG        13.2390  -10.1920   74.2780 C.3   313  MET313      0.0596
    115  SD        13.0130   -8.5090   73.6480 S.3   313  MET313     -0.1393
    116  CE        11.3230   -8.5670   73.0670 C.3   313  MET313      0.0692
    117  N         15.2240  -13.7700   72.0240 N.am  314  GLY314     -0.1942
    118  CA        15.2950  -14.8300   71.0350 C.3   314  GLY314      0.2014
    119  C         13.9620  -15.0770   70.3520 C.2   314  GLY314      0.2639
    120  O         13.9010  -15.3500   69.1400 O.2   314  GLY314     -0.2714
    121  N         12.8800  -14.9840   71.1200 N.am  315  THR315     -0.1950
    122  CA        11.5450  -15.1100   70.5340 C.3   315  THR315      0.1897
    123  C         11.2670  -14.0110   69.5100 C.2   315  THR315      0.2313
    124  O         10.7250  -14.2760   68.4220 O.2   315  THR315     -0.2863
    125  CB        10.4680  -15.0510   71.6040 C.3   315  THR315      0.1794
    126  OG1       10.6850  -13.8790   72.3930 O.3   315  THR315     -0.2208
    127  CG2       10.5160  -16.2950   72.4910 C.3   315  THR315      0.0378
@<TRIPOS>BOND
     1   124   123    2
     2   120   119    2
     3   123   122    1
     4   119   118    1
     5   119   121   am
     6   112   111    2
     7   122   121    1
     8   122   125    1
     9    87    86    2
    10   118   117    1
    11    86    85    1
    12   125   126    1
    13   125   127    1
    14   111   117   am
    15   111   110    1
    16    88    85    1
    17    88    89    1
    18   109   110    1
    19    84    85    1
    20    55    53   am
    21   110   113    1
    22    65    64    2
    23    63    64    1
    24    63    62    1
    25    89    90    1
    26   116   115    1
    27   113   114    1
    28    64    66   am
    29    72    71    2
    30   115   114    1
    31    53    52    1
    32    53    54    2
    33    73    71   am
    34    62    58   am
    35    66    67    1
    36    71    70    1
    37    52    49    1
    38   102   101    2
    39    67    70    1
    40    67    68    1
    41    90    91    1
    42   105   107   ar
    43   105   104   ar
    44   103   104    1
    45   103   100    1
    46    58    59    2
    47    58    57    1
    48   107   108   ar
    49   101   100    1
    50   104   106   ar
    51    69    68    2
    52    99   100    1
    53    91    92    1
    54    49    48    1
    55    49    50    1
    56    50    51    2
    57    50    56   am
    58   108   106   ar
    59    57    56    1
    60    57    60    1
    61    93    94    1
    62    77    76    2
    63    94    97    1
    64    94    95    1
    65    97    98    1
    66    76    75    1
    67    61    60    1
    68     6     5    1
    69     1     2    1
    70    82    80   ar
    71    82    83   ar
    72    95    96    2
    73    80    79   ar
    74    83    81   ar
    75    75    74    1
    76    75    78    1
    77     5     2    1
    78    79    81   ar
    79    79    78    1
    80     2     3    1
    81    35    37   ar
    82    35    33   ar
    83    17    18    1
    84    17    14    1
    85    37    38   ar
    86    32    33    1
    87    32    29    1
    88     4     3    2
    89    33    34   ar
    90    12    11    1
    91    27    25   ar
    92    38    36   ar
    93    26    25   ar
    94    34    36   ar
    95    46    45    2
    96    28    29    1
    97    14    13    1
    98    14    15    1
    99    25    24    1
   100    29    30    1
   101    11     8    1
   102    13     9   am
   103    31    30    2
   104    16    15    2
   105    45    44    1
   106    45    47   am
   107     9    10    2
   108     9     8    1
   109    44    43    1
   110    43    40    1
   111     8     7    1
   112    24    23    1
   113    23    20    1
   114    39    40    1
   115    40    41    1
   116    20    21    1
   117    20    19    1
   118    41    42    2
   119    21    22    2
