@<TRIPOS>MOLECULE
tmp/5k87A00.pdb
 100 96 0 0 0
SMALL
GASTEIGER

@<TRIPOS>ATOM
      1  N         17.6330   -7.7950   88.1970 N.3    63  ALA63      -0.1231
      2  CA        16.8390   -6.5690   88.1040 C.3    63  ALA63       0.1694
      3  C         16.6260   -6.0730   86.6720 C.2    63  ALA63       0.2593
      4  O         16.4240   -4.8790   86.4490 O.2    63  ALA63      -0.2718
      5  CB        17.4400   -5.4610   88.9840 C.3    63  ALA63       0.0304
      6  N         16.6580   -6.9910   85.7120 N.am   64  THR64      -0.1939
      7  CA        16.2790   -6.7000   84.3390 C.3    64  THR64       0.2028
      8  C         15.4560   -7.8800   83.8490 C.2    64  THR64       0.2643
      9  O         15.5370   -8.9830   84.4080 O.2    64  THR64      -0.2714
     10  CB        17.4890   -6.5180   83.4070 C.3    64  THR64       0.1808
     11  OG1       18.1420   -7.7820   83.2290 O.3    64  THR64      -0.2208
     12  CG2       18.4770   -5.4970   83.9620 C.3    64  THR64       0.0379
     13  N         14.6740   -7.6680   82.7970 N.am   65  SER65      -0.1935
     14  CA        13.8420   -8.7470   82.2860 C.3    65  SER65       0.2055
     15  C         14.6980   -9.9350   81.8290 C.2    65  SER65       0.2643
     16  O         14.2920  -11.0940   81.9870 O.2    65  SER65      -0.2714
     17  CB        12.9260   -8.2540   81.1580 C.3    65  SER65       0.2130
     18  OG        13.6560   -7.9160   80.0000 O.3    65  SER65      -0.2179
     19  N         15.8830   -9.6510   81.2950 N.am   66  SER66      -0.1949
     20  CA        16.7180  -10.7290   80.7750 C.3    66  SER66       0.1924
     21  C         17.5090  -11.4460   81.8670 C.2    66  SER66       0.2314
     22  O         18.2240  -12.4070   81.5810 O.2    66  SER66      -0.2863
     23  CB        17.6440  -10.2170   79.6710 C.3    66  SER66       0.2116
     24  OG        18.3690   -9.0870   80.1070 O.3    66  SER66      -0.2180
     25  N          9.5770   -8.1410   88.2930 N.3    92  ILE92      -0.1245
     26  CA        10.4350   -7.5080   89.2850 C.3    92  ILE92       0.1561
     27  C          9.6040   -6.8540   90.3840 C.2    92  ILE92       0.2260
     28  O          9.9440   -6.9430   91.5660 O.2    92  ILE92      -0.2867
     29  CB        11.3630   -6.4810   88.6240 C.3    92  ILE92       0.0252
     30  CG1       12.3230   -7.1920   87.6650 C.3    92  ILE92       0.0019
     31  CG2       12.1360   -5.6880   89.6690 C.3    92  ILE92       0.0019
     32  CD1       13.0600   -6.2640   86.7100 C.3    92  ILE92       0.0001
     33  N         19.8550    1.8590   74.8850 N.3   232  GLN232     -0.1245
     34  CA        18.9790    1.8680   76.0520 C.3   232  GLN232      0.1566
     35  C         18.8630    3.2440   76.6970 C.2   232  GLN232      0.2260
     36  O         17.7720    3.6420   77.0980 O.2   232  GLN232     -0.2867
     37  CB        19.4230    0.8480   77.0880 C.3   232  GLN232      0.0367
     38  CG        19.1230   -0.5760   76.6970 C.3   232  GLN232      0.0905
     39  CD        19.4240   -1.5140   77.8250 C.2   232  GLN232      0.2608
     40  OE1       20.5100   -1.4650   78.4040 O.2   232  GLN232     -0.2717
     41  NE2       18.4550   -2.3370   78.1870 N.am  232  GLN232     -0.0878
     42  N         15.2670    4.3790   77.9870 N.3   236  ASN236     -0.1240
     43  CA        14.8890    3.8050   79.2740 C.3   236  ASN236      0.1653
     44  C         14.8090    4.7810   80.4400 C.2   236  ASN236      0.2266
     45  O         14.2750    4.4350   81.4880 O.2   236  ASN236     -0.2867
     46  CB        15.7280    2.5750   79.5970 C.3   236  ASN236      0.1155
     47  CG        15.3460    1.3970   78.7370 C.2   236  ASN236      0.2627
     48  OD1       14.3160    1.4290   78.0650 O.2   236  ASN236     -0.2716
     49  ND2       16.1660    0.3490   78.7500 N.am  236  ASN236     -0.0877
     50  N         10.9170   -5.1350   76.2370 N.3   304  SER304     -0.1202
     51  CA        10.4470   -6.2770   77.0050 C.3   304  SER304      0.2020
     52  C         10.1430   -5.8070   78.4090 C.2   304  SER304      0.2618
     53  O         10.9660   -5.1470   79.0400 O.2   304  SER304     -0.2717
     54  CB        11.4850   -7.3950   77.0250 C.3   304  SER304      0.2103
     55  OG        10.9370   -8.5800   77.5850 O.3   304  SER304     -0.2182
     56  N          8.9440   -6.1210   78.8750 N.am  305  MET305     -0.1979
     57  CA         8.5230   -5.7460   80.2240 C.3   305  MET305      0.1605
     58  C          8.6890   -4.2470   80.4850 C.2   305  MET305      0.2287
     59  O          9.0640   -3.8460   81.5850 O.2   305  MET305     -0.2864
     60  CB         9.2620   -6.5810   81.2850 C.3   305  MET305      0.0413
     61  CG         9.2010   -8.1000   81.0400 C.3   305  MET305      0.0598
     62  SD         7.5310   -8.7730   80.9640 S.3   305  MET305     -0.1393
     63  CE         7.0500   -8.6180   82.6930 C.3   305  MET305      0.0692
     64  N         10.7490   -1.9390   79.0190 N.3   307  LYS307     -0.1231
     65  CA        12.0400   -1.2990   78.8000 C.3   307  LYS307      0.1693
     66  C         12.6060   -1.7240   77.4640 C.2   307  LYS307      0.2592
     67  O         12.3660   -2.8430   77.0260 O.2   307  LYS307     -0.2718
     68  CB        13.0280   -1.7090   79.8950 C.3   307  LYS307      0.0285
     69  CG        12.6840   -1.1840   81.2820 C.3   307  LYS307      0.0035
     70  CD        12.9530    0.3030   81.3820 C.3   307  LYS307      0.0206
     71  CE        12.4410    0.8630   82.7040 C.3   307  LYS307      0.1093
     72  NZ        13.1120    0.2160   83.8670 N.3   307  LYS307     -0.1314
     73  N         13.3630   -0.8450   76.8170 N.am  308  LEU308     -0.1966
     74  CA        14.1280   -1.2520   75.6490 C.3   308  LEU308      0.1728
     75  C         15.1000   -2.3610   76.0450 C.2   308  LEU308      0.2616
     76  O         15.8760   -2.2140   76.9920 O.2   308  LEU308     -0.2715
     77  CB        14.8970   -0.0670   75.0570 C.3   308  LEU308      0.0311
     78  CG        15.5190   -0.3880   73.7000 C.3   308  LEU308      0.0022
     79  CD1       14.4380   -0.3780   72.6250 C.3   308  LEU308      0.0001
     80  CD2       16.6370    0.5850   73.3480 C.3   308  LEU308      0.0001
     81  N         15.0460   -3.4630   75.3110 N.am  309  HIS309     -0.1959
     82  CA        15.8820   -4.6210   75.5640 C.3   309  HIS309      0.1787
     83  C         17.3260   -4.3450   75.1600 C.2   309  HIS309      0.2620
     84  O         17.5920   -3.6820   74.1580 O.2   309  HIS309     -0.2715
     85  CB        15.3150   -5.8150   74.7980 C.3   309  HIS309      0.0785
     86  CG        15.9100   -7.1280   75.1780 C.ar  309  HIS309      0.0821
     87  ND1       17.0930   -7.5940   74.6310 N.ar  309  HIS309     -0.2267
     88  CD2       15.4820   -8.0990   76.0180 C.ar  309  HIS309      0.1154
     89  CE1       17.3660   -8.7780   75.1310 C.ar  309  HIS309      0.1986
     90  NE2       16.4050   -9.1100   75.9850 N.ar  309  HIS309     -0.2212
     91  N         18.2650   -4.8830   75.9370 N.am  310  HIS310     -0.1973
     92  CA        19.6790   -4.5800   75.7490 C.3   310  HIS310      0.1656
     93  C         20.2560   -5.1870   74.4740 C.2   310  HIS310      0.2291
     94  O         21.2930   -4.7400   73.9770 O.2   310  HIS310     -0.2864
     95  CB        20.4850   -5.0300   76.9720 C.3   310  HIS310      0.0771
     96  CG        20.6580   -6.5140   77.0820 C.ar  310  HIS310      0.0820
     97  ND1       21.8770   -7.1290   76.8990 N.ar  310  HIS310     -0.2267
     98  CD2       19.7750   -7.5050   77.3620 C.ar  310  HIS310      0.1154
     99  CE1       21.7390   -8.4320   77.0670 C.ar  310  HIS310      0.1986
    100  NE2       20.4740   -8.6890   77.3430 N.ar  310  HIS310     -0.2212
@<TRIPOS>BOND
     1    79    78    1
     2    80    78    1
     3    78    77    1
     4    94    93    2
     5    84    83    2
     6    93    92    1
     7    87    89   ar
     8    87    86   ar
     9    85    86    1
    10    85    82    1
    11    33    34    1
    12    77    74    1
    13    89    90   ar
    14    83    82    1
    15    83    91   am
    16    86    88   ar
    17    81    82    1
    18    81    75   am
    19    74    75    1
    20    74    73    1
    21    92    91    1
    22    92    95    1
    23    90    88   ar
    24    75    76    2
    25    34    35    1
    26    34    37    1
    27    50    51    1
    28    38    37    1
    29    38    39    1
    30    35    36    2
    31    73    66   am
    32    97    99   ar
    33    97    96   ar
    34    95    96    1
    35    51    54    1
    36    51    52    1
    37    54    55    1
    38    67    66    2
    39    99   100   ar
    40    96    98   ar
    41   100    98   ar
    42    66    65    1
    43    39    41   am
    44    39    40    2
    45    42    43    1
    46    48    47    2
    47    52    56   am
    48    52    53    2
    49    47    49   am
    50    47    46    1
    51    65    64    1
    52    65    68    1
    53    56    57    1
    54    43    46    1
    55    43    44    1
    56    23    24    1
    57    23    20    1
    58    68    69    1
    59    18    17    1
    60    57    58    1
    61    57    60    1
    62    44    45    2
    63    58    59    2
    64    20    19    1
    65    20    21    1
    66    62    61    1
    67    62    63    1
    68    61    60    1
    69    17    14    1
    70    69    70    1
    71    19    15   am
    72    70    71    1
    73    22    21    2
    74    15    16    2
    75    15    14    1
    76    14    13    1
    77    71    72    1
    78    13     8   am
    79    11    10    1
    80    10    12    1
    81    10     7    1
    82     8     7    1
    83     8     9    2
    84     7     6    1
    85     6     3   am
    86     4     3    2
    87     3     2    1
    88    32    30    1
    89    30    29    1
    90     2     1    1
    91     2     5    1
    92    25    26    1
    93    29    26    1
    94    29    31    1
    95    26    27    1
    96    27    28    2
