@<TRIPOS>MOLECULE
tmp/5k8dB00.pdb
 81 75 0 0 0
SMALL
GASTEIGER

@<TRIPOS>ATOM
      1  N        -30.4560   49.0450  -32.3860 N.3    46  LEU46      -0.1245
      2  CA       -29.5590   47.9650  -31.9710 C.3    46  LEU46       0.1561
      3  C        -29.0910   48.0300  -30.4920 C.2    46  LEU46       0.2260
      4  O        -28.9510   46.9970  -29.8250 O.2    46  LEU46      -0.2867
      5  CB       -28.3430   47.9470  -32.9030 C.3    46  LEU46       0.0270
      6  CG       -28.0940   49.2030  -33.7600 C.3    46  LEU46       0.0019
      7  CD1      -27.9980   50.4850  -32.9450 C.3    46  LEU46       0.0001
      8  CD2      -26.8570   49.0510  -34.6250 C.3    46  LEU46       0.0001
      9  N        -17.5750   55.7140  -38.9480 N.3   161  HIS161     -0.1241
     10  CA       -18.7330   54.8900  -38.7920 C.3   161  HIS161      0.1621
     11  C        -18.5910   53.9940  -37.5760 C.2   161  HIS161      0.2264
     12  O        -17.7800   53.0720  -37.5750 O.2   161  HIS161     -0.2867
     13  CB       -18.9080   54.0520  -40.0560 C.3   161  HIS161      0.0745
     14  CG       -19.9460   52.9900  -39.9290 C.ar  161  HIS161      0.0817
     15  ND1      -20.8000   52.9190  -38.8530 N.ar  161  HIS161     -0.2268
     16  CD2      -20.2840   51.9670  -40.7470 C.ar  161  HIS161      0.1154
     17  CE1      -21.6110   51.8900  -39.0060 C.ar  161  HIS161      0.1986
     18  NE2      -21.3220   51.2990  -40.1500 N.ar  161  HIS161     -0.2212
     19  N        -17.9330   46.0770  -36.5000 N.3   165  VAL165     -0.1245
     20  CA       -18.7820   45.6700  -37.6450 C.3   165  VAL165      0.1561
     21  C        -18.3960   44.3680  -38.3460 C.2   165  VAL165      0.2260
     22  O        -19.2360   43.7280  -38.9760 O.2   165  VAL165     -0.2867
     23  CB       -18.9530   46.7820  -38.7030 C.3   165  VAL165      0.0252
     24  CG1      -19.8380   46.3260  -39.8580 C.3   165  VAL165      0.0019
     25  CG2      -19.5330   48.0440  -38.0600 C.3   165  VAL165      0.0019
     26  N        -18.0400   41.9660  -36.7530 N.3   167  VAL167     -0.1231
     27  CA       -18.6490   41.0680  -35.7730 C.3   167  VAL167      0.1692
     28  C        -19.6620   41.8360  -34.8940 C.2   167  VAL167      0.2591
     29  O        -19.5920   43.0580  -34.8010 O.2   167  VAL167     -0.2718
     30  CB       -17.5360   40.4310  -34.8970 C.3   167  VAL167      0.0266
     31  CG1      -16.4430   39.7840  -35.7490 C.3   167  VAL167      0.0020
     32  CG2      -16.8650   41.4640  -34.0120 C.3   167  VAL167      0.0020
     33  N        -20.6070   41.1410  -34.2660 N.am  168  GLN168     -0.1979
     34  CA       -21.6140   41.8120  -33.4360 C.3   168  GLN168      0.1601
     35  C        -21.2020   41.8250  -31.9930 C.2   168  GLN168      0.2287
     36  O        -20.7120   40.8240  -31.4850 O.2   168  GLN168     -0.2864
     37  CB       -22.9550   41.1130  -33.5450 C.3   168  GLN168      0.0394
     38  CG       -23.9390   41.7880  -34.4910 C.3   168  GLN168      0.0908
     39  CD       -24.8150   40.8060  -35.2960 C.2   168  GLN168      0.2608
     40  OE1      -24.4290   39.6620  -35.5410 O.2   168  GLN168     -0.2717
     41  NE2      -25.9970   41.2700  -35.7310 N.am  168  GLN168     -0.0878
     42  N        -22.7340   34.5530  -37.7090 N.3   225  GLN225     -0.1245
     43  CA       -22.0060   35.7940  -37.7300 C.3   225  GLN225      0.1566
     44  C        -21.3220   35.9780  -36.4020 C.2   225  GLN225      0.2260
     45  O        -22.0000   36.1540  -35.4130 O.2   225  GLN225     -0.2867
     46  CB       -22.9860   36.9110  -37.9900 C.3   225  GLN225      0.0367
     47  CG       -22.4510   37.9260  -38.9610 C.3   225  GLN225      0.0905
     48  CD       -22.1540   39.2400  -38.2840 C.2   225  GLN225      0.2608
     49  OE1      -21.6040   39.2760  -37.1770 O.2   225  GLN225     -0.2717
     50  NE2      -22.5080   40.3390  -38.9500 N.am  225  GLN225     -0.0878
     51  N        -28.4710   51.4190  -38.9120 N.3   405  ASN405     -0.1240
     52  CA       -27.0980   51.9010  -38.8630 C.3   405  ASN405      0.1653
     53  C        -27.0470   53.3940  -38.6250 C.2   405  ASN405      0.2266
     54  O        -26.3420   53.8520  -37.7340 O.2   405  ASN405     -0.2867
     55  CB       -26.3630   51.5790  -40.1570 C.3   405  ASN405      0.1155
     56  CG       -26.3870   50.1190  -40.4750 C.2   405  ASN405      0.2627
     57  OD1      -27.4470   49.5010  -40.5150 O.2   405  ASN405     -0.2716
     58  ND2      -25.2220   49.5580  -40.7080 N.am  405  ASN405     -0.0877
     59  N        -33.8580   48.5610  -47.3790 N.3   426  ILE426     -0.1245
     60  CA       -33.3720   47.4320  -46.5860 C.3   426  ILE426      0.1561
     61  C        -33.2040   47.7170  -45.0860 C.2   426  ILE426      0.2260
     62  O        -32.6600   48.7590  -44.6900 O.2   426  ILE426     -0.2867
     63  CB       -32.0990   46.8070  -47.2090 C.3   426  ILE426      0.0252
     64  CG1      -31.8690   45.4030  -46.6360 C.3   426  ILE426      0.0019
     65  CG2      -30.8880   47.7350  -47.0650 C.3   426  ILE426      0.0019
     66  CD1      -31.7040   44.3280  -47.6890 C.3   426  ILE426      0.0001
     67  N        -31.3560   46.1030  -42.4110 N.3   428  ASN428     -0.1226
     68  CA       -30.3670   45.3850  -41.6260 C.3   428  ASN428      0.1770
     69  C        -29.6260   46.5230  -40.9430 C.2   428  ASN428      0.2439
     70  O        -29.0810   47.3720  -41.6260 O.2   428  ASN428     -0.2733
     71  CB       -29.4630   44.5110  -42.5020 C.3   428  ASN428      0.1168
     72  CG       -30.1780   43.3050  -43.1050 C.2   428  ASN428      0.2627
     73  OD1      -31.1650   42.8120  -42.5650 O.2   428  ASN428     -0.2716
     74  ND2      -29.6590   42.8110  -44.2210 N.am  428  ASN428     -0.0877
     75  N        -29.6380   46.5970  -39.5870 N.am  429  PRO429     -0.2729
     76  CA       -30.3030   45.5560  -38.8080 C.3   429  PRO429      0.1401
     77  C        -31.8270   45.6050  -38.9780 C.2   429  PRO429      0.2269
     78  O        -32.3600   46.6190  -39.4610 O.2   429  PRO429     -0.2865
     79  CB       -29.9190   45.9120  -37.3830 C.3   429  PRO429      0.0296
     80  CG       -29.9620   47.3990  -37.3920 C.3   429  PRO429      0.0237
     81  CD       -29.3000   47.7660  -38.6940 C.3   429  PRO429      0.0939
@<TRIPOS>BOND
     1    66    64    1
     2    59    60    1
     3    63    65    1
     4    63    64    1
     5    63    60    1
     6    60    61    1
     7    61    62    2
     8    74    72   am
     9    72    73    2
    10    72    71    1
    11    71    68    1
    12    67    68    1
    13    70    69    2
    14    68    69    1
    15    69    75   am
    16    16    18   ar
    17    16    14   ar
    18    58    56   am
    19    57    56    2
    20    56    55    1
    21    55    52    1
    22    18    17   ar
    23    13    14    1
    24    13    10    1
    25    14    15   ar
    26    24    23    1
    27    75    76    1
    28    75    81    1
    29    78    77    2
    30    17    15   ar
    31    77    76    1
    32    22    21    2
    33    47    48    1
    34    47    46    1
    35    50    48   am
    36     9    10    1
    37    51    52    1
    38    52    53    1
    39    76    79    1
    40    10    11    1
    41    23    25    1
    42    23    20    1
    43    81    80    1
    44    53    54    2
    45    21    20    1
    46    48    49    2
    47    46    43    1
    48    43    42    1
    49    43    44    1
    50    20    19    1
    51    11    12    2
    52    80    79    1
    53    26    27    1
    54    44    45    2
    55    27    30    1
    56    27    28    1
    57    31    30    1
    58    41    39   am
    59    40    39    2
    60    39    38    1
    61    30    32    1
    62    28    29    2
    63    28    33   am
    64     8     6    1
    65    38    37    1
    66    33    34    1
    67     6     7    1
    68     6     5    1
    69    37    34    1
    70    34    35    1
    71     5     2    1
    72     1     2    1
    73    35    36    2
    74     2     3    1
    75     3     4    2
