@<TRIPOS>MOLECULE
tmp/5k8dA00.pdb
 88 85 0 0 0
SMALL
GASTEIGER

@<TRIPOS>ATOM
      1  N        -28.4160    6.7750    1.6930 N.3    15  ASP15      -0.1225
      2  CA       -27.8710    6.8470    3.0360 C.3    15  ASP15       0.1805
      3  C        -26.4980    7.4960    3.0520 C.2    15  ASP15       0.2597
      4  O        -25.9710    7.8110    4.1230 O.2    15  ASP15      -0.2718
      5  CB       -27.8230    5.4490    3.6810 C.3    15  ASP15       0.1424
      6  CG       -26.8940    4.4800    2.9510 C.2    15  ASP15       0.3668
      7  OD1      -26.6910    4.6380    1.7250 O.co2  15  ASP15      -0.2456
      8  OD2      -26.3750    3.5480    3.6100 O.co2  15  ASP15      -0.2456
      9  N        -25.9370    7.7390    1.8690 N.am   16  TYR16      -0.1976
     10  CA       -24.5770    8.2790    1.7650 C.3    16  TYR16       0.1639
     11  C        -23.5600    7.3200    2.4130 C.2    16  TYR16       0.2290
     12  O        -22.6890    7.7360    3.2160 O.2    16  TYR16      -0.2864
     13  CB       -24.4900    9.6640    2.4140 C.3    16  TYR16       0.0560
     14  CG       -25.3320   10.7190    1.7470 C.ar   16  TYR16      -0.0198
     15  CD1      -24.8250   11.4630    0.6850 C.ar   16  TYR16      -0.0009
     16  CD2      -26.6250   10.9860    2.1840 C.ar   16  TYR16      -0.0009
     17  CE1      -25.5840   12.4380    0.0690 C.ar   16  TYR16       0.0417
     18  CE2      -27.3900   11.9640    1.5710 C.ar   16  TYR16       0.0417
     19  CZ       -26.8560   12.6820    0.5170 C.ar   16  TYR16       0.1957
     20  OH       -27.5860   13.6460   -0.0990 O.3    16  TYR16      -0.2866
     21  N        -28.1740    8.5370    8.6700 N.3    18  VAL18      -0.1245
     22  CA       -28.9820    9.4540    7.8730 C.3    18  VAL18       0.1561
     23  C        -29.4850    8.7410    6.6340 C.2    18  VAL18       0.2260
     24  O        -28.7270    8.0870    5.9210 O.2    18  VAL18      -0.2867
     25  CB       -28.2170   10.7380    7.4640 C.3    18  VAL18       0.0252
     26  CG1      -27.1530   10.4540    6.4060 C.3    18  VAL18       0.0019
     27  CG2      -29.1930   11.7900    6.9570 C.3    18  VAL18       0.0019
     28  N        -26.6660   19.5140    3.1390 N.3   181  MET181     -0.1245
     29  CA       -25.6760   18.4720    2.8570 C.3   181  MET181      0.1570
     30  C        -24.4430   19.0520    2.1780 C.2   181  MET181      0.2261
     31  O        -24.4820   20.1630    1.6690 O.2   181  MET181     -0.2867
     32  CB       -26.2640   17.4080    1.9390 C.3   181  MET181      0.0387
     33  CG       -27.2280   16.4460    2.5960 C.3   181  MET181      0.0595
     34  SD       -26.4190   14.9650    3.2180 S.3   181  MET181     -0.1393
     35  CE       -26.0830   15.4000    4.9280 C.3   181  MET181      0.0692
     36  N        -20.7890   11.8270    2.2770 N.3   188  VAL188     -0.1231
     37  CA       -20.5460   12.9720    3.1310 C.3   188  VAL188      0.1692
     38  C        -19.2240   12.9320    3.8810 C.2   188  VAL188      0.2592
     39  O        -18.2490   13.5500    3.4630 O.2   188  VAL188     -0.2718
     40  CB       -21.6910   13.1970    4.1320 C.3   188  VAL188      0.0266
     41  CG1      -21.6490   14.6200    4.6390 C.3   188  VAL188      0.0020
     42  CG2      -23.0450   12.9170    3.4990 C.3   188  VAL188      0.0020
     43  N        -19.2180   12.2010    4.9910 N.am  189  ASN189     -0.1960
     44  CA       -18.1230   12.2090    5.9390 C.3   189  ASN189      0.1819
     45  C        -17.0630   11.2320    5.5270 C.2   189  ASN189      0.2621
     46  O        -17.0180   10.1150    6.0460 O.2   189  ASN189     -0.2715
     47  CB       -18.6170   11.8250    7.3350 C.3   189  ASN189      0.1195
     48  CG       -19.0350   13.0170    8.1450 C.2   189  ASN189      0.2630
     49  OD1      -18.3310   14.0370    8.1890 O.2   189  ASN189     -0.2716
     50  ND2      -20.1850   12.8930    8.8000 N.am  189  ASN189     -0.0877
     51  N        -16.2090   11.6280    4.5910 N.am  190  ARG190     -0.1977
     52  CA       -15.0760   10.7730    4.2170 C.3   190  ARG190      0.1597
     53  C        -15.5550    9.4280    3.6850 C.2   190  ARG190      0.2287
     54  O        -14.7660    8.4890    3.4800 O.2   190  ARG190     -0.2864
     55  CB       -14.1530   10.5630    5.4200 C.3   190  ARG190      0.0334
     56  CG       -13.4680   11.8270    5.9040 C.3   190  ARG190      0.0492
     57  CD       -12.7110   11.5920    7.1970 C.3   190  ARG190      0.2205
     58  NE       -12.0040   12.8050    7.6040 N.pl3 190  ARG190     -0.0865
     59  CZ       -12.5490   13.8280    8.2680 C.cat 190  ARG190      0.5346
     60  NH1      -13.8470   13.8300    8.6110 N.pl3 190  ARG190      0.1354
     61  NH2      -11.7770   14.8880    8.5450 N.pl3 190  ARG190      0.1354
     62  N        -16.7020   21.2140    6.7040 N.3   266  GLN266     -0.1231
     63  CA       -16.2090   19.8910    7.1360 C.3   266  GLN266      0.1698
     64  C        -17.1460   19.2270    8.1490 C.2   266  GLN266      0.2592
     65  O        -17.2680   17.9950    8.1830 O.2   266  GLN266     -0.2718
     66  CB       -14.7370   19.9300    7.6300 C.3   266  GLN266      0.0381
     67  CG       -14.4290   20.8020    8.8440 C.3   266  GLN266      0.0905
     68  CD       -14.9870   22.1970    8.6950 C.2   266  GLN266      0.2608
     69  OE1      -14.5370   22.9780    7.8520 O.2   266  GLN266     -0.2717
     70  NE2      -15.9980   22.5070    9.4880 N.am  266  GLN266     -0.0878
     71  N        -17.8290   20.0530    8.9390 N.am  267  HIS267     -0.1962
     72  CA       -18.8620   19.5720    9.8450 C.3   267  HIS267      0.1787
     73  C        -20.1200   19.1490    9.0790 C.2   267  HIS267      0.2620
     74  O        -21.0780   18.6620    9.6840 O.2   267  HIS267     -0.2715
     75  CB       -19.1970   20.6190   10.9200 C.3   267  HIS267      0.0785
     76  CG       -18.0320   21.0030   11.7810 C.ar  267  HIS267      0.0821
     77  ND1      -17.4620   22.2570   11.7440 N.ar  267  HIS267     -0.2267
     78  CD2      -17.3360   20.3020   12.7070 C.ar  267  HIS267      0.1154
     79  CE1      -16.4590   22.3100   12.6010 C.ar  267  HIS267      0.1986
     80  NE2      -16.3620   21.1370   13.2000 N.ar  267  HIS267     -0.2212
     81  N        -20.1240   19.3650    7.7650 N.am  268  ASP268     -0.1971
     82  CA       -21.2400   18.9490    6.9220 C.3   268  ASP268      0.1709
     83  C        -20.8630   17.8700    5.9030 C.2   268  ASP268      0.2293
     84  O        -21.7540   17.2250    5.3530 O.2   268  ASP268     -0.2864
     85  CB       -21.8350   20.1470    6.1800 C.3   268  ASP268      0.1436
     86  CG       -22.4640   21.1700    7.1000 C.2   268  ASP268      0.3671
     87  OD1      -21.8430   21.5370    8.1130 O.co2 268  ASP268     -0.2456
     88  OD2      -23.5780   21.6400    6.7820 O.co2 268  ASP268     -0.2456
@<TRIPOS>BOND
     1    20    19    1
     2    17    19   ar
     3    17    15   ar
     4    19    18   ar
     5    15    14   ar
     6    18    16   ar
     7    31    30    2
     8     1     2    1
     9     7     6   ar
    10    14    16   ar
    11    14    13    1
    12    10     9    1
    13    10    11    1
    14    10    13    1
    15     9     3   am
    16    32    33    1
    17    32    29    1
    18    30    29    1
    19    36    37    1
    20    11    12    2
    21    33    34    1
    22    29    28    1
    23     6     8   ar
    24     6     5    1
    25     2     3    1
    26     2     5    1
    27     3     4    2
    28    37    38    1
    29    37    40    1
    30    34    35    1
    31    39    38    2
    32    54    53    2
    33    42    40    1
    34    53    52    1
    35    38    43   am
    36    40    41    1
    37    52    51    1
    38    52    55    1
    39    51    45   am
    40    43    44    1
    41    84    83    2
    42    55    56    1
    43    45    44    1
    44    45    46    2
    45    83    82    1
    46    56    57    1
    47    24    23    2
    48    44    47    1
    49    85    82    1
    50    85    86    1
    51    26    25    1
    52    23    22    1
    53    62    63    1
    54    88    86   ar
    55    82    81    1
    56    27    25    1
    57    86    87   ar
    58    63    66    1
    59    63    64    1
    60    57    58    1
    61    47    48    1
    62    25    22    1
    63    58    59    2
    64    66    67    1
    65    81    73   am
    66    69    68    2
    67    22    21    1
    68    48    49    2
    69    48    50   am
    70    64    65    2
    71    64    71   am
    72    59    61    1
    73    59    60    1
    74    68    67    1
    75    68    70   am
    76    71    72    1
    77    73    74    2
    78    73    72    1
    79    72    75    1
    80    75    76    1
    81    77    76   ar
    82    77    79   ar
    83    76    78   ar
    84    79    80   ar
    85    78    80   ar
