@<TRIPOS>MOLECULE
tmp/5k8eA06.pdb
 104 101 0 0 0
SMALL
GASTEIGER

@<TRIPOS>ATOM
      1  N         37.2750    6.9350   51.5160 N.3   130  THR130     -0.1203
      2  CA        36.8790    5.5670   51.2890 C.3   130  THR130      0.1994
      3  C         38.1440    4.8810   50.7820 C.2   130  THR130      0.2618
      4  O         39.0920    5.5340   50.3470 O.2   130  THR130     -0.2717
      5  CB        35.7790    5.4960   50.2110 C.3   130  THR130      0.1784
      6  OG1       36.3040    5.9820   48.9660 O.3   130  THR130     -0.2211
      7  CG2       34.5980    6.3530   50.5940 C.3   130  THR130      0.0376
      8  N         38.1990    3.5710   50.8210 N.am  131  CYS131     -0.1969
      9  CA        39.4050    2.9070   50.3420 C.3   131  CYS131      0.1712
     10  C         40.2180    2.5420   51.5660 C.2   131  CYS131      0.2296
     11  O         41.0420    3.3350   52.0440 O.2   131  CYS131     -0.2864
     12  CB        40.2630    3.7820   49.4030 C.3   131  CYS131      0.0983
     13  SG        39.6110    4.1970   47.7590 S.3   131  CYS131     -0.0798
     14  N         27.9040   12.7950   46.1980 N.3   248  ARG248     -0.1245
     15  CA        28.7130   13.0220   45.0220 C.3   248  ARG248      0.1563
     16  C         27.9690   12.5540   43.7900 C.2   248  ARG248      0.2260
     17  O         27.0730   11.7010   43.8750 O.2   248  ARG248     -0.2867
     18  CB        30.0370   12.2440   45.1220 C.3   248  ARG248      0.0307
     19  CG        29.9060   10.7360   44.9540 C.3   248  ARG248      0.0489
     20  CD        31.1790   10.0200   45.3630 C.3   248  ARG248      0.2205
     21  NE        31.1150    8.5800   45.1220 N.pl3 248  ARG248     -0.0865
     22  CZ        32.0900    7.7350   45.4400 C.cat 248  ARG248      0.5346
     23  NH1       33.2010    8.1860   46.0060 N.pl3 248  ARG248      0.1354
     24  NH2       31.9570    6.4410   45.1980 N.pl3 248  ARG248      0.1354
     25  N         28.6460   10.3350   40.5860 N.3   250  LEU250     -0.1245
     26  CA        29.5500    9.4130   39.8880 C.3   250  LEU250      0.1561
     27  C         29.0470    9.2270   38.4750 C.2   250  LEU250      0.2260
     28  O         27.8890    8.8520   38.2740 O.2   250  LEU250     -0.2867
     29  CB        29.6420    8.0450   40.5830 C.3   250  LEU250      0.0270
     30  CG        30.3690    6.9360   39.8040 C.3   250  LEU250      0.0019
     31  CD1       31.8560    7.2130   39.6840 C.3   250  LEU250      0.0001
     32  CD2       30.1610    5.5840   40.4580 C.3   250  LEU250      0.0001
     33  N         30.0660    7.5610   34.5430 N.3   252  ASN252     -0.1240
     34  CA        30.8820    6.8100   33.5880 C.3   252  ASN252      0.1653
     35  C         30.1020    6.7220   32.2780 C.2   252  ASN252      0.2266
     36  O         29.0290    7.3110   32.1680 O.2   252  ASN252     -0.2867
     37  CB        31.2940    5.4420   34.1530 C.3   252  ASN252      0.1155
     38  CG        30.1120    4.5440   34.5050 C.2   252  ASN252      0.2627
     39  OD1       29.2330    4.2670   33.6760 O.2   252  ASN252     -0.2716
     40  ND2       30.1100    4.0410   35.7340 N.am  252  ASN252     -0.0877
     41  N         30.8220    1.6030   50.6570 N.3   299  TYR299     -0.1241
     42  CA        31.5320    2.3840   49.6410 C.3   299  TYR299      0.1605
     43  C         33.0350    2.0850   49.5810 C.2   299  TYR299      0.2264
     44  O         33.7730    2.7820   48.8700 O.2   299  TYR299     -0.2867
     45  CB        31.3210    3.8820   49.8820 C.3   299  TYR299      0.0534
     46  CG        29.9400    4.3940   49.4910 C.ar  299  TYR299     -0.0201
     47  CD1       29.4950    4.3150   48.1720 C.ar  299  TYR299     -0.0009
     48  CD2       29.0930    4.9710   50.4380 C.ar  299  TYR299     -0.0009
     49  CE1       28.2420    4.7890   47.8110 C.ar  299  TYR299      0.0417
     50  CE2       27.8400    5.4520   50.0820 C.ar  299  TYR299      0.0417
     51  CZ        27.4180    5.3530   48.7680 C.ar  299  TYR299      0.1957
     52  OH        26.1650    5.8100   48.4080 O.3   299  TYR299     -0.2866
     53  N         34.3990   -0.7890   48.5420 N.3   301  TYR301     -0.1241
     54  CA        34.7010   -1.5990   47.3570 C.3   301  TYR301      0.1605
     55  C         35.9270   -2.4680   47.6280 C.2   301  TYR301      0.2264
     56  O         36.9220   -2.4190   46.9070 O.2   301  TYR301     -0.2867
     57  CB        34.9180   -0.7110   46.1100 C.3   301  TYR301      0.0534
     58  CG        33.7250    0.1470   45.7270 C.ar  301  TYR301     -0.0201
     59  CD1       32.7380   -0.3310   44.8730 C.ar  301  TYR301     -0.0009
     60  CD2       33.5920    1.4410   46.2210 C.ar  301  TYR301     -0.0009
     61  CE1       31.6480    0.4570   44.5230 C.ar  301  TYR301      0.0417
     62  CE2       32.5090    2.2370   45.8810 C.ar  301  TYR301      0.0417
     63  CZ        31.5400    1.7440   45.0340 C.ar  301  TYR301      0.1957
     64  OH        30.4730    2.5450   44.7050 O.3   301  TYR301     -0.2866
     65  N         37.8390    2.0450   30.6400 N.3   350  SER350     -0.1202
     66  CA        37.1160    2.2620   31.8960 C.3   350  SER350      0.2020
     67  C         37.4720    3.5770   32.6100 C.2   350  SER350      0.2619
     68  O         38.3270    3.6160   33.5180 O.2   350  SER350     -0.2717
     69  CB        37.3980    1.1090   32.8510 C.3   350  SER350      0.2103
     70  OG        37.0210   -0.1160   32.2680 O.3   350  SER350     -0.2182
     71  N         36.7700    4.6410   32.2600 N.am  351  TRP351     -0.1961
     72  CA        36.9840    5.9410   32.8890 C.3   351  TRP351      0.1771
     73  C         35.8020    6.2720   33.7970 C.2   351  TRP351      0.2619
     74  O         34.7130    5.7130   33.6490 O.2   351  TRP351     -0.2715
     75  CB        37.1580    7.0230   31.8250 C.3   351  TRP351      0.0590
     76  CG        35.9540    7.2210   31.0040 C.ar  351  TRP351      0.0006
     77  CD1       35.6730    6.6240   29.8190 C.ar  351  TRP351      0.0946
     78  CD2       34.8230    8.0380   31.3220 C.ar  351  TRP351      0.0152
     79  NE1       34.4360    7.0150   29.3700 N.ar  351  TRP351     -0.2442
     80  CE2       33.8980    7.8950   30.2720 C.ar  351  TRP351      0.0810
     81  CE3       34.5110    8.8980   32.3850 C.ar  351  TRP351      0.0012
     82  CZ2       32.6800    8.5690   30.2570 C.ar  351  TRP351      0.0191
     83  CZ3       33.3080    9.5790   32.3620 C.ar  351  TRP351      0.0001
     84  CH2       32.3990    9.3980   31.3170 C.ar  351  TRP351      0.0015
     85  N         36.0140    7.1670   34.7470 N.am  352  TYR352     -0.1974
     86  CA        34.9090    7.7160   35.5050 C.3   352  TYR352      0.1639
     87  C         35.2340    9.1260   35.9460 C.2   352  TYR352      0.2290
     88  O         36.4030    9.5380   35.9390 O.2   352  TYR352     -0.2864
     89  CB        34.5240    6.8290   36.7020 C.3   352  TYR352      0.0560
     90  CG        35.5570    6.7120   37.8170 C.ar  352  TYR352     -0.0198
     91  CD1       35.7260    7.7360   38.7400 C.ar  352  TYR352     -0.0009
     92  CD2       36.3270    5.5710   37.9660 C.ar  352  TYR352     -0.0009
     93  CE1       36.6420    7.6310   39.7660 C.ar  352  TYR352      0.0417
     94  CE2       37.2460    5.4510   39.0060 C.ar  352  TYR352      0.0417
     95  CZ        37.3910    6.4880   39.8950 C.ar  352  TYR352      0.1957
     96  OH        38.2900    6.4160   40.9200 O.3   352  TYR352     -0.2866
     97  N         34.0810   11.7430   39.2030 N.3   354  ILE354     -0.1245
     98  CA        33.4020   11.9730   40.4480 C.3   354  ILE354      0.1561
     99  C         33.3680   13.4940   40.6720 C.2   354  ILE354      0.2260
    100  O         34.3900   14.1820   40.5280 O.2   354  ILE354     -0.2867
    101  CB        34.1270   11.2650   41.5960 C.3   354  ILE354      0.0252
    102  CG1       33.9230    9.7550   41.4710 C.3   354  ILE354      0.0019
    103  CG2       33.6330   11.7700   42.9480 C.3   354  ILE354      0.0019
    104  CD1       34.5130    8.9470   42.6000 C.3   354  ILE354      0.0001
@<TRIPOS>BOND
     1    79    77   ar
     2    79    80   ar
     3    77    76   ar
     4    82    80   ar
     5    82    84   ar
     6    80    78   ar
     7    65    66    1
     8    76    78   ar
     9    76    75    1
    10    84    83   ar
    11    78    81   ar
    12    75    72    1
    13    66    67    1
    14    66    69    1
    15    36    35    2
    16    71    67   am
    17    71    72    1
    18    70    69    1
    19    35    34    1
    20    83    81   ar
    21    67    68    2
    22    72    73    1
    23    34    37    1
    24    34    33    1
    25    74    73    2
    26    39    38    2
    27    73    85   am
    28    37    38    1
    29    38    40   am
    30    85    86    1
    31    86    87    1
    32    86    89    1
    33    88    87    2
    34    89    90    1
    35    90    92   ar
    36    90    91   ar
    37    92    94   ar
    38    28    27    2
    39    27    26    1
    40    91    93   ar
    41    94    95   ar
    42    97    98    1
    43    31    30    1
    44    93    95   ar
    45    30    32    1
    46    30    29    1
    47    26    29    1
    48    26    25    1
    49    95    96    1
    50    98    99    1
    51    98   101    1
    52   100    99    2
    53   102   101    1
    54   102   104    1
    55   101   103    1
    56    16    17    2
    57    16    15    1
    58    61    59   ar
    59    61    63   ar
    60    64    63    1
    61    59    58   ar
    62    19    18    1
    63    19    20    1
    64    15    18    1
    65    15    14    1
    66    63    62   ar
    67    21    20    1
    68    21    22    2
    69    24    22    1
    70    22    23    1
    71    58    57    1
    72    58    60   ar
    73    62    60   ar
    74    57    54    1
    75    56    55    2
    76    54    55    1
    77    54    53    1
    78    13    12    1
    79    49    47   ar
    80    49    51   ar
    81    47    46   ar
    82    52    51    1
    83    51    50   ar
    84    44    43    2
    85     6     5    1
    86    12     9    1
    87    46    45    1
    88    46    48   ar
    89    43    42    1
    90    42    45    1
    91    42    41    1
    92    50    48   ar
    93     5     7    1
    94     5     2    1
    95     9     8    1
    96     9    10    1
    97     4     3    2
    98     3     8   am
    99     3     2    1
   100     2     1    1
   101    10    11    2
