@<TRIPOS>MOLECULE
tmp/5k8fA00.pdb
 210 204 0 0 0
SMALL
GASTEIGER

@<TRIPOS>ATOM
      1  N         -3.0380   23.5090    5.4750 N.3   280  THR280     -0.1203
      2  CA        -4.0020   24.5930    5.4910 C.3   280  THR280      0.1994
      3  C         -3.2930   25.9140    5.2030 C.2   280  THR280      0.2619
      4  O         -2.0790   26.0500    5.3790 O.2   280  THR280     -0.2717
      5  CB        -4.7180   24.6710    6.8410 C.3   280  THR280      0.1784
      6  OG1       -3.7750   25.0110    7.8650 O.3   280  THR280     -0.2211
      7  CG2       -5.3680   23.3370    7.1810 C.3   280  THR280      0.0376
      8  N         -4.0650   26.8990    4.7540 N.am  281  SER281     -0.1937
      9  CA        -3.5100   28.1950    4.3920 C.3   281  SER281      0.2055
     10  C         -4.2770   29.2980    5.1030 C.2   281  SER281      0.2644
     11  O         -5.5120   29.2920    5.1120 O.2   281  SER281     -0.2714
     12  CB        -3.5530   28.4200    2.8740 C.3   281  SER281      0.2130
     13  OG        -4.8650   28.7440    2.4380 O.3   281  SER281     -0.2179
     14  N         -3.5480   30.2330    5.7130 N.am  282  GLY282     -0.1939
     15  CA        -4.1660   31.4960    6.0670 C.3   282  GLY282      0.2014
     16  C         -3.9950   32.0930    7.4530 C.2   282  GLY282      0.2639
     17  O         -4.4540   33.2200    7.6660 O.2   282  GLY282     -0.2714
     18  N         -3.3560   31.4160    8.4070 N.am  283  SER283     -0.1949
     19  CA        -3.4130   31.9660    9.7590 C.3   283  SER283      0.1924
     20  C         -2.3060   31.4260   10.6590 C.2   283  SER283      0.2314
     21  O         -1.8180   30.3070   10.4780 O.2   283  SER283     -0.2863
     22  CB        -4.7790   31.6780   10.4040 C.3   283  SER283      0.2116
     23  OG        -4.9640   30.2850   10.5900 O.3   283  SER283     -0.2180
     24  N          0.3640   24.5490    8.3510 N.3   288  LYS288     -0.1245
     25  CA        -0.1890   23.4730    9.1710 C.3   288  LYS288      0.1561
     26  C         -0.3800   22.2360    8.3000 C.2   288  LYS288      0.2260
     27  O         -1.3910   22.0990    7.6080 O.2   288  LYS288     -0.2867
     28  CB        -1.5020   23.9210    9.8060 C.3   288  LYS288      0.0271
     29  CG        -1.8240   23.2710   11.1390 C.3   288  LYS288      0.0035
     30  CD        -3.2100   23.6800   11.6260 C.3   288  LYS288      0.0206
     31  CE        -3.2760   25.1590   11.9820 C.3   288  LYS288      0.1093
     32  NZ        -4.6830   25.6360   12.1230 N.3   288  LYS288     -0.1314
     33  N         -7.2490   21.6100   -2.2050 N.3   325  TRP325     -0.1227
     34  CA        -8.0910   21.8140   -1.0390 C.3   325  TRP325      0.1737
     35  C         -8.5820   20.4520   -0.5680 C.2   325  TRP325      0.2595
     36  O         -8.6580   19.5040   -1.3580 O.2   325  TRP325     -0.2718
     37  CB        -9.2690   22.7360   -1.4040 C.3   325  TRP325      0.0564
     38  CG       -10.1670   23.1950   -0.2800 C.ar  325  TRP325      0.0003
     39  CD1       -9.8910   23.1960    1.0570 C.ar  325  TRP325      0.0946
     40  CD2      -11.4920   23.7330   -0.4120 C.ar  325  TRP325      0.0152
     41  NE1      -10.9600   23.6950    1.7640 N.ar  325  TRP325     -0.2442
     42  CE2      -11.9560   24.0310    0.8850 C.ar  325  TRP325      0.0810
     43  CE3      -12.3320   23.9880   -1.5040 C.ar  325  TRP325      0.0012
     44  CZ2      -13.2230   24.5720    1.1210 C.ar  325  TRP325      0.0191
     45  CZ3      -13.5880   24.5240   -1.2680 C.ar  325  TRP325      0.0001
     46  CH2      -14.0220   24.8110    0.0340 C.ar  325  TRP325      0.0015
     47  N         -8.9070   20.3460    0.7230 N.am  326  ILE326     -0.1980
     48  CA        -9.3960   19.0710    1.2400 C.3   326  ILE326      0.1595
     49  C        -10.6810   18.6540    0.5340 C.2   326  ILE326      0.2287
     50  O        -10.9710   17.4560    0.4130 O.2   326  ILE326     -0.2864
     51  CB        -9.5850   19.1440    2.7690 C.3   326  ILE326      0.0276
     52  CG1       -9.7740   17.7390    3.3530 C.3   326  ILE326      0.0022
     53  CG2      -10.7560   20.0450    3.1340 C.3   326  ILE326      0.0022
     54  CD1       -8.5270   16.8830    3.2640 C.3   326  ILE326      0.0001
     55  N        -22.8440   22.6620   -0.6860 N.3   401  SER401     -0.1202
     56  CA       -22.1730   23.9090   -0.3530 C.3   401  SER401      0.2020
     57  C        -21.1880   23.6400    0.7760 C.2   401  SER401      0.2619
     58  O        -21.5250   22.9600    1.7490 O.2   401  SER401     -0.2717
     59  CB       -23.1860   24.9890    0.0500 C.3   401  SER401      0.2103
     60  OG       -22.5400   26.2020    0.3910 O.3   401  SER401     -0.2182
     61  N        -19.9750   24.1740    0.6450 N.am  402  VAL402     -0.1965
     62  CA       -18.8930   23.8540    1.5740 C.3   402  VAL402      0.1727
     63  C        -17.9230   25.0260    1.6380 C.2   402  VAL402      0.2617
     64  O        -17.6570   25.6840    0.6290 O.2   402  VAL402     -0.2715
     65  CB       -18.1640   22.5560    1.1440 C.3   402  VAL402      0.0290
     66  CG1      -17.7350   22.6490   -0.3160 C.3   402  VAL402      0.0023
     67  CG2      -16.9650   22.2910    2.0370 C.3   402  VAL402      0.0023
     68  N        -17.3940   25.2860    2.8370 N.am  403  GLY403     -0.1940
     69  CA       -16.3070   26.2280    3.0370 C.3   403  GLY403      0.2014
     70  C        -16.6250   27.3400    4.0150 C.2   403  GLY403      0.2639
     71  O        -15.7160   27.8430    4.6830 O.2   403  GLY403     -0.2714
     72  N        -17.8930   27.7190    4.1260 N.am  404  GLU404     -0.1963
     73  CA       -18.3010   28.8430    4.9560 C.3   404  GLU404      0.1718
     74  C        -19.7900   28.7100    5.2280 C.2   404  GLU404      0.2458
     75  O        -20.4750   27.8980    4.5890 O.2   404  GLU404     -0.2730
     76  CB       -17.9920   30.1830    4.2680 C.3   404  GLU404      0.0428
     77  CG       -16.6750   30.8070    4.6790 C.3   404  GLU404      0.1163
     78  CD       -16.5250   32.2210    4.1650 C.2   404  GLU404      0.3649
     79  OE1      -17.0440   32.5130    3.0650 O.co2 404  GLU404     -0.2457
     80  OE2      -15.8960   33.0400    4.8680 O.co2 404  GLU404     -0.2457
     81  N        -20.3260   29.4800    6.1740 N.am  405  PRO405     -0.2727
     82  CA       -21.7840   29.5800    6.2720 C.3   405  PRO405      0.1402
     83  C        -22.3440   30.1440    4.9780 C.2   405  PRO405      0.2269
     84  O        -21.7780   31.0660    4.3880 O.2   405  PRO405     -0.2865
     85  CB       -22.0010   30.5350    7.4510 C.3   405  PRO405      0.0296
     86  CG       -20.7550   30.4350    8.2550 C.3   405  PRO405      0.0237
     87  CD       -19.6550   30.2260    7.2520 C.3   405  PRO405      0.0939
     88  N        -25.8640   21.6100    2.9060 N.3   427  ASP427     -0.1225
     89  CA       -24.8680   22.4820    3.5170 C.3   427  ASP427      0.1805
     90  C        -23.9510   21.5930    4.3540 C.2   427  ASP427      0.2598
     91  O        -24.3230   21.1450    5.4390 O.2   427  ASP427     -0.2718
     92  CB       -25.5630   23.5520    4.3560 C.3   427  ASP427      0.1424
     93  CG       -24.5970   24.5180    5.0100 C.2   427  ASP427      0.3668
     94  OD1      -23.4130   24.5590    4.6200 O.co2 427  ASP427     -0.2456
     95  OD2      -25.0420   25.2590    5.9140 O.co2 427  ASP427     -0.2456
     96  N        -22.7490   21.3180    3.8440 N.am  428  THR428     -0.1939
     97  CA       -21.8330   20.3540    4.4520 C.3   428  THR428      0.2028
     98  C        -20.7660   21.0910    5.2530 C.2   428  THR428      0.2642
     99  O        -19.9110   21.7720    4.6800 O.2   428  THR428     -0.2714
    100  CB       -21.1810   19.4780    3.3840 C.3   428  THR428      0.1808
    101  OG1      -20.2680   20.2670    2.6120 O.3   428  THR428     -0.2208
    102  CG2      -22.2320   18.8820    2.4550 C.3   428  THR428      0.0379
    103  N        -20.8070   20.9390    6.5740 N.am  429  TYR429     -0.1959
    104  CA       -19.8200   21.5300    7.4700 C.3   429  TYR429      0.1771
    105  C        -18.7540   20.4940    7.8070 C.2   429  TYR429      0.2620
    106  O        -19.0820   19.3600    8.1800 O.2   429  TYR429     -0.2715
    107  CB       -20.4770   22.0370    8.7610 C.3   429  TYR429      0.0574
    108  CG       -19.4760   22.3220    9.8560 C.ar  429  TYR429     -0.0198
    109  CD1      -18.7630   23.5100    9.8710 C.ar  429  TYR429     -0.0009
    110  CD2      -19.2330   21.3960   10.8670 C.ar  429  TYR429     -0.0009
    111  CE1      -17.8400   23.7770   10.8590 C.ar  429  TYR429      0.0417
    112  CE2      -18.3080   21.6540   11.8600 C.ar  429  TYR429      0.0417
    113  CZ       -17.6160   22.8480   11.8510 C.ar  429  TYR429      0.1957
    114  OH       -16.6940   23.1140   12.8380 O.3   429  TYR429     -0.2866
    115  N        -17.4900   20.8840    7.6840 N.am  430  TRP430     -0.1960
    116  CA       -16.3700   20.0300    8.0660 C.3   430  TRP430      0.1771
    117  C        -15.0840   20.8270    7.9010 C.2   430  TRP430      0.2620
    118  O        -15.1070   22.0000    7.5060 O.2   430  TRP430     -0.2715
    119  CB       -16.3270   18.7220    7.2570 C.3   430  TRP430      0.0590
    120  CG       -16.1870   18.8760    5.7730 C.ar  430  TRP430      0.0006
    121  CD1      -17.0370   19.5200    4.9270 C.ar  430  TRP430      0.0946
    122  CD2      -15.1370   18.3430    4.9570 C.ar  430  TRP430      0.0152
    123  NE1      -16.5730   19.4370    3.6360 N.ar  430  TRP430     -0.2442
    124  CE2      -15.4090   18.7180    3.6280 C.ar  430  TRP430      0.0810
    125  CE3      -13.9900   17.5900    5.2240 C.ar  430  TRP430      0.0012
    126  CZ2      -14.5750   18.3700    2.5700 C.ar  430  TRP430      0.0191
    127  CZ3      -13.1690   17.2450    4.1730 C.ar  430  TRP430      0.0001
    128  CH2      -13.4640   17.6340    2.8620 C.ar  430  TRP430      0.0015
    129  N        -13.9570   20.1880    8.2240 N.am  431  MET431     -0.1963
    130  CA       -12.6460   20.8210    8.2010 C.3   431  MET431      0.1736
    131  C        -11.6350   19.8830    7.5620 C.2   431  MET431      0.2617
    132  O        -11.8610   18.6740    7.4540 O.2   431  MET431     -0.2715
    133  CB       -12.1630   21.1780    9.6110 C.3   431  MET431      0.0427
    134  CG       -13.0690   22.0990   10.3860 C.3   431  MET431      0.0599
    135  SD       -12.2940   22.5510   11.9450 S.3   431  MET431     -0.1393
    136  CE       -12.0090   20.9300   12.6410 C.3   431  MET431      0.0692
    137  N        -10.4940   20.4610    7.1700 N.am  432  THR432     -0.1937
    138  CA        -9.3680   19.6570    6.7130 C.3   432  THR432      0.2028
    139  C         -8.9990   18.6060    7.7500 C.2   432  THR432      0.2642
    140  O         -8.6500   17.4700    7.4030 O.2   432  THR432     -0.2714
    141  CB        -8.1640   20.5540    6.4150 C.3   432  THR432      0.1808
    142  OG1       -8.5260   21.5690    5.4700 O.3   432  THR432     -0.2208
    143  CG2       -7.0130   19.7330    5.8430 C.3   432  THR432      0.0379
    144  N         -9.0900   18.9650    9.0330 N.am  433  GLU433     -0.1976
    145  CA        -8.7040   18.0620   10.1100 C.3   433  GLU433      0.1602
    146  C         -9.6870   16.9130   10.3070 C.2   433  GLU433      0.2287
    147  O         -9.2970   15.8790   10.8590 O.2   433  GLU433     -0.2864
    148  CB        -8.5560   18.8430   11.4140 C.3   433  GLU433      0.0415
    149  CG        -7.4370   19.8760   11.4050 C.3   433  GLU433      0.1163
    150  CD        -7.8670   21.2320   10.8580 C.2   433  GLU433      0.3649
    151  OE1       -8.8230   21.2910   10.0540 O.co2 433  GLU433     -0.2457
    152  OE2       -7.2450   22.2470   11.2380 O.co2 433  GLU433     -0.2457
    153  N        -26.5070   23.4660    8.9240 N.3   453  ALA453     -0.1245
    154  CA       -25.8980   22.1980    8.5440 C.3   453  ALA453      0.1562
    155  C        -26.7320   20.9960    8.9740 C.2   453  ALA453      0.2260
    156  O        -26.5170   19.8960    8.4550 O.2   453  ALA453     -0.2867
    157  CB       -24.4950   22.0940    9.1400 C.3   453  ALA453      0.0290
    158  N        -14.9780   26.5640   15.7800 N.3   518  ASP518     -0.1239
    159  CA       -16.1260   27.2860   15.2560 C.3   518  ASP518      0.1674
    160  C        -17.1590   27.5330   16.3500 C.2   518  ASP518      0.2266
    161  O        -17.2740   26.7680   17.3100 O.2   518  ASP518     -0.2867
    162  CB       -16.7770   26.5130   14.1040 C.3   518  ASP518      0.1410
    163  CG       -15.9080   26.4750   12.8660 C.2   518  ASP518      0.3668
    164  OD1      -15.4990   27.5550   12.3880 O.co2 518  ASP518     -0.2456
    165  OD2      -15.6290   25.3610   12.3760 O.co2 518  ASP518     -0.2456
    166  N        -23.8070   26.5800   12.3180 N.3   530  ILE530     -0.1245
    167  CA       -22.4270   27.0350   12.4310 C.3   530  ILE530      0.1561
    168  C        -22.4120   28.5440   12.2220 C.2   530  ILE530      0.2260
    169  O        -22.7520   29.0340   11.1400 O.2   530  ILE530     -0.2867
    170  CB       -21.5140   26.3210   11.4230 C.3   530  ILE530      0.0252
    171  CG1      -21.7640   24.8100   11.4540 C.3   530  ILE530      0.0019
    172  CG2      -20.0540   26.6140   11.7380 C.3   530  ILE530      0.0019
    173  CD1      -21.4690   24.1690   12.7920 C.3   530  ILE530      0.0001
    174  N        -19.7620   30.7770   12.6730 N.3   532  GLY532     -0.1210
    175  CA       -18.5310   31.4170   12.2520 C.3   532  GLY532      0.1956
    176  C        -17.3600   31.0150   13.1220 C.2   532  GLY532      0.2611
    177  O        -17.5330   30.2710   14.0900 O.2   532  GLY532     -0.2717
    178  N        -16.1620   31.4870   12.7870 N.am  533  ARG533     -0.1979
    179  CA       -14.9910   31.1760   13.5930 C.3   533  ARG533      0.1597
    180  C        -15.1230   31.8100   14.9720 C.2   533  ARG533      0.2287
    181  O        -15.6350   32.9240   15.1130 O.2   533  ARG533     -0.2864
    182  CB       -13.7180   31.6750   12.9060 C.3   533  ARG533      0.0334
    183  CG       -13.4930   31.1150   11.5060 C.3   533  ARG533      0.0492
    184  CD       -13.0170   29.6780   11.5530 C.3   533  ARG533      0.2205
    185  NE       -11.6580   29.5640   12.0800 N.pl3 533  ARG533     -0.0865
    186  CZ       -11.1520   28.4510   12.5980 C.cat 533  ARG533      0.5346
    187  NH1      -11.8930   27.3510   12.6650 N.pl3 533  ARG533      0.1354
    188  NH2       -9.9050   28.4360   13.0570 N.pl3 533  ARG533      0.1354
    189  N         -8.6980   33.6200    0.5030 N.3   627  THR627     -0.1218
    190  CA        -7.7220   32.5800    0.2290 C.3   627  THR627      0.1862
    191  C         -8.0300   31.9120   -1.1100 C.2   627  THR627      0.2287
    192  O         -9.0910   32.1130   -1.7100 O.2   627  THR627     -0.2866
    193  CB        -7.7140   31.5340    1.3460 C.3   627  THR627      0.1770
    194  OG1       -8.9710   30.8470    1.3760 O.3   627  THR627     -0.2211
    195  CG2       -7.4690   32.1900    2.6920 C.3   627  THR627      0.0375
    196  N         -8.7500   28.9470   -1.4080 N.3   629  SER629     -0.1217
    197  CA        -9.9120   28.1080   -1.1480 C.3   629  SER629      0.1889
    198  C        -11.2160   28.8900   -1.2340 C.2   629  SER629      0.2288
    199  O        -12.2820   28.2800   -1.3760 O.2   629  SER629     -0.2866
    200  CB        -9.7880   27.4520    0.2280 C.3   629  SER629      0.2089
    201  OG        -8.7010   26.5830    0.2950 O.3   629  SER629     -0.2183
    202  N        -12.1830   31.2110    1.2150 N.3   631  LYS631     -0.1245
    203  CA       -12.5490   31.7620    2.5130 C.3   631  LYS631      0.1561
    204  C        -12.2160   33.2460    2.5710 C.2   631  LYS631      0.2260
    205  O        -11.2050   33.6940    2.0240 O.2   631  LYS631     -0.2867
    206  CB       -11.8190   31.0260    3.6390 C.3   631  LYS631      0.0271
    207  CG       -12.3390   29.6320    3.9150 C.3   631  LYS631      0.0035
    208  CD       -11.5910   28.5890    3.1130 C.3   631  LYS631      0.0206
    209  CE       -12.3550   27.2830    3.0950 C.3   631  LYS631      0.1093
    210  NZ       -12.9420   26.9780    4.4290 N.3   631  LYS631     -0.1314
@<TRIPOS>BOND
     1    33    34    1
     2   192   191    2
     3    43    45   ar
     4    43    40   ar
     5   196   197    1
     6    37    34    1
     7    37    38    1
     8   199   198    2
     9    36    35    2
    10    45    46   ar
    11   198   197    1
    12   197   200    1
    13   191   190    1
    14    34    35    1
    15    55    56    1
    16    35    47   am
    17    40    38   ar
    18    40    42   ar
    19    56    59    1
    20    56    57    1
    21    66    65    1
    22    38    39   ar
    23    46    44   ar
    24    59    60    1
    25   200   201    1
    26   190   189    1
    27   190   193    1
    28    50    49    2
    29    49    48    1
    30    64    63    2
    31    61    57   am
    32    61    62    1
    33    47    48    1
    34    57    58    2
    35    42    44   ar
    36    42    41   ar
    37    39    41   ar
    38    65    62    1
    39    65    67    1
    40   202   203    1
    41    48    51    1
    42   193   194    1
    43   193   195    1
    44    62    63    1
    45    63    68   am
    46   205   204    2
    47    13    12    1
    48   102   100    1
    49   203   204    1
    50   203   206    1
    51   126   128   ar
    52   126   124   ar
    53   101   100    1
    54    51    53    1
    55    51    52    1
    56    68    69    1
    57   128   127   ar
    58    12     9    1
    59    88    89    1
    60    69    70    1
    61    79    78   ar
    62   209   208    1
    63   209   210    1
    64   208   207    1
    65    54    52    1
    66   100    97    1
    67    89    90    1
    68    89    92    1
    69   124   123   ar
    70   124   122   ar
    71   123   121   ar
    72   206   207    1
    73    96    90   am
    74    96    97    1
    75    70    72   am
    76    70    71    2
    77    72    73    1
    78    78    77    1
    79    78    80   ar
    80   127   125   ar
    81    76    77    1
    82    76    73    1
    83    90    91    2
    84    92    93    1
    85    84    83    2
    86     9     8    1
    87     9    10    1
    88    97    98    1
    89    75    74    2
    90    94    93   ar
    91    99    98    2
    92     8     3   am
    93   121   120   ar
    94    73    74    1
    95   122   125   ar
    96   122   120   ar
    97    83    82    1
    98    93    95   ar
    99    10    11    2
   100    10    14   am
   101     3     4    2
   102     3     2    1
   103    74    81   am
   104    98   103   am
   105   142   141    1
   106     1     2    1
   107     2     5    1
   108    14    15    1
   109   120   119    1
   110   143   141    1
   111    15    16    1
   112    81    82    1
   113    81    87    1
   114    82    85    1
   115   141   138    1
   116   103   104    1
   117   138   137    1
   118   138   139    1
   119     5     7    1
   120     5     6    1
   121   137   131   am
   122    87    86    1
   123   119   116    1
   124   140   139    2
   125    85    86    1
   126    16    17    2
   127    16    18   am
   128   132   131    2
   129   104   105    1
   130   104   107    1
   131   118   117    2
   132   131   130    1
   133    27    26    2
   134   115   105   am
   135   115   116    1
   136   139   144   am
   137   105   106    2
   138   117   116    1
   139   117   129   am
   140   130   129    1
   141   130   133    1
   142    26    25    1
   143    24    25    1
   144    18    19    1
   145   156   155    2
   146   154   153    1
   147   154   155    1
   148   154   157    1
   149   107   108    1
   150   144   145    1
   151    25    28    1
   152   133   134    1
   153    19    22    1
   154    19    20    1
   155    28    29    1
   156   108   109   ar
   157   108   110   ar
   158   109   111   ar
   159   151   150   ar
   160   145   146    1
   161   145   148    1
   162   146   147    2
   163   134   135    1
   164    22    23    1
   165    21    20    2
   166   150   152   ar
   167   150   149    1
   168   111   113   ar
   169   110   112   ar
   170    29    30    1
   171   169   168    2
   172   149   148    1
   173   170   171    1
   174   170   172    1
   175   170   167    1
   176   171   173    1
   177   183   184    1
   178   183   182    1
   179   184   185    1
   180    30    31    1
   181   113   112   ar
   182   113   114    1
   183   135   136    1
   184    31    32    1
   185   185   186    2
   186   168   167    1
   187   175   174    1
   188   175   176    1
   189   166   167    1
   190   165   163   ar
   191   164   163   ar
   192   186   187    1
   193   186   188    1
   194   178   176   am
   195   178   179    1
   196   163   162    1
   197   182   179    1
   198   176   177    2
   199   179   180    1
   200   162   159    1
   201   180   181    2
   202   159   158    1
   203   159   160    1
   204   160   161    2
