@<TRIPOS>MOLECULE
tmp/5k8lA01.pdb
 86 81 0 0 0
SMALL
GASTEIGER

@<TRIPOS>ATOM
      1  N        109.4670   -0.8790  147.5170 N.3    88  ALA88      -0.1245
      2  CA       109.4890   -1.0270  148.9740 C.3    88  ALA88       0.1562
      3  C        110.5730   -2.0020  149.4260 C.2    88  ALA88       0.2260
      4  O        111.2730   -1.7440  150.4070 O.2    88  ALA88      -0.2867
      5  CB       108.1110   -1.4620  149.4880 C.3    88  ALA88       0.0290
      6  N        114.0330   -0.2070  149.3220 N.3    91  THR91      -0.1203
      7  CA       114.2550    0.6860  150.4560 C.3    91  THR91       0.1994
      8  C        114.4170   -0.1070  151.7530 C.2    91  THR91       0.2618
      9  O        115.2290    0.2520  152.6110 O.2    91  THR91      -0.2717
     10  CB       113.1060    1.6950  150.5320 C.3    91  THR91       0.1784
     11  OG1      113.1100    2.4840  149.3390 O.3    91  THR91      -0.2211
     12  CG2      113.2340    2.6400  151.7410 C.3    91  THR91       0.0376
     13  N        113.6620   -1.1920  151.9190 N.am   92  SER92      -0.1951
     14  CA       113.8710   -2.0390  153.0900 C.3    92  SER92       0.1924
     15  C        115.2950   -2.5980  153.1110 C.2    92  SER92       0.2314
     16  O        115.9440   -2.6270  154.1640 O.2    92  SER92      -0.2863
     17  CB       112.8220   -3.1540  153.1130 C.3    92  SER92       0.2116
     18  OG       113.0480   -4.0400  154.1880 O.3    92  SER92      -0.2180
     19  N        117.8890   -0.1890  154.3840 N.3    95  LEU95      -0.1245
     20  CA       117.8770    0.0050  155.8320 C.3    95  LEU95       0.1561
     21  C        118.6410   -1.0750  156.5760 C.2    95  LEU95       0.2260
     22  O        118.9450   -0.8890  157.7590 O.2    95  LEU95      -0.2867
     23  CB       116.4280    0.0630  156.3370 C.3    95  LEU95       0.0270
     24  CG       115.6860    1.3670  156.0340 C.3    95  LEU95       0.0019
     25  CD1      114.1930    1.2080  156.2930 C.3    95  LEU95       0.0001
     26  CD2      116.2480    2.4940  156.9040 C.3    95  LEU95       0.0001
     27  N        106.2620    6.8210  150.7480 N.3   116  PRO116     -0.2102
     28  CA       107.5760    7.2010  151.2850 C.3   116  PRO116      0.1504
     29  C        108.7080    6.3010  150.8270 C.2   116  PRO116      0.2576
     30  O        109.8080    6.8070  150.5550 O.2   116  PRO116     -0.2718
     31  CB       107.3700    7.1210  152.8020 C.3   116  PRO116      0.0282
     32  CG       105.8720    7.3830  152.9960 C.3   116  PRO116      0.0208
     33  CD       105.2190    6.7370  151.7860 C.3   116  PRO116      0.0893
     34  N        108.4930    4.9830  150.7390 N.am  117  SER117     -0.1953
     35  CA       109.5660    4.0900  150.2980 C.3   117  SER117      0.1924
     36  C        110.0000    4.3960  148.8700 C.2   117  SER117      0.2314
     37  O        111.1770    4.2320  148.5240 O.2   117  SER117     -0.2863
     38  CB       109.1220    2.6270  150.4000 C.3   117  SER117      0.2116
     39  OG       108.8550    2.2450  151.7370 O.3   117  SER117     -0.2180
     40  N        113.5790    8.2730  156.3920 N.3   317  LEU317     -0.1245
     41  CA       114.2100    7.0290  155.9630 C.3   317  LEU317      0.1561
     42  C        115.6400    7.2750  155.5040 C.2   317  LEU317      0.2260
     43  O        116.5690    6.6200  155.9860 O.2   317  LEU317     -0.2867
     44  CB       113.3890    6.3750  154.8470 C.3   317  LEU317      0.0270
     45  CG       111.9770    5.9120  155.2190 C.3   317  LEU317      0.0019
     46  CD1      111.1830    5.5240  153.9690 C.3   317  LEU317      0.0001
     47  CD2      112.0210    4.7270  156.2060 C.3   317  LEU317      0.0001
     48  N        109.0400   -0.0490  162.1950 N.3   360  MET360     -0.1230
     49  CA       108.4860   -0.0810  160.8470 C.3   360  MET360      0.1702
     50  C        108.3660   -1.5100  160.3240 C.2   360  MET360      0.2592
     51  O        107.3020   -1.9130  159.8350 O.2   360  MET360     -0.2718
     52  CB       109.3550    0.7680  159.9210 C.3   360  MET360      0.0401
     53  CG       109.2590    2.2430  160.2080 C.3   360  MET360      0.0596
     54  SD       110.1860    3.2150  159.0010 S.3   360  MET360     -0.1393
     55  CE       111.8520    2.6100  159.2910 C.3   360  MET360      0.0692
     56  N        109.4500   -2.2860  160.4030 N.am  361  LYS361     -0.1980
     57  CA       109.4470   -3.6040  159.7760 C.3   361  LYS361      0.1596
     58  C        108.7270   -4.6400  160.6280 C.2   361  LYS361      0.2287
     59  O        107.9880   -5.4700  160.0930 O.2   361  LYS361     -0.2864
     60  CB       110.8720   -4.0770  159.5050 C.3   361  LYS361      0.0298
     61  CG       111.6930   -3.1310  158.6490 C.3   361  LYS361      0.0038
     62  CD       112.9690   -3.8240  158.2090 C.3   361  LYS361      0.0206
     63  CE       113.6620   -3.0440  157.1080 C.3   361  LYS361      0.1093
     64  NZ       114.9190   -3.7370  156.6760 N.3   361  LYS361     -0.1314
     65  N        104.3160    0.0780  161.8370 N.3   365  LEU365     -0.1231
     66  CA       103.8810    1.4430  162.1100 C.3   365  LEU365      0.1678
     67  C        104.2480    2.3720  160.9580 C.2   365  LEU365      0.2434
     68  O        105.2560    2.1520  160.2700 O.2   365  LEU365     -0.2733
     69  CB       104.5160    1.9650  163.3910 C.3   365  LEU365      0.0284
     70  CG       104.2780    1.1780  164.6750 C.3   365  LEU365      0.0019
     71  CD1      104.8710    1.9520  165.8440 C.3   365  LEU365      0.0001
     72  CD2      102.7770    0.9440  164.8570 C.3   365  LEU365      0.0001
     73  N        103.4620    3.4330  160.7420 N.am  366  PRO366     -0.2718
     74  CA       103.8770    4.4530  159.7720 C.3   366  PRO366      0.1535
     75  C        105.2270    5.0320  160.1570 C.2   366  PRO366      0.2598
     76  O        105.5960    5.0800  161.3370 O.2   366  PRO366     -0.2715
     77  CB       102.7690    5.5090  159.8580 C.3   366  PRO366      0.0310
     78  CG       101.5810    4.7700  160.4040 C.3   366  PRO366      0.0237
     79  CD       102.1790    3.7740  161.3810 C.3   366  PRO366      0.0939
     80  N        105.9500    5.5010  159.1390 N.am  367  VAL367     -0.1978
     81  CA       107.2890    6.0530  159.3530 C.3   367  VAL367      0.1596
     82  C        107.2610    7.1550  160.4060 C.2   367  VAL367      0.2287
     83  O        108.0850    7.1720  161.3300 O.2   367  VAL367     -0.2864
     84  CB       107.8680    6.5700  158.0280 C.3   367  VAL367      0.0276
     85  CG1      109.2280    7.2330  158.2650 C.3   367  VAL367      0.0022
     86  CG2      108.0170    5.4260  157.0180 C.3   367  VAL367      0.0022
@<TRIPOS>BOND
     1     1     2    1
     2    37    36    2
     3    36    35    1
     4     2     3    1
     5     2     5    1
     6     6     7    1
     7    11    10    1
     8     3     4    2
     9    35    38    1
    10    35    34    1
    11    38    39    1
    12     7    10    1
    13     7     8    1
    14    10    12    1
    15    30    29    2
    16    34    29   am
    17    27    28    1
    18    27    33    1
    19    29    28    1
    20    28    31    1
    21     8    13   am
    22     8     9    2
    23    33    32    1
    24    13    14    1
    25    31    32    1
    26    14    15    1
    27    14    17    1
    28    15    16    2
    29    17    18    1
    30    46    45    1
    31    19    20    1
    32    44    45    1
    33    44    41    1
    34    45    47    1
    35    42    41    1
    36    42    43    2
    37    20    23    1
    38    20    21    1
    39    41    40    1
    40    24    25    1
    41    24    23    1
    42    24    26    1
    43    21    22    2
    44    64    63    1
    45    86    84    1
    46    63    62    1
    47    84    85    1
    48    84    81    1
    49    62    61    1
    50    61    60    1
    51    54    55    1
    52    54    53    1
    53    80    81    1
    54    80    75   am
    55    81    82    1
    56    60    57    1
    57    74    77    1
    58    74    75    1
    59    74    73    1
    60    57    56    1
    61    57    58    1
    62    51    50    2
    63    77    78    1
    64    52    53    1
    65    52    49    1
    66    59    58    2
    67    75    76    2
    68    68    67    2
    69    50    56   am
    70    50    49    1
    71    78    79    1
    72    82    83    2
    73    73    67   am
    74    73    79    1
    75    49    48    1
    76    67    66    1
    77    65    66    1
    78    66    69    1
    79    69    70    1
    80    70    72    1
    81    70    71    1
