@<TRIPOS>MOLECULE
tmp/5k8lA00.pdb
 101 98 0 0 0
SMALL
GASTEIGER

@<TRIPOS>ATOM
      1  N        107.0190    6.9910  127.8650 N.3    22  LEU22      -0.1231
      2  CA       106.7660    6.2630  126.6280 C.3    22  LEU22       0.1693
      3  C        105.3550    6.5350  126.1270 C.2    22  LEU22       0.2592
      4  O        104.4070    6.6010  126.9100 O.2    22  LEU22      -0.2718
      5  CB       106.9600    4.7610  126.8450 C.3    22  LEU22       0.0284
      6  CG       108.3530    4.2680  127.2350 C.3    22  LEU22       0.0019
      7  CD1      108.2960    2.7970  127.6100 C.3    22  LEU22       0.0001
      8  CD2      109.3380    4.4730  126.0900 C.3    22  LEU22       0.0001
      9  N        105.2200    6.6770  124.8120 N.am   23  HIS23      -0.1962
     10  CA       103.9080    6.9090  124.2320 C.3    23  HIS23       0.1772
     11  C        103.0300    5.6640  124.3690 C.2    23  HIS23       0.2462
     12  O        103.5390    4.5420  124.4640 O.2    23  HIS23      -0.2730
     13  CB       104.0440    7.2940  122.7640 C.3    23  HIS23       0.0785
     14  CG       104.5740    8.6790  122.5570 C.ar   23  HIS23       0.0821
     15  ND1      103.9460    9.7980  123.0600 N.ar   23  HIS23      -0.2267
     16  CD2      105.6770    9.1250  121.9100 C.ar   23  HIS23       0.1154
     17  CE1      104.6360   10.8740  122.7280 C.ar   23  HIS23       0.1986
     18  NE2      105.6920   10.4930  122.0310 N.ar   23  HIS23      -0.2212
     19  N        101.7080    5.8370  124.4020 N.am   24  PRO24      -0.2716
     20  CA       100.8110    4.6760  124.3440 C.3    24  PRO24       0.1536
     21  C        101.1380    3.7840  123.1500 C.2    24  PRO24       0.2599
     22  O        101.4910    4.2620  122.0680 O.2    24  PRO24      -0.2715
     23  CB        99.4240    5.3130  124.2180 C.3    24  PRO24       0.0310
     24  CG        99.5700    6.6360  124.9250 C.3    24  PRO24       0.0237
     25  CD       100.9630    7.0990  124.5690 C.3    24  PRO24       0.0939
     26  N        101.0490    2.4740  123.3670 N.am   25  GLY25      -0.1941
     27  CA       101.3400    1.4950  122.3430 C.3    25  GLY25       0.2014
     28  C        102.7990    1.0840  122.2420 C.2    25  GLY25       0.2639
     29  O        103.1400    0.2960  121.3470 O.2    25  GLY25      -0.2714
     30  N        103.6640    1.5740  123.1400 N.am   26  ALA26      -0.1963
     31  CA       105.0990    1.3130  123.0530 C.3    26  ALA26       0.1728
     32  C        105.4970   -0.0410  123.6170 C.2    26  ALA26       0.2617
     33  O        106.6060   -0.5090  123.3310 O.2    26  ALA26      -0.2715
     34  CB       105.8820    2.4010  123.7890 C.3    26  ALA26       0.0334
     35  N        104.6260   -0.6740  124.4010 N.am   27  GLY27      -0.1940
     36  CA       104.9280   -1.9530  125.0130 C.3    27  GLY27       0.2014
     37  C        106.0690   -1.8450  126.0040 C.2    27  GLY27       0.2639
     38  O        107.0940   -2.5190  125.8580 O.2    27  GLY27      -0.2714
     39  N        105.8920   -0.9920  127.0200 N.am   28  LYS28      -0.1963
     40  CA       106.9470   -0.7460  127.9990 C.3    28  LYS28       0.1728
     41  C        107.4890   -2.0400  128.6020 C.2    28  LYS28       0.2617
     42  O        108.7060   -2.2600  128.6400 O.2    28  LYS28      -0.2715
     43  CB       106.4200    0.1780  129.0980 C.3    28  LYS28       0.0311
     44  CG       107.3550    0.3400  130.2770 C.3    28  LYS28       0.0038
     45  CD       107.0610    1.6470  131.0060 C.3    28  LYS28       0.0206
     46  CE       105.6600    1.6480  131.5760 C.3    28  LYS28       0.1093
     47  NZ       105.4570    0.5090  132.5100 N.3    28  LYS28      -0.1314
     48  N        106.6040   -2.9160  129.0810 N.am   29  THR29      -0.1937
     49  CA       107.0970   -4.0860  129.8040 C.3    29  THR29       0.2028
     50  C        107.5640   -5.1830  128.8520 C.2    29  THR29       0.2642
     51  O        108.6170   -5.7930  129.0750 O.2    29  THR29      -0.2714
     52  CB       106.0120   -4.6240  130.7400 C.3    29  THR29       0.1808
     53  OG1      105.5080   -3.5540  131.5560 O.3    29  THR29      -0.2208
     54  CG2      106.5790   -5.7310  131.6290 C.3    29  THR29       0.0379
     55  N        106.7940   -5.4420  127.7860 N.am   30  ARG30      -0.1977
     56  CA       107.0790   -6.5740  126.9150 C.3    30  ARG30       0.1597
     57  C        108.1270   -6.2530  125.8600 C.2    30  ARG30       0.2287
     58  O        108.8290   -7.1620  125.4060 O.2    30  ARG30      -0.2864
     59  CB       105.8000   -7.0420  126.2170 C.3    30  ARG30       0.0334
     60  CG       104.8090   -7.7700  127.1110 C.3    30  ARG30       0.0492
     61  CD       103.5970   -8.2070  126.2930 C.3    30  ARG30       0.2205
     62  NE       102.6470   -8.9820  127.0810 N.pl3  30  ARG30      -0.0865
     63  CZ       101.7470   -8.4510  127.9010 C.cat  30  ARG30       0.5346
     64  NH1      101.6670   -7.1350  128.0460 N.pl3  30  ARG30       0.1354
     65  NH2      100.9290   -9.2400  128.5760 N.pl3  30  ARG30       0.1354
     66  N        104.7460   -9.2750  136.3090 N.3    59  GLU59      -0.1245
     67  CA       104.6180   -8.9830  134.8880 C.3    59  GLU59       0.1567
     68  C        105.9850   -8.8200  134.2350 C.2    59  GLU59       0.2260
     69  O        106.2100   -9.2940  133.1160 O.2    59  GLU59      -0.2867
     70  CB       103.7560   -7.7320  134.6890 C.3    59  GLU59       0.0388
     71  CG       102.2910   -7.9490  135.1130 C.3    59  GLU59       0.1160
     72  CD       101.4460   -6.6830  135.1230 C.2    59  GLU59       0.3649
     73  OE1      100.2060   -6.8070  135.2320 O.co2  59  GLU59      -0.2457
     74  OE2      102.0010   -5.5700  135.0320 O.co2  59  GLU59      -0.2457
     75  N         95.7020    5.1510  123.7340 N.3   154  ASN154     -0.1240
     76  CA        95.6360    4.3700  122.5030 C.3   154  ASN154      0.1653
     77  C         94.3440    4.6260  121.7480 C.2   154  ASN154      0.2266
     78  O         94.3260    4.6390  120.5110 O.2   154  ASN154     -0.2867
     79  CB        95.7830    2.8920  122.8190 C.3   154  ASN154      0.1155
     80  CG        97.2020    2.5160  123.0730 C.2   154  ASN154      0.2627
     81  OD1       98.0990    3.0000  122.3850 O.2   154  ASN154     -0.2716
     82  ND2       97.4350    1.6830  124.0810 N.am  154  ASN154     -0.0877
     83  N         96.7490   -3.0420  135.4450 N.3   241  ASN241     -0.1240
     84  CA        96.1070   -3.2470  134.1490 C.3   241  ASN241      0.1653
     85  C         94.7180   -3.8400  134.3500 C.2   241  ASN241      0.2266
     86  O         94.5780   -4.9130  134.9430 O.2   241  ASN241     -0.2867
     87  CB        96.9510   -4.1770  133.2850 C.3   241  ASN241      0.1155
     88  CG        98.2230   -3.5240  132.8200 C.2   241  ASN241      0.2627
     89  OD1       98.5670   -2.4260  133.2660 O.2   241  ASN241     -0.2716
     90  ND2       98.9320   -4.1840  131.9140 N.am  241  ASN241     -0.0877
     91  N         92.8420    1.9480  126.4540 N.3   286  ARG286     -0.1245
     92  CA        94.1100    1.2780  126.1990 C.3   286  ARG286      0.1563
     93  C         94.1010    0.4000  124.9580 C.2   286  ARG286      0.2260
     94  O         95.1780    0.0060  124.5020 O.2   286  ARG286     -0.2867
     95  CB        94.5190    0.4440  127.4170 C.3   286  ARG286      0.0307
     96  CG        94.5950    1.2940  128.6640 C.3   286  ARG286      0.0489
     97  CD        95.4150    0.6340  129.7400 C.3   286  ARG286      0.2205
     98  NE        96.8320    0.6870  129.4060 N.pl3 286  ARG286     -0.0865
     99  CZ        97.7940    0.2040  130.1810 C.cat 286  ARG286      0.5346
    100  NH1       97.4780   -0.3620  131.3340 N.pl3 286  ARG286      0.1354
    101  NH2       99.0650    0.2860  129.8010 N.pl3 286  ARG286      0.1354
@<TRIPOS>BOND
     1    78    77    2
     2    29    28    2
     3    77    76    1
     4    16    18   ar
     5    16    14   ar
     6    18    17   ar
     7    22    21    2
     8    28    27    1
     9    28    30   am
    10    27    26    1
    11    81    80    2
    12    76    79    1
    13    76    75    1
    14    14    13    1
    15    14    15   ar
    16    17    15   ar
    17    13    10    1
    18    79    80    1
    19    31    30    1
    20    31    32    1
    21    31    34    1
    22    80    82   am
    23    21    26   am
    24    21    20    1
    25    33    32    2
    26    32    35   am
    27    23    20    1
    28    23    24    1
    29    10    11    1
    30    10     9    1
    31    20    19    1
    32    11    19   am
    33    11    12    2
    34    35    36    1
    35    19    25    1
    36    94    93    2
    37    25    24    1
    38     9     3   am
    39    93    92    1
    40    36    37    1
    41    58    57    2
    42    38    37    2
    43    57    56    1
    44    37    39   am
    45     8     6    1
    46     3     2    1
    47     3     4    2
    48    92    91    1
    49    92    95    1
    50    59    56    1
    51    59    60    1
    52    61    62    1
    53    61    60    1
    54     2     5    1
    55     2     1    1
    56     5     6    1
    57    56    55    1
    58    39    40    1
    59    62    63    2
    60     6     7    1
    61    95    96    1
    62    55    50   am
    63    63    64    1
    64    63    65    1
    65    40    41    1
    66    40    43    1
    67    41    42    2
    68    41    48   am
    69    96    97    1
    70    50    51    2
    71    50    49    1
    72    48    49    1
    73    43    44    1
    74    98    97    1
    75    98    99    2
    76   101    99    1
    77    49    52    1
    78    99   100    1
    79    44    45    1
    80    52    53    1
    81    52    54    1
    82    45    46    1
    83    46    47    1
    84    90    88   am
    85    88    89    2
    86    88    87    1
    87    69    68    2
    88    87    84    1
    89    84    85    1
    90    84    83    1
    91    68    67    1
    92    85    86    2
    93    70    67    1
    94    70    71    1
    95    67    66    1
    96    74    72   ar
    97    71    72    1
    98    72    73   ar
