@<TRIPOS>MOLECULE
tmp/5k8nE00.pdb
 96 92 0 0 0
SMALL
GASTEIGER

@<TRIPOS>ATOM
      1  N         67.0950   51.9790  -94.8320 N.3    85  ILE85      -0.1245
      2  CA        66.1880   50.8620  -95.0200 C.3    85  ILE85       0.1561
      3  C         65.9380   50.0000  -93.7910 C.2    85  ILE85       0.2260
      4  O         64.7910   49.7410  -93.4430 O.2    85  ILE85      -0.2867
      5  CB        66.6820   49.9500  -96.1240 C.3    85  ILE85       0.0252
      6  CG1       67.2730   50.7800  -97.2600 C.3    85  ILE85       0.0019
      7  CG2       65.5430   49.0850  -96.6180 C.3    85  ILE85       0.0019
      8  CD1       68.0290   49.9510  -98.2670 C.3    85  ILE85       0.0001
      9  N         72.4510   54.0350  -99.0720 N.3   119  ASN119     -0.1240
     10  CA        71.1150   54.5730  -99.1000 C.3   119  ASN119      0.1653
     11  C         70.8100   55.0650  -97.7090 C.2   119  ASN119      0.2266
     12  O         70.4700   54.2670  -96.8380 O.2   119  ASN119     -0.2867
     13  CB        70.1090   53.5230  -99.5660 C.3   119  ASN119      0.1155
     14  CG        68.7950   54.1290 -100.0210 C.2   119  ASN119      0.2627
     15  OD1       68.7500   55.2280 -100.5650 O.2   119  ASN119     -0.2716
     16  ND2       67.7190   53.4010  -99.8180 N.am  119  ASN119     -0.0877
     17  N         61.7110   58.9060  -97.1910 N.3   153  GLU153     -0.1231
     18  CA        61.8970   58.6410  -98.6090 C.3   153  GLU153      0.1699
     19  C         61.4470   57.2310  -98.9970 C.2   153  GLU153      0.2592
     20  O         60.8350   57.0260 -100.0450 O.2   153  GLU153     -0.2718
     21  CB        63.3540   58.8410  -98.9940 C.3   153  GLU153      0.0402
     22  CG        63.5490   59.1560 -100.4540 C.3   153  GLU153      0.1161
     23  CD        63.6820   57.9320 -101.3430 C.2   153  GLU153      0.3649
     24  OE1       63.4610   56.7860 -100.8880 O.co2 153  GLU153     -0.2457
     25  OE2       64.0380   58.1370 -102.5210 O.co2 153  GLU153     -0.2457
     26  N         61.7770   56.2640  -98.1560 N.am  154  ILE154     -0.1966
     27  CA        61.5260   54.8590  -98.4240 C.3   154  ILE154      0.1727
     28  C         60.0390   54.5110  -98.4000 C.2   154  ILE154      0.2616
     29  O         59.2600   55.1740  -97.7370 O.2   154  ILE154     -0.2715
     30  CB        62.2930   54.0370  -97.4240 C.3   154  ILE154      0.0290
     31  CG1       63.7520   54.4940  -97.4290 C.3   154  ILE154      0.0022
     32  CG2       62.1760   52.5740  -97.7380 C.3   154  ILE154      0.0023
     33  CD1       64.7250   53.3970  -97.2750 C.3   154  ILE154      0.0001
     34  N         59.6460   53.4780  -99.1340 N.am  155  ASP155     -0.1971
     35  CA        58.2270   53.2020  -99.3550 C.3   155  ASP155      0.1709
     36  C         57.5510   52.4730  -98.2080 C.2   155  ASP155      0.2293
     37  O         56.9910   51.4030  -98.4140 O.2   155  ASP155     -0.2864
     38  CB        58.0070   52.3560 -100.6230 C.3   155  ASP155      0.1436
     39  CG        59.0610   52.5820 -101.6970 C.2   155  ASP155      0.3671
     40  OD1       60.2100   52.9380 -101.3690 O.co2 155  ASP155     -0.2456
     41  OD2       58.7360   52.3740 -102.8830 O.co2 155  ASP155     -0.2456
     42  N         71.3840   60.1530 -105.5070 N.3   191  GLU191     -0.1245
     43  CA        71.3350   58.7650 -105.0720 C.3   191  GLU191      0.1567
     44  C         72.2610   57.9790 -105.9860 C.2   191  GLU191      0.2260
     45  O         72.7550   58.5290 -106.9570 O.2   191  GLU191     -0.2867
     46  CB        69.9190   58.2110 -105.1250 C.3   191  GLU191      0.0388
     47  CG        68.8980   59.0120 -104.3370 C.3   191  GLU191      0.1160
     48  CD        67.9650   58.1540 -103.4940 C.2   191  GLU191      0.3649
     49  OE1       66.7650   58.5040 -103.4310 O.co2 191  GLU191     -0.2457
     50  OE2       68.4060   57.1190 -102.9390 O.co2 191  GLU191     -0.2457
     51  N         61.6650   52.7520 -110.1060 N.3   366  MET366     -0.1230
     52  CA        61.4830   52.7030 -108.6650 C.3   366  MET366      0.1702
     53  C         60.8350   53.9750 -108.1500 C.2   366  MET366      0.2592
     54  O         60.2110   54.6960 -108.9110 O.2   366  MET366     -0.2718
     55  CB        62.8300   52.4720 -107.9960 C.3   366  MET366      0.0401
     56  CG        63.8090   53.5830 -108.2560 C.3   366  MET366      0.0596
     57  SD        65.4380   53.3190 -107.5490 S.3   366  MET366     -0.1393
     58  CE        65.7640   51.6360 -107.9840 C.3   366  MET366      0.0692
     59  N         60.9130   54.2280 -106.8520 N.am  367  TRP367     -0.1962
     60  CA        60.4770   55.5230 -106.3410 C.3   367  TRP367      0.1771
     61  C         61.6810   56.3090 -105.9020 C.2   367  TRP367      0.2619
     62  O         62.4830   55.8350 -105.1120 O.2   367  TRP367     -0.2715
     63  CB        59.5110   55.4180 -105.1720 C.3   367  TRP367      0.0590
     64  CG        59.2210   56.7630 -104.6230 C.ar  367  TRP367      0.0006
     65  CD1       59.9580   57.4390 -103.7130 C.ar  367  TRP367      0.0946
     66  CD2       58.1370   57.6170 -104.9680 C.ar  367  TRP367      0.0152
     67  NE1       59.4040   58.6650 -103.4610 N.ar  367  TRP367     -0.2442
     68  CE2       58.2660   58.8000 -104.2330 C.ar  367  TRP367      0.0810
     69  CE3       57.0460   57.5050 -105.8350 C.ar  367  TRP367      0.0012
     70  CZ2       57.3760   59.8500 -104.3160 C.ar  367  TRP367      0.0191
     71  CZ3       56.1550   58.5520 -105.9250 C.ar  367  TRP367      0.0001
     72  CH2       56.3240   59.7050 -105.1710 C.ar  367  TRP367      0.0015
     73  N         61.7890   57.5230 -106.4130 N.am  368  ARG368     -0.1977
     74  CA        62.8240   58.4480 -106.0200 C.3   368  ARG368      0.1597
     75  C         62.1640   59.7790 -105.8190 C.2   368  ARG368      0.2287
     76  O         61.0690   59.9960 -106.2960 O.2   368  ARG368     -0.2864
     77  CB        63.8930   58.5580 -107.0760 C.3   368  ARG368      0.0334
     78  CG        64.5820   57.2800 -107.4210 C.3   368  ARG368      0.0492
     79  CD        65.8780   57.1420 -106.6620 C.3   368  ARG368      0.2205
     80  NE        66.9340   56.6130 -107.5230 N.pl3 368  ARG368     -0.0865
     81  CZ        68.0490   56.0670 -107.0660 C.cat 368  ARG368      0.5346
     82  NH1       68.2270   55.9730 -105.7650 N.pl3 368  ARG368      0.1354
     83  NH2       68.9710   55.6070 -107.8950 N.pl3 368  ARG368      0.1354
     84  N         73.1030   50.7570 -106.9630 N.3   388  GLY388     -0.1210
     85  CA        71.8900   50.9060 -106.1760 C.3   388  GLY388      0.1956
     86  C         71.7890   49.9930 -104.9710 C.2   388  GLY388      0.2612
     87  O         72.1870   48.8330 -105.0300 O.2   388  GLY388     -0.2717
     88  N         71.2650   50.5220 -103.8710 N.am  389  ALA389     -0.1965
     89  CA        71.1310   49.7440 -102.6460 C.3   389  ALA389      0.1728
     90  C         70.1860   48.5790 -102.8530 C.2   389  ALA389      0.2616
     91  O         70.3720   47.5220 -102.2810 O.2   389  ALA389     -0.2715
     92  CB        70.6400   50.6200 -101.5100 C.3   389  ALA389      0.0334
     93  N         69.1700   48.7730 -103.6780 N.am  390  GLY390     -0.1955
     94  CA        68.2430   47.7080 -103.9960 C.3   390  GLY390      0.1869
     95  C         68.9190   46.5740 -104.7410 C.2   390  GLY390      0.2309
     96  O         68.3460   45.5040 -104.8900 O.2   390  GLY390     -0.2863
@<TRIPOS>BOND
     1    51    52    1
     2    54    53    2
     3    52    53    1
     4    52    55    1
     5    56    55    1
     6    56    57    1
     7    53    59   am
     8    58    57    1
     9    83    81    1
    10    80    81    2
    11    80    79    1
    12    78    77    1
    13    78    79    1
    14    77    74    1
    15    81    82    1
    16    84    85    1
    17    45    44    2
    18    59    60    1
    19    73    74    1
    20    73    61   am
    21    60    61    1
    22    60    63    1
    23    76    75    2
    24    85    86    1
    25    74    75    1
    26    44    43    1
    27    71    69   ar
    28    71    72   ar
    29    61    62    2
    30    69    66   ar
    31    42    43    1
    32    63    64    1
    33    72    70   ar
    34    46    43    1
    35    46    47    1
    36    87    86    2
    37    86    88   am
    38    66    64   ar
    39    66    68   ar
    40    96    95    2
    41    95    94    1
    42    64    65   ar
    43    47    48    1
    44    70    68   ar
    45    68    67   ar
    46    94    93    1
    47    88    89    1
    48    65    67   ar
    49    93    90   am
    50    48    49   ar
    51    48    50   ar
    52    41    39   ar
    53    90    89    1
    54    90    91    2
    55    89    92    1
    56    25    23   ar
    57    39    40   ar
    58    39    38    1
    59    23    24   ar
    60    23    22    1
    61    38    35    1
    62    15    14    2
    63    22    21    1
    64    20    19    2
    65    14    16   am
    66    14    13    1
    67    13    10    1
    68    35    34    1
    69    35    36    1
    70    34    28   am
    71    10     9    1
    72    10    11    1
    73    19    18    1
    74    19    26   am
    75    21    18    1
    76    18    17    1
    77    27    28    1
    78    27    26    1
    79    27    30    1
    80    37    36    2
    81    28    29    2
    82     8     6    1
    83    32    30    1
    84    11    12    2
    85    31    30    1
    86    31    33    1
    87     6     5    1
    88     7     5    1
    89     5     2    1
    90     2     1    1
    91     2     3    1
    92     3     4    2
