@<TRIPOS>MOLECULE
tmp/5k8oD00.pdb
 111 107 0 0 0
SMALL
GASTEIGER

@<TRIPOS>ATOM
      1  N         35.1960   98.2320  -53.1560 N.3    86  HIS86      -0.1241
      2  CA        36.0750   97.0700  -53.1360 C.3    86  HIS86       0.1621
      3  C         35.3460   95.7590  -52.9170 C.2    86  HIS86       0.2264
      4  O         34.3250   95.7050  -52.2530 O.2    86  HIS86      -0.2867
      5  CB        37.1650   97.2280  -52.0780 C.3    86  HIS86       0.0745
      6  CG        36.6500   97.4880  -50.7020 C.ar   86  HIS86       0.0817
      7  ND1       36.3850   96.4800  -49.8060 N.ar   86  HIS86      -0.2268
      8  CD2       36.3980   98.6450  -50.0490 C.ar   86  HIS86       0.1154
      9  CE1       35.9570   97.0000  -48.6720 C.ar   86  HIS86       0.1986
     10  NE2       35.9600   98.3130  -48.7920 N.ar   86  HIS86      -0.2212
     11  N         35.9220   91.9100  -44.5410 N.3    90  ILE90      -0.1245
     12  CA        36.8750   91.8900  -43.4450 C.3    90  ILE90       0.1561
     13  C         37.1600   90.5120  -42.8600 C.2    90  ILE90       0.2260
     14  O         38.3150   90.1070  -42.7580 O.2    90  ILE90      -0.2867
     15  CB        36.4030   92.7900  -42.3070 C.3    90  ILE90       0.0252
     16  CG1       36.0830   94.1810  -42.8300 C.3    90  ILE90       0.0019
     17  CG2       37.4580   92.8750  -41.2340 C.3    90  ILE90       0.0019
     18  CD1       35.4980   95.0740  -41.7880 C.3    90  ILE90       0.0001
     19  N         30.5250   96.9740  -45.7390 N.3   124  ASN124     -0.1240
     20  CA        31.8820   97.0410  -46.2050 C.3   124  ASN124      0.1653
     21  C         32.1930   95.8010  -47.0160 C.2   124  ASN124      0.2266
     22  O         32.6880   94.8230  -46.4550 O.2   124  ASN124     -0.2867
     23  CB        32.8220   97.1400  -45.0200 C.3   124  ASN124      0.1155
     24  CG        34.1620   97.6630  -45.3940 C.2   124  ASN124      0.2627
     25  OD1       34.2710   98.5750  -46.1990 O.2   124  ASN124     -0.2716
     26  ND2       35.1990   97.0910  -44.8220 N.am  124  ASN124     -0.0877
     27  N         41.3690   95.9150  -50.8290 N.3   158  GLU158     -0.1231
     28  CA        41.4250   97.2450  -50.2300 C.3   158  GLU158      0.1699
     29  C         41.8060   97.1880  -48.7600 C.2   158  GLU158      0.2592
     30  O         42.4830   98.0640  -48.2550 O.2   158  GLU158     -0.2718
     31  CB        40.1030   97.9790  -50.3990 C.3   158  GLU158      0.0402
     32  CG        40.1000   99.3770  -49.8220 C.3   158  GLU158      0.1161
     33  CD        39.7430   99.4310  -48.3650 C.2   158  GLU158      0.3649
     34  OE1       38.8860   98.6380  -47.9380 O.co2 158  GLU158     -0.2457
     35  OE2       40.3370  100.2450  -47.6320 O.co2 158  GLU158     -0.2457
     36  N         41.3740   96.1480  -48.0740 N.am  159  ILE159     -0.1966
     37  CA        41.5550   96.0530  -46.6430 C.3   159  ILE159      0.1727
     38  C         43.0160   95.8270  -46.2800 C.2   159  ILE159      0.2616
     39  O         43.7370   95.1560  -46.9800 O.2   159  ILE159     -0.2715
     40  CB        40.6810   94.9660  -46.0900 C.3   159  ILE159      0.0290
     41  CG1       39.2700   95.1710  -46.6420 C.3   159  ILE159      0.0022
     42  CG2       40.6620   95.0330  -44.6200 C.3   159  ILE159      0.0023
     43  CD1       38.2460   94.2430  -46.1000 C.3   159  ILE159      0.0001
     44  N         43.4500   96.4220  -45.1880 N.am  160  ASP160     -0.1971
     45  CA        44.8690   96.6210  -44.9170 C.3   160  ASP160      0.1709
     46  C         45.6690   95.3770  -44.5800 C.2   160  ASP160      0.2293
     47  O         46.6250   95.4540  -43.8160 O.2   160  ASP160     -0.2864
     48  CB        45.0330   97.6140  -43.7690 C.3   160  ASP160      0.1436
     49  CG        44.2210   98.8870  -43.9500 C.2   160  ASP160      0.3671
     50  OD1       42.9900   98.8780  -43.7710 O.co2 160  ASP160     -0.2456
     51  OD2       44.8270   99.9120  -44.2940 O.co2 160  ASP160     -0.2456
     52  N         32.1110  104.2150  -50.1910 N.3   196  GLU196     -0.1231
     53  CA        32.2220  103.4550  -48.9700 C.3   196  GLU196      0.1699
     54  C         31.2760  104.1210  -48.0090 C.2   196  GLU196      0.2592
     55  O         30.7110  105.1390  -48.3450 O.2   196  GLU196     -0.2718
     56  CB        33.6440  103.4640  -48.4420 C.3   196  GLU196      0.0402
     57  CG        34.6190  102.5790  -49.1760 C.3   196  GLU196      0.1161
     58  CD        35.1480  101.4820  -48.2870 C.2   196  GLU196      0.3649
     59  OE1       34.3450  100.8020  -47.6220 O.co2 196  GLU196     -0.2457
     60  OE2       36.3750  101.3350  -48.2000 O.co2 196  GLU196     -0.2457
     61  N         31.0980  103.5720  -46.8180 N.am  197  ALA197     -0.1980
     62  CA        30.1630  104.1500  -45.8640 C.3   197  ALA197      0.1597
     63  C         30.8040  105.3130  -45.1040 C.2   197  ALA197      0.2287
     64  O         31.6690  105.1170  -44.2650 O.2   197  ALA197     -0.2864
     65  CB        29.6820  103.0990  -44.9110 C.3   197  ALA197      0.0319
     66  N         41.6420  107.0000  -42.0170 N.3   371  MET371     -0.1230
     67  CA        41.8190  105.5860  -42.3040 C.3   371  MET371      0.1702
     68  C         42.4720  105.3610  -43.6340 C.2   371  MET371      0.2592
     69  O         43.1010  106.2520  -44.1700 O.2   371  MET371     -0.2718
     70  CB        40.4910  104.8460  -42.2920 C.3   371  MET371      0.0401
     71  CG        39.4400  105.4490  -43.1630 C.3   371  MET371      0.0596
     72  SD        37.8720  104.6500  -42.8790 S.3   371  MET371     -0.1393
     73  CE        38.1310  103.1420  -43.7660 C.3   371  MET371      0.0692
     74  N         42.3410  104.1470  -44.1520 N.am  372  TRP372     -0.1962
     75  CA        42.7350  103.8860  -45.5160 C.3   372  TRP372      0.1771
     76  C         41.5310  103.6070  -46.3790 C.2   372  TRP372      0.2619
     77  O         40.7930  102.6540  -46.1530 O.2   372  TRP372     -0.2715
     78  CB        43.6920  102.7100  -45.6260 C.3   372  TRP372      0.0590
     79  CG        44.0080  102.4570  -47.0550 C.ar  372  TRP372      0.0006
     80  CD1       43.2980  101.6980  -47.9310 C.ar  372  TRP372      0.0946
     81  CD2       45.0930  103.0100  -47.7940 C.ar  372  TRP372      0.0152
     82  NE1       43.8830  101.7320  -49.1670 N.ar  372  TRP372     -0.2442
     83  CE2       44.9920  102.5280  -49.1060 C.ar  372  TRP372      0.0810
     84  CE3       46.1490  103.8510  -47.4700 C.ar  372  TRP372      0.0012
     85  CZ2       45.9000  102.8560  -50.0870 C.ar  372  TRP372      0.0191
     86  CZ3       47.0490  104.1810  -48.4530 C.ar  372  TRP372      0.0001
     87  CH2       46.9190  103.6860  -49.7460 C.ar  372  TRP372      0.0015
     88  N         41.3550  104.4380  -47.3890 N.am  373  ARG373     -0.1977
     89  CA        40.3770  104.1810  -48.4130 C.3   373  ARG373      0.1597
     90  C         41.0010  104.4150  -49.7660 C.2   373  ARG373      0.2287
     91  O         42.0790  104.9810  -49.8760 O.2   373  ARG373     -0.2864
     92  CB        39.1340  105.0410  -48.1910 C.3   373  ARG373      0.0334
     93  CG        38.2060  104.4000  -47.1570 C.3   373  ARG373      0.0492
     94  CD        36.9060  105.1400  -46.9450 C.3   373  ARG373      0.2205
     95  NE        35.9960  104.3650  -46.1080 N.pl3 373  ARG373     -0.0865
     96  CZ        34.9050  104.8520  -45.5240 C.cat 373  ARG373      0.5346
     97  NH1       34.5930  106.1250  -45.6690 N.pl3 373  ARG373      0.1354
     98  NH2       34.1290  104.0700  -44.7890 N.pl3 373  ARG373      0.1354
     99  N         30.2550  103.3860  -40.5210 N.3   393  GLY393     -0.1210
    100  CA        31.3680  102.5570  -40.9270 C.3   393  GLY393      0.1956
    101  C         31.4440  101.2330  -40.2070 C.2   393  GLY393      0.2612
    102  O         31.0980  101.1170  -39.0380 O.2   393  GLY393     -0.2717
    103  N         31.9580  100.2330  -40.9030 N.am  394  ALA394     -0.1965
    104  CA        32.1220   98.9170  -40.3210 C.3   394  ALA394      0.1728
    105  C         33.1760   98.9500  -39.2290 C.2   394  ALA394      0.2616
    106  O         33.1990   98.0960  -38.3510 O.2   394  ALA394     -0.2715
    107  CB        32.4890   97.9160  -41.3830 C.3   394  ALA394      0.0334
    108  N         34.0640   99.9330  -39.2870 N.am  395  GLY395     -0.1955
    109  CA        35.0680  100.0710  -38.2540 C.3   395  GLY395      0.1869
    110  C         34.4150  100.5110  -36.9590 C.2   395  GLY395      0.2309
    111  O         35.0510  100.5420  -35.9100 O.2   395  GLY395     -0.2863
@<TRIPOS>BOND
     1     1     2    1
     2     2     3    1
     3     2     5    1
     4     3     4    2
     5     5     6    1
     6    27    28    1
     7     6     8   ar
     8     6     7   ar
     9    31    28    1
    10    31    32    1
    11    28    29    1
    12    52    53    1
    13    85    87   ar
    14    85    83   ar
    15     8    10   ar
    16    91    90    2
    17    32    33    1
    18     7     9   ar
    19    90    89    1
    20    87    86   ar
    21    57    56    1
    22    57    58    1
    23    82    83   ar
    24    82    80   ar
    25    83    81   ar
    26    53    56    1
    27    53    54    1
    28    10     9   ar
    29    29    30    2
    30    29    36   am
    31    86    84   ar
    32    89    92    1
    33    89    88    1
    34    33    34   ar
    35    33    35   ar
    36    55    54    2
    37    58    60   ar
    38    58    59   ar
    39    92    93    1
    40    36    37    1
    41    54    61   am
    42    80    79   ar
    43    81    84   ar
    44    81    79   ar
    45    88    76   am
    46    93    94    1
    47    79    78    1
    48    21    22    2
    49    21    20    1
    50    39    38    2
    51    94    95    1
    52    61    62    1
    53    37    38    1
    54    37    40    1
    55    41    43    1
    56    41    40    1
    57    76    77    2
    58    76    75    1
    59    38    44   am
    60    20    19    1
    61    20    23    1
    62    25    24    2
    63    95    96    2
    64    40    42    1
    65    62    63    1
    66    62    65    1
    67    97    96    1
    68    78    75    1
    69    96    98    1
    70    75    74    1
    71    24    23    1
    72    24    26   am
    73    44    45    1
    74    63    64    2
    75    45    46    1
    76    45    48    1
    77    46    47    2
    78    11    12    1
    79    51    49   ar
    80    69    68    2
    81    74    68   am
    82    49    50   ar
    83    49    48    1
    84    73    72    1
    85    68    67    1
    86    12    13    1
    87    12    15    1
    88    71    72    1
    89    71    70    1
    90    13    14    2
    91    16    15    1
    92    16    18    1
    93    15    17    1
    94    67    70    1
    95    67    66    1
    96   107   104    1
    97   100    99    1
    98   100   101    1
    99   103   104    1
   100   103   101   am
   101   104   105    1
   102   101   102    2
   103   108   105   am
   104   108   109    1
   105   105   106    2
   106   109   110    1
   107   110   111    2
