@<TRIPOS>MOLECULE
tmp/5k8vB01.pdb
 89 87 0 0 0
SMALL
GASTEIGER

@<TRIPOS>ATOM
      1  N         22.8040   41.8220  111.0090 N.3     1  ARG1       -0.1231
      2  CA        21.4310   42.1400  111.3790 C.3     1  ARG1        0.1694
      3  C         20.6200   40.8830  111.6820 C.2     1  ARG1        0.2592
      4  O         19.4050   40.9550  111.8690 O.2     1  ARG1       -0.2718
      5  CB        20.7520   42.9420  110.2670 C.3     1  ARG1        0.0321
      6  CG        21.2020   44.3930  110.1940 C.3     1  ARG1        0.0489
      7  CD        20.1910   45.2620  109.4580 C.3     1  ARG1        0.2205
      8  NE        20.1840   45.0140  108.0190 N.pl3   1  ARG1       -0.0865
      9  CZ        20.9690   45.6370  107.1440 C.cat   1  ARG1        0.5346
     10  NH1       21.8390   46.5520  107.5540 N.pl3   1  ARG1        0.1354
     11  NH2       20.8860   45.3440  105.8530 N.pl3   1  ARG1        0.1354
     12  N         21.2880   39.7340  111.7300 N.am    2  SER2       -0.1952
     13  CA        20.6210   38.4960  112.0970 C.3     2  SER2        0.1924
     14  C         20.3700   38.4640  113.5990 C.2     2  SER2        0.2314
     15  O         21.1080   39.0580  114.3870 O.2     2  SER2       -0.2863
     16  CB        21.4590   37.2840  111.6900 C.3     2  SER2        0.2116
     17  OG        22.4710   37.0200  112.6460 O.3     2  SER2       -0.2180
     18  N         23.8230   24.3910  105.1970 N.3   106  PRO106     -0.2102
     19  CA        24.8100   24.9540  106.1240 C.3   106  PRO106      0.1504
     20  C         24.5160   26.4070  106.4530 C.2   106  PRO106      0.2576
     21  O         23.9740   27.1610  105.6410 O.2   106  PRO106     -0.2718
     22  CB        26.1330   24.8120  105.3640 C.3   106  PRO106      0.0282
     23  CG        25.7430   24.8270  103.9320 C.3   106  PRO106      0.0208
     24  CD        24.3920   24.1720  103.8540 C.3   106  PRO106      0.0893
     25  N         24.8920   26.7930  107.6630 N.am  107  GLY107     -0.1943
     26  CA        24.6640   28.1290  108.1710 C.3   107  GLY107      0.2014
     27  C         23.8820   28.1060  109.4690 C.2   107  GLY107      0.2638
     28  O         23.4820   27.0580  109.9730 O.2   107  GLY107     -0.2714
     29  N         23.6690   29.3020  110.0070 N.am  108  LYS108     -0.1977
     30  CA        22.8980   29.4530  111.2310 C.3   108  LYS108      0.1596
     31  C         21.4100   29.4810  110.9070 C.2   108  LYS108      0.2287
     32  O         20.9890   30.0690  109.9070 O.2   108  LYS108     -0.2864
     33  CB        23.3050   30.7320  111.9610 C.3   108  LYS108      0.0298
     34  CG        24.8010   30.8570  112.2010 C.3   108  LYS108      0.0038
     35  CD        25.1390   32.1640  112.9010 C.3   108  LYS108      0.0206
     36  CE        26.2280   32.9360  112.1690 C.3   108  LYS108      0.1093
     37  NZ        27.5750   32.3260  112.3280 N.3   108  LYS108     -0.1314
     38  N         19.1650   31.1310  112.1150 N.3   110  GLU110     -0.1231
     39  CA        18.6760   32.5030  112.0680 C.3   110  GLU110      0.1699
     40  C         19.0380   33.2140  110.7710 C.2   110  GLU110      0.2592
     41  O         18.6090   34.3570  110.5720 O.2   110  GLU110     -0.2718
     42  CB        19.2310   33.3100  113.2480 C.3   110  GLU110      0.0402
     43  CG        18.8230   32.8010  114.6220 C.3   110  GLU110      0.1161
     44  CD        19.7630   31.7430  115.1620 C.2   110  GLU110      0.3649
     45  OE1       20.5120   31.1420  114.3630 O.co2 110  GLU110     -0.2457
     46  OE2       19.7560   31.5190  116.3910 O.co2 110  GLU110     -0.2457
     47  N         19.8060   32.5740  109.8880 N.am  111  GLU111     -0.1966
     48  CA        20.3190   33.2290  108.6910 C.3   111  GLU111      0.1733
     49  C         20.0720   32.4620  107.4010 C.2   111  GLU111      0.2616
     50  O         20.0920   33.0840  106.3310 O.2   111  GLU111     -0.2715
     51  CB        21.8290   33.4800  108.8350 C.3   111  GLU111      0.0429
     52  CG        22.1710   34.4550  109.9560 C.3   111  GLU111      0.1163
     53  CD        23.6560   34.5370  110.2420 C.2   111  GLU111      0.3649
     54  OE1       24.4470   33.9290  109.4910 O.co2 111  GLU111     -0.2457
     55  OE2       24.0320   35.2160  111.2220 O.co2 111  GLU111     -0.2457
     56  N         19.8340   31.1530  107.4520 N.am  112  VAL112     -0.1963
     57  CA        19.5780   30.3750  106.2450 C.3   112  VAL112      0.1727
     58  C         18.1860   30.7020  105.7220 C.2   112  VAL112      0.2616
     59  O         17.4290   31.4490  106.3530 O.2   112  VAL112     -0.2715
     60  CB        19.7210   28.8650  106.5080 C.3   112  VAL112      0.0290
     61  CG1       21.1300   28.5360  106.9880 C.3   112  VAL112      0.0023
     62  CG2       18.6790   28.3930  107.5160 C.3   112  VAL112      0.0023
     63  N         17.8380   30.1350  104.5670 N.am  113  SER113     -0.1950
     64  CA        16.5290   30.3280  103.9520 C.3   113  SER113      0.1924
     65  C         15.9890   28.9640  103.5460 C.2   113  SER113      0.2314
     66  O         16.4800   28.3600  102.5860 O.2   113  SER113     -0.2863
     67  CB        16.6220   31.2600  102.7430 C.3   113  SER113      0.2116
     68  OG        15.3350   31.5790  102.2460 O.3   113  SER113     -0.2180
     69  N          9.4970   30.0180  113.0880 N.3   144  LYS144     -0.1231
     70  CA         9.0270   30.7920  111.9460 C.3   144  LYS144      0.1693
     71  C          8.8020   29.9120  110.7240 C.2   144  LYS144      0.2592
     72  O          8.0280   30.2860  109.8370 O.2   144  LYS144     -0.2718
     73  CB        10.0230   31.9060  111.6160 C.3   144  LYS144      0.0285
     74  CG        11.4140   31.4190  111.2320 C.3   144  LYS144      0.0035
     75  CD        12.3510   32.5840  110.9540 C.3   144  LYS144      0.0206
     76  CE        13.7410   32.1060  110.5740 C.3   144  LYS144      0.1093
     77  NZ        14.6560   33.2310  110.2460 N.3   144  LYS144     -0.1314
     78  N          9.4500   28.7500  110.6620 N.am  145  TYR145     -0.1976
     79  CA         9.2580   27.8010  109.5740 C.3   145  TYR145      0.1639
     80  C          8.2330   26.7200  109.8990 C.2   145  TYR145      0.2290
     81  O          8.0250   25.8210  109.0780 O.2   145  TYR145     -0.2864
     82  CB        10.5860   27.1260  109.2120 C.3   145  TYR145      0.0560
     83  CG        11.6500   28.0460  108.6530 C.ar  145  TYR145     -0.0198
     84  CD1       11.4830   28.6750  107.4250 C.ar  145  TYR145     -0.0009
     85  CD2       12.8390   28.2570  109.3380 C.ar  145  TYR145     -0.0009
     86  CE1       12.4630   29.5050  106.9070 C.ar  145  TYR145      0.0417
     87  CE2       13.8230   29.0800  108.8270 C.ar  145  TYR145      0.0417
     88  CZ        13.6310   29.7020  107.6130 C.ar  145  TYR145      0.1957
     89  OH        14.6100   30.5230  107.1050 O.3   145  TYR145     -0.2866
@<TRIPOS>BOND
     1    68    67    1
     2    66    65    2
     3    67    64    1
     4    65    64    1
     5    24    23    1
     6    24    18    1
     7    23    22    1
     8    64    63    1
     9    63    58   am
    10    18    19    1
    11    22    19    1
    12    21    20    2
    13    58    57    1
    14    58    59    2
    15    11     9    1
    16    19    20    1
    17    57    60    1
    18    57    56    1
    19    50    49    2
    20    20    25   am
    21    60    61    1
    22    60    62    1
    23    86    84   ar
    24    86    88   ar
    25    89    88    1
    26     9    10    1
    27     9     8    2
    28    49    56   am
    29    49    48    1
    30    84    83   ar
    31    88    87   ar
    32    25    26    1
    33     8     7    1
    34    26    27    1
    35    83    82    1
    36    83    85   ar
    37    48    51    1
    38    48    47    1
    39    87    85   ar
    40    51    52    1
    41    81    80    2
    42    82    79    1
    43     7     6    1
    44    27    28    2
    45    27    29   am
    46    54    53   ar
    47    79    80    1
    48    79    78    1
    49    72    71    2
    50    47    40   am
    51    32    31    2
    52    52    53    1
    53    29    30    1
    54     6     5    1
    55    53    55   ar
    56    77    76    1
    57     5     2    1
    58    41    40    2
    59    76    75    1
    60    78    71   am
    61    71    70    1
    62    40    39    1
    63    31    30    1
    64    75    74    1
    65     1     2    1
    66    30    33    1
    67    74    73    1
    68     2     3    1
    69    73    70    1
    70     3    12   am
    71     3     4    2
    72    16    13    1
    73    16    17    1
    74    12    13    1
    75    70    69    1
    76    33    34    1
    77    39    38    1
    78    39    42    1
    79    13    14    1
    80    36    37    1
    81    36    35    1
    82    34    35    1
    83    42    43    1
    84    14    15    2
    85    45    44   ar
    86    43    44    1
    87    44    46   ar
