@<TRIPOS>MOLECULE
tmp/5k8vA00.pdb
 220 213 0 0 0
SMALL
GASTEIGER

@<TRIPOS>ATOM
      1  N         50.5640   43.5760  117.4060 N.3     3  PHE3       -0.1241
      2  CA        49.8370   42.4530  117.9870 C.3     3  PHE3        0.1605
      3  C         48.5600   42.1660  117.2080 C.2     3  PHE3        0.2264
      4  O         48.3060   41.0240  116.8080 O.2     3  PHE3       -0.2867
      5  CB        49.5110   42.7260  119.4550 C.3     3  PHE3        0.0534
      6  CG        48.7690   41.6000  120.1180 C.ar    3  PHE3       -0.0203
      7  CD1       49.4580   40.5490  120.7040 C.ar    3  PHE3       -0.0042
      8  CD2       47.3840   41.5780  120.1340 C.ar    3  PHE3       -0.0042
      9  CE1       48.7780   39.5060  121.3050 C.ar    3  PHE3       -0.0003
     10  CE2       46.7000   40.5400  120.7310 C.ar    3  PHE3       -0.0003
     11  CZ        47.3980   39.5020  121.3180 C.ar    3  PHE3       -0.0000
     12  N         41.9760   34.4800  124.6830 N.3    15  TYR15      -0.1227
     13  CA        43.2920   34.3380  125.2940 C.3    15  TYR15       0.1736
     14  C         43.3910   35.1660  126.5690 C.2    15  TYR15       0.2595
     15  O         43.7430   34.6480  127.6350 O.2    15  TYR15      -0.2718
     16  CB        44.3650   34.7510  124.2840 C.3    15  TYR15       0.0548
     17  CG        45.7840   34.6700  124.7880 C.ar   15  TYR15      -0.0200
     18  CD1       46.4810   33.4710  124.7650 C.ar   15  TYR15      -0.0009
     19  CD2       46.4360   35.7990  125.2620 C.ar   15  TYR15      -0.0009
     20  CE1       47.7840   33.3950  125.2160 C.ar   15  TYR15       0.0417
     21  CE2       47.7410   35.7330  125.7150 C.ar   15  TYR15       0.0417
     22  CZ        48.4100   34.5280  125.6900 C.ar   15  TYR15       0.1957
     23  OH        49.7090   34.4580  126.1400 O.3    15  TYR15      -0.2866
     24  N         43.0680   36.4570  126.4830 N.am   16  PHE16      -0.1976
     25  CA        43.1760   37.3370  127.6390 C.3    16  PHE16       0.1639
     26  C         42.0300   37.1590  128.6260 C.2    16  PHE16       0.2290
     27  O         42.1970   37.4800  129.8070 O.2    16  PHE16      -0.2864
     28  CB        43.2570   38.7930  127.1770 C.3    16  PHE16       0.0560
     29  CG        44.5250   39.1170  126.4400 C.ar   16  PHE16      -0.0200
     30  CD1       45.7430   39.1070  127.0990 C.ar   16  PHE16      -0.0042
     31  CD2       44.5030   39.4230  125.0890 C.ar   16  PHE16      -0.0042
     32  CE1       46.9150   39.3950  126.4250 C.ar   16  PHE16      -0.0003
     33  CE2       45.6750   39.7140  124.4120 C.ar   16  PHE16      -0.0003
     34  CZ        46.8800   39.7010  125.0810 C.ar   16  PHE16      -0.0000
     35  N         43.3770   34.3390  130.8870 N.3    19  TYR19      -0.1241
     36  CA        44.4240   34.7200  131.8240 C.3    19  TYR19       0.1605
     37  C         43.9770   35.7670  132.8360 C.2    19  TYR19       0.2264
     38  O         44.7500   36.0970  133.7410 O.2    19  TYR19      -0.2867
     39  CB        45.6500   35.2260  131.0590 C.3    19  TYR19       0.0534
     40  CG        46.4890   34.1050  130.4910 C.ar   19  TYR19      -0.0201
     41  CD1       46.5870   33.9060  129.1200 C.ar   19  TYR19      -0.0009
     42  CD2       47.1790   33.2390  131.3320 C.ar   19  TYR19      -0.0009
     43  CE1       47.3520   32.8800  128.6030 C.ar   19  TYR19       0.0417
     44  CE2       47.9450   32.2110  130.8260 C.ar   19  TYR19       0.0417
     45  CZ        48.0290   32.0350  129.4620 C.ar   19  TYR19       0.1957
     46  OH        48.7940   31.0100  128.9580 O.3    19  TYR19      -0.2866
     47  N         46.4450   32.0270  137.2760 N.3    25  GLN25      -0.1245
     48  CA        47.6360   32.5510  137.9350 C.3    25  GLN25       0.1566
     49  C         48.1050   31.5960  139.0230 C.2    25  GLN25       0.2260
     50  O         49.2830   31.2210  139.0760 O.2    25  GLN25      -0.2867
     51  CB        47.3460   33.9350  138.5220 C.3    25  GLN25       0.0367
     52  CG        47.0790   35.0100  137.4820 C.3    25  GLN25       0.0905
     53  CD        48.2980   35.3130  136.6330 C.2    25  GLN25       0.2608
     54  OE1       49.4290   35.2920  137.1200 O.2    25  GLN25      -0.2717
     55  NE2       48.0730   35.5930  135.3540 N.am   25  GLN25      -0.0878
     56  N         49.8990   28.5950  137.5800 N.3    28  MET28      -0.1245
     57  CA        51.2740   28.8790  137.1810 C.3    28  MET28       0.1570
     58  C         52.1500   29.1750  138.3930 C.2    28  MET28       0.2261
     59  O         53.3020   28.7320  138.4550 O.2    28  MET28      -0.2867
     60  CB        51.2980   30.0510  136.2010 C.3    28  MET28       0.0387
     61  CG        50.6090   29.7560  134.8760 C.3    28  MET28       0.0595
     62  SD        50.5770   31.1700  133.7560 S.3    28  MET28      -0.1393
     63  CE        49.5020   32.2900  134.6490 C.3    28  MET28       0.0692
     64  N         58.8840   26.3590  138.0840 N.3    34  ARG34      -0.1245
     65  CA        58.7890   27.6480  137.4090 C.3    34  ARG34       0.1563
     66  C         59.1050   28.7910  138.3660 C.2    34  ARG34       0.2260
     67  O         60.0690   29.5400  138.1690 O.2    34  ARG34      -0.2867
     68  CB        57.3930   27.8240  136.8100 C.3    34  ARG34       0.0307
     69  CG        57.2780   29.0100  135.8580 C.3    34  ARG34       0.0489
     70  CD        55.8350   29.4570  135.6720 C.3    34  ARG34       0.2205
     71  NE        55.4210   30.4010  136.7110 N.pl3  34  ARG34      -0.0865
     72  CZ        54.9710   31.6350  136.4930 C.cat  34  ARG34       0.5346
     73  NH1       54.6290   32.3970  137.5230 N.pl3  34  ARG34       0.1354
     74  NH2       54.8410   32.1170  135.2630 N.pl3  34  ARG34       0.1354
     75  N         57.2620   41.7810  131.0360 N.3    57  VAL57      -0.1231
     76  CA        56.3110   41.6210  129.9390 C.3    57  VAL57       0.1692
     77  C         55.3340   40.5090  130.2960 C.2    57  VAL57       0.2592
     78  O         55.7260   39.3430  130.4210 O.2    57  VAL57      -0.2718
     79  CB        57.0320   41.3150  128.6180 C.3    57  VAL57       0.0266
     80  CG1       56.0250   41.1150  127.4880 C.3    57  VAL57       0.0020
     81  CG2       58.0080   42.4310  128.2720 C.3    57  VAL57       0.0020
     82  N         54.0590   40.8650  130.4380 N.am   58  GLY58      -0.1957
     83  CA        53.0400   39.9040  130.8110 C.3    58  GLY58       0.1869
     84  C         53.1930   39.4680  132.2530 C.2    58  GLY58       0.2309
     85  O         53.4070   38.2850  132.5330 O.2    58  GLY58      -0.2863
     86  N         51.1070   39.2510  134.6980 N.3    60  GLY60      -0.1225
     87  CA        50.0080   38.5930  135.3840 C.3    60  GLY60       0.1811
     88  C         49.7380   39.2870  136.7050 C.2    60  GLY60       0.2280
     89  O         49.4320   40.4840  136.7530 O.2    60  GLY60      -0.2866
     90  N         53.8260   45.1510  132.6800 N.3    79  VAL79      -0.1231
     91  CA        52.8550   45.3030  131.6020 C.3    79  VAL79       0.1692
     92  C         52.0120   44.0380  131.5290 C.2    79  VAL79       0.2592
     93  O         52.5510   42.9240  131.4900 O.2    79  VAL79      -0.2718
     94  CB        53.5520   45.5830  130.2580 C.3    79  VAL79       0.0266
     95  CG1       52.5270   45.7460  129.1400 C.3    79  VAL79       0.0020
     96  CG2       54.4270   46.8280  130.3620 C.3    79  VAL79       0.0020
     97  N         50.6910   44.2110  131.5010 N.am   80  GLU80      -0.1966
     98  CA        49.7570   43.0930  131.4820 C.3    80  GLU80       0.1733
     99  C         48.4660   43.5470  130.8180 C.2    80  GLU80       0.2616
    100  O         47.8770   44.5500  131.2310 O.2    80  GLU80      -0.2715
    101  CB        49.4840   42.5850  132.9030 C.3    80  GLU80       0.0429
    102  CG        48.4010   41.5260  133.0040 C.3    80  GLU80       0.1163
    103  CD        48.7480   40.2620  132.2490 C.2    80  GLU80       0.3649
    104  OE1       47.9710   39.8820  131.3500 O.co2  80  GLU80      -0.2457
    105  OE2       49.7980   39.6540  132.5510 O.co2  80  GLU80      -0.2457
    106  N         48.0230   42.7990  129.8060 N.am   81  ALA81      -0.1963
    107  CA        46.8970   43.2210  128.9820 C.3    81  ALA81       0.1728
    108  C         45.5520   42.6880  129.4590 C.2    81  ALA81       0.2616
    109  O         44.5170   43.2590  129.1000 O.2    81  ALA81      -0.2715
    110  CB        47.1200   42.7850  127.5310 C.3    81  ALA81       0.0334
    111  N         45.5310   41.6150  130.2460 N.am   82  SER82      -0.1950
    112  CA        44.2730   41.0900  130.7510 C.3    82  SER82       0.1924
    113  C         43.8050   41.9240  131.9430 C.2    82  SER82       0.2314
    114  O         44.4630   42.8800  132.3660 O.2    82  SER82      -0.2863
    115  CB        44.4230   39.6190  131.1320 C.3    82  SER82       0.2116
    116  OG        45.2120   39.4690  132.2980 O.3    82  SER82      -0.2180
    117  N         47.5810   46.9160  129.4910 N.3   106  GLY106     -0.1210
    118  CA        47.5780   46.9660  128.0420 C.3   106  GLY106      0.1956
    119  C         48.5440   45.9840  127.4090 C.2   106  GLY106      0.2612
    120  O         49.2820   45.2850  128.1100 O.2   106  GLY106     -0.2717
    121  N         48.5410   45.9190  126.0800 N.am  107  LYS107     -0.1965
    122  CA        49.4420   45.0320  125.3660 C.3   107  LYS107      0.1728
    123  C         50.8030   45.6950  125.2090 C.2   107  LYS107      0.2616
    124  O         50.8970   46.8950  124.9370 O.2   107  LYS107     -0.2715
    125  CB        48.8520   44.6830  123.9990 C.3   107  LYS107      0.0311
    126  CG        47.4090   44.1770  124.0790 C.3   107  LYS107      0.0038
    127  CD        46.8690   43.8230  122.7110 C.3   107  LYS107      0.0206
    128  CE        45.4890   43.1900  122.7930 C.3   107  LYS107      0.1093
    129  NZ        44.4240   44.1770  123.1240 N.3   107  LYS107     -0.1314
    130  N         51.8660   44.9070  125.3930 N.am  108  VAL108     -0.1963
    131  CA        53.2130   45.4600  125.3310 C.3   108  VAL108      0.1727
    132  C         53.4960   46.0760  123.9700 C.2   108  VAL108      0.2616
    133  O         54.3830   46.9280  123.8500 O.2   108  VAL108     -0.2715
    134  CB        54.2510   44.3730  125.6760 C.3   108  VAL108      0.0290
    135  CG1       54.4110   43.3820  124.5260 C.3   108  VAL108      0.0023
    136  CG2       55.5850   45.0060  126.0470 C.3   108  VAL108      0.0023
    137  N         52.7630   45.6660  122.9340 N.am  109  GLU109     -0.1977
    138  CA        52.9120   46.2540  121.6110 C.3   109  GLU109      0.1602
    139  C         52.2190   47.6030  121.4810 C.2   109  GLU109      0.2287
    140  O         52.4290   48.2920  120.4770 O.2   109  GLU109     -0.2864
    141  CB        52.3550   45.3100  120.5390 C.3   109  GLU109      0.0415
    142  CG        53.1020   43.9930  120.3940 C.3   109  GLU109      0.1163
    143  CD        52.6700   42.9550  121.4090 C.2   109  GLU109      0.3649
    144  OE1       51.9590   43.3190  122.3690 O.co2 109  GLU109     -0.2457
    145  OE2       53.0360   41.7730  121.2410 O.co2 109  GLU109     -0.2457
    146  N         58.0380   35.5810  131.3530 N.3   123  GLU123     -0.1231
    147  CA        57.8410   34.1340  131.2890 C.3   123  GLU123      0.1684
    148  C         56.9160   33.8760  130.1080 C.2   123  GLU123      0.2434
    149  O         55.7070   33.6670  130.2800 O.2   123  GLU123     -0.2733
    150  CB        57.2740   33.5920  132.6020 C.3   123  GLU123      0.0402
    151  CG        57.3350   32.0790  132.7300 C.3   123  GLU123      0.1161
    152  CD        56.1580   31.3890  132.0760 C.2   123  GLU123      0.3649
    153  OE1       55.1020   31.2650  132.7330 O.co2 123  GLU123     -0.2457
    154  OE2       56.2850   30.9810  130.9030 O.co2 123  GLU123     -0.2457
    155  N         57.4470   33.9130  128.8860 N.am  124  PRO124     -0.2718
    156  CA        56.6050   33.7690  127.6840 C.3   124  PRO124      0.1535
    157  C         56.5210   32.3580  127.1090 C.2   124  PRO124      0.2598
    158  O         55.9480   32.2020  126.0270 O.2   124  PRO124     -0.2715
    159  CB        57.3200   34.6950  126.6960 C.3   124  PRO124      0.0310
    160  CG        58.7660   34.5160  127.0420 C.3   124  PRO124      0.0237
    161  CD        58.8220   34.3120  128.5390 C.3   124  PRO124      0.0939
    162  N         57.0660   31.3500  127.7800 N.am  125  MET125     -0.1964
    163  CA        57.0980   30.0110  127.2110 C.3   125  MET125      0.1736
    164  C         55.7210   29.3610  127.2790 C.2   125  MET125      0.2617
    165  O         55.0810   29.3410  128.3350 O.2   125  MET125     -0.2715
    166  CB        58.1190   29.1470  127.9480 C.3   125  MET125      0.0427
    167  CG        59.5410   29.7090  127.9310 C.3   125  MET125      0.0599
    168  SD        59.8730   30.8780  129.2680 S.3   125  MET125     -0.1393
    169  CE        59.8660   29.7850  130.6890 C.3   125  MET125      0.0692
    170  N         55.2650   28.8320  126.1430 N.am  126  GLY126     -0.1955
    171  CA        54.1090   27.9710  126.0920 C.3   126  GLY126      0.1869
    172  C         54.4960   26.5260  125.8330 C.2   126  GLY126      0.2309
    173  O         55.6630   26.1390  125.9110 O.2   126  GLY126     -0.2863
    174  N         51.3180   30.0340  121.8000 N.3   132  GLU132     -0.1245
    175  CA        50.8070   31.3170  122.2880 C.3   132  GLU132      0.1567
    176  C         51.4900   32.4910  121.5950 C.2   132  GLU132      0.2260
    177  O         50.9980   33.6220  121.6570 O.2   132  GLU132     -0.2867
    178  CB        50.9550   31.4540  123.8090 C.3   132  GLU132      0.0388
    179  CG        50.2550   30.3530  124.5900 C.3   132  GLU132      0.1160
    180  CD        50.2540   30.6030  126.0820 C.2   132  GLU132      0.3649
    181  OE1       50.1380   31.7780  126.4980 O.co2 132  GLU132     -0.2457
    182  OE2       50.3820   29.6190  126.8390 O.co2 132  GLU132     -0.2457
    183  N         53.8260   34.2440  122.3820 N.3   134  MET134     -0.1245
    184  CA        54.1560   35.3500  123.2710 C.3   134  MET134      0.1570
    185  C         55.6370   35.6990  123.2430 C.2   134  MET134      0.2261
    186  O         56.0140   36.7820  123.7040 O.2   134  MET134     -0.2867
    187  CB        53.7390   35.0370  124.7060 C.3   134  MET134      0.0387
    188  CG        53.5850   36.2880  125.5560 C.3   134  MET134      0.0595
    189  SD        53.6800   35.9710  127.3190 S.3   134  MET134     -0.1393
    190  CE        53.8690   37.6360  127.9440 C.3   134  MET134      0.0692
    191  N         56.0870   38.9560  121.6110 N.3   137  SER137     -0.1217
    192  CA        55.8860   40.1180  122.4730 C.3   137  SER137      0.1889
    193  C         57.1200   40.3750  123.3270 C.2   137  SER137      0.2288
    194  O         57.5020   41.5290  123.5510 O.2   137  SER137     -0.2866
    195  CB        54.6580   39.9090  123.3600 C.3   137  SER137      0.2089
    196  OG        53.5100   39.5920  122.5890 O.3   137  SER137     -0.2183
    197  N         54.2170   22.3070  134.5890 N.3   280  HIS280     -0.1226
    198  CA        52.9330   22.4680  133.9150 C.3   280  HIS280      0.1752
    199  C         53.0710   22.4950  132.3990 C.2   280  HIS280      0.2596
    200  O         52.0520   22.4650  131.7010 O.2   280  HIS280     -0.2718
    201  CB        52.2290   23.7400  134.4040 C.3   280  HIS280      0.0759
    202  CG        52.9240   25.0090  134.0190 C.ar  280  HIS280      0.0818
    203  ND1       54.1230   25.4010  134.5740 N.ar  280  HIS280     -0.2268
    204  CD2       52.5790   25.9840  133.1440 C.ar  280  HIS280      0.1154
    205  CE1       54.4920   26.5570  134.0510 C.ar  280  HIS280      0.1986
    206  NE2       53.5710   26.9330  133.1820 N.ar  280  HIS280     -0.2212
    207  N         54.2970   22.5430  131.8720 N.am  281  TRP281     -0.1976
    208  CA        54.5040   22.4260  130.4360 C.3   281  TRP281      0.1640
    209  C         54.5510   20.9780  129.9650 C.2   281  TRP281      0.2290
    210  O         54.3320   20.7230  128.7770 O.2   281  TRP281     -0.2864
    211  CB        55.8040   23.1190  130.0300 C.3   281  TRP281      0.0576
    212  CG        55.7570   24.6140  130.0810 C.ar  281  TRP281      0.0006
    213  CD1       55.0870   25.4430  129.2310 C.ar  281  TRP281      0.0946
    214  CD2       56.4320   25.4600  131.0190 C.ar  281  TRP281      0.0152
    215  NE1       55.2960   26.7530  129.5850 N.ar  281  TRP281     -0.2442
    216  CE2       56.1180   26.7910  130.6800 C.ar  281  TRP281      0.0810
    217  CE3       57.2690   25.2220  132.1130 C.ar  281  TRP281      0.0012
    218  CZ2       56.6080   27.8780  131.3970 C.ar  281  TRP281      0.0191
    219  CZ3       57.7550   26.3050  132.8240 C.ar  281  TRP281      0.0001
    220  CH2       57.4230   27.6160  132.4620 C.ar  281  TRP281      0.0015
@<TRIPOS>BOND
     1     4     3    2
     2     3     2    1
     3     1     2    1
     4     2     5    1
     5     5     6    1
     6     6     8   ar
     7     6     7   ar
     8     8    10   ar
     9   142   141    1
    10   142   143    1
    11   140   139    2
    12   141   138    1
    13     7     9   ar
    14    10    11   ar
    15   145   143   ar
    16     9    11   ar
    17   143   144   ar
    18   139   138    1
    19   176   177    2
    20   176   175    1
    21   191   192    1
    22   138   137    1
    23   174   175    1
    24   175   178    1
    25   183   184    1
    26   192   193    1
    27   192   195    1
    28   196   195    1
    29   127   128    1
    30   127   126    1
    31   128   129    1
    32   137   132   am
    33   185   184    1
    34   185   186    2
    35   184   187    1
    36   193   194    2
    37   178   179    1
    38   133   132    2
    39   132   131    1
    40   125   126    1
    41   125   122    1
    42    16    17    1
    43    16    13    1
    44    33    34   ar
    45    33    31   ar
    46   135   134    1
    47   179   180    1
    48    12    13    1
    49   187   188    1
    50    18    17   ar
    51    18    20   ar
    52    17    19   ar
    53   124   123    2
    54    34    32   ar
    55    31    29   ar
    56   123   122    1
    57   123   130   am
    58    20    22   ar
    59    19    21   ar
    60    13    14    1
    61   131   130    1
    62   131   134    1
    63   122   121    1
    64   188   189    1
    65   134   136    1
    66    22    21   ar
    67    22    23    1
    68   172   173    2
    69   172   171    1
    70   158   157    2
    71   121   119   am
    72   180   181   ar
    73   180   182   ar
    74   171   170    1
    75   170   164   am
    76    32    30   ar
    77    29    30   ar
    78    29    28    1
    79    24    14   am
    80    24    25    1
    81    14    15    2
    82   159   160    1
    83   159   156    1
    84   160   161    1
    85   157   156    1
    86   157   162   am
    87    28    25    1
    88   163   164    1
    89   163   162    1
    90   163   166    1
    91   164   165    2
    92   189   190    1
    93   119   118    1
    94   119   120    2
    95    80    79    1
    96   110   107    1
    97    25    26    1
    98   156   155    1
    99   167   166    1
   100   167   168    1
   101   118   117    1
   102    81    79    1
   103   161   155    1
   104    43    41   ar
   105    43    45   ar
   106    79    76    1
   107    26    27    2
   108   210   209    2
   109   155   148   am
   110    46    45    1
   111   107   108    1
   112   107   106    1
   113   109   108    2
   114    41    40   ar
   115    95    94    1
   116   213   215   ar
   117   213   212   ar
   118   168   169    1
   119   108   111   am
   120    45    44   ar
   121   215   216   ar
   122   106    99   am
   123    76    77    1
   124    76    75    1
   125   209   208    1
   126   211   212    1
   127   211   208    1
   128   212   214   ar
   129   148   149    2
   130   148   147    1
   131   111   112    1
   132    94    96    1
   133    94    91    1
   134    77    78    2
   135    77    82   am
   136   208   207    1
   137    82    83    1
   138    40    39    1
   139    40    42   ar
   140   216   214   ar
   141   216   218   ar
   142   112   115    1
   143   112   113    1
   144    83    84    1
   145    99   100    2
   146    99    98    1
   147    44    42   ar
   148    35    36    1
   149   154   152   ar
   150   214   217   ar
   151    39    36    1
   152   115   116    1
   153   147   146    1
   154   147   150    1
   155   104   103   ar
   156   218   220   ar
   157    98    97    1
   158    98   101    1
   159    93    92    2
   160    97    92   am
   161    92    91    1
   162    91    90    1
   163   200   199    2
   164    36    37    1
   165   207   199   am
   166   113   114    2
   167   152   151    1
   168   152   153   ar
   169   217   219   ar
   170   103   105   ar
   171   103   102    1
   172    84    85    2
   173   199   198    1
   174   220   219   ar
   175   150   151    1
   176    37    38    2
   177   101   102    1
   178   204   206   ar
   179   204   202   ar
   180   206   205   ar
   181    62    63    1
   182    62    61    1
   183   198   201    1
   184   198   197    1
   185   202   201    1
   186   202   203   ar
   187   205   203   ar
   188    86    87    1
   189    61    60    1
   190    74    72    1
   191    55    53   am
   192    87    88    1
   193    70    69    1
   194    70    71    1
   195    69    68    1
   196    60    57    1
   197    72    71    2
   198    72    73    1
   199    53    54    2
   200    53    52    1
   201    88    89    2
   202    68    65    1
   203    57    56    1
   204    57    58    1
   205    47    48    1
   206    65    64    1
   207    65    66    1
   208    52    51    1
   209    48    51    1
   210    48    49    1
   211    67    66    2
   212    58    59    2
   213    49    50    2
