@<TRIPOS>MOLECULE
tmp/5k8wD00.pdb
 211 204 0 0 0
SMALL
GASTEIGER

@<TRIPOS>ATOM
      1  N         56.8570   34.7030  195.5070 N.3     3  PHE3       -0.1241
      2  CA        55.6890   34.1300  194.8410 C.3     3  PHE3        0.1605
      3  C         54.6220   35.1880  194.5850 C.2     3  PHE3        0.2264
      4  O         54.1600   35.3570  193.4510 O.2     3  PHE3       -0.2867
      5  CB        55.1110   32.9830  195.6780 C.3     3  PHE3        0.0534
      6  CG        53.8990   32.3260  195.0620 C.ar    3  PHE3       -0.0203
      7  CD1       52.6280   32.8080  195.3220 C.ar    3  PHE3       -0.0042
      8  CD2       54.0340   31.2300  194.2250 C.ar    3  PHE3       -0.0042
      9  CE1       51.5170   32.2150  194.7660 C.ar    3  PHE3       -0.0003
     10  CE2       52.9190   30.6210  193.6580 C.ar    3  PHE3       -0.0003
     11  CZ        51.6600   31.1160  193.9260 C.ar    3  PHE3       -0.0000
     12  N         44.4240   28.5590  191.5360 N.3    15  TYR15      -0.1227
     13  CA        45.4500   27.5350  191.3740 C.3    15  TYR15       0.1736
     14  C         45.4590   26.5750  192.5590 C.2    15  TYR15       0.2595
     15  O         45.3460   25.3570  192.3870 O.2    15  TYR15      -0.2718
     16  CB        46.8100   28.2080  191.2020 C.3    15  TYR15       0.0548
     17  CG        47.9750   27.2690  191.0100 C.ar   15  TYR15      -0.0200
     18  CD1       48.2940   26.7680  189.7560 C.ar   15  TYR15      -0.0009
     19  CD2       48.7810   26.9060  192.0820 C.ar   15  TYR15      -0.0009
     20  CE1       49.3710   25.9180  189.5800 C.ar   15  TYR15       0.0417
     21  CE2       49.8550   26.0580  191.9130 C.ar   15  TYR15       0.0417
     22  CZ        50.1460   25.5710  190.6600 C.ar   15  TYR15       0.1957
     23  OH        51.2120   24.7270  190.4860 O.3    15  TYR15      -0.2866
     24  N         45.5740   27.1050  193.7780 N.am   16  PHE16      -0.1976
     25  CA        45.6940   26.2270  194.9340 C.3    16  PHE16       0.1639
     26  C         44.3750   25.5700  195.3090 C.2    16  PHE16       0.2290
     27  O         44.3890   24.5060  195.9340 O.2    16  PHE16      -0.2864
     28  CB        46.2790   27.0020  196.1120 C.3    16  PHE16       0.0560
     29  CG        47.6990   27.4230  195.8870 C.ar   16  PHE16      -0.0200
     30  CD1       48.6980   26.4750  195.7390 C.ar   16  PHE16      -0.0042
     31  CD2       48.0300   28.7560  195.7860 C.ar   16  PHE16      -0.0042
     32  CE1       50.0040   26.8600  195.5070 C.ar   16  PHE16      -0.0003
     33  CE2       49.3260   29.1380  195.5650 C.ar   16  PHE16      -0.0003
     34  CZ        50.3140   28.1870  195.4230 C.ar   16  PHE16      -0.0000
     35  N         44.3450   22.3420  193.2840 N.3    19  TYR19      -0.1241
     36  CA        45.1930   21.2960  193.8330 C.3    19  TYR19       0.1605
     37  C         44.7910   20.8760  195.2450 C.2    19  TYR19       0.2264
     38  O         45.4790   20.0460  195.8460 O.2    19  TYR19      -0.2867
     39  CB        46.6580   21.7450  193.8060 C.3    19  TYR19       0.0534
     40  CG        47.2830   21.6140  192.4410 C.ar   19  TYR19      -0.0201
     41  CD1       47.4750   20.3670  191.8670 C.ar   19  TYR19      -0.0009
     42  CD2       47.6870   22.7330  191.7250 C.ar   19  TYR19      -0.0009
     43  CE1       48.0380   20.2390  190.6230 C.ar   19  TYR19       0.0417
     44  CE2       48.2490   22.6080  190.4790 C.ar   19  TYR19       0.0417
     45  CZ        48.4230   21.3590  189.9370 C.ar   19  TYR19       0.1957
     46  OH        48.9920   21.2280  188.7030 O.3    19  TYR19      -0.2866
     47  N         44.6780   14.6600  192.8290 N.3    25  GLN25      -0.1245
     48  CA        45.7900   13.8380  193.2970 C.3    25  GLN25       0.1566
     49  C         45.6900   12.4280  192.7330 C.2    25  GLN25       0.2260
     50  O         46.6730   11.8790  192.2290 O.2    25  GLN25      -0.2867
     51  CB        45.8240   13.8100  194.8270 C.3    25  GLN25       0.0367
     52  CG        46.1890   15.1430  195.4520 C.3    25  GLN25       0.0905
     53  CD        47.6140   15.5610  195.1420 C.2    25  GLN25       0.2608
     54  OE1       48.5420   14.7590  195.2340 O.2    25  GLN25      -0.2717
     55  NE2       47.7940   16.8220  194.7750 N.am   25  GLN25      -0.0878
     56  N         46.9220   12.4900  189.0280 N.3    28  MET28      -0.1245
     57  CA        48.3670   12.4690  188.8490 C.3    28  MET28       0.1570
     58  C         48.9380   11.1150  189.2450 C.2    28  MET28       0.2261
     59  O         49.7990   10.5660  188.5480 O.2    28  MET28      -0.2867
     60  CB        49.0110   13.5880  189.6640 C.3    28  MET28       0.0387
     61  CG        48.6120   14.9930  189.2050 C.3    28  MET28       0.0595
     62  SD        49.2540   16.3140  190.2590 S.3    28  MET28      -0.1393
     63  CE        48.3240   16.0170  191.7490 C.3    28  MET28       0.0692
     64  N         56.1750   21.1250  196.7730 N.3    58  GLY58      -0.1225
     65  CA        54.8590   20.8640  196.2230 C.3    58  GLY58       0.1811
     66  C         54.5050   19.3950  196.3280 C.2    58  GLY58       0.2280
     67  O         54.2520   18.7400  195.3140 O.2    58  GLY58      -0.2866
     68  N         51.9770   17.6970  197.4630 N.3    60  GLY60      -0.1225
     69  CA        50.6360   17.1780  197.2520 C.3    60  GLY60       0.1811
     70  C         50.2810   16.2320  198.3780 C.2    60  GLY60       0.2280
     71  O         50.4790   16.5340  199.5600 O.2    60  GLY60      -0.2866
     72  N         56.8620   20.3110  201.6480 N.3    79  VAL79      -0.1231
     73  CA        56.2250   21.6220  201.5970 C.3    79  VAL79       0.1692
     74  C         55.0530   21.5810  200.6210 C.2    79  VAL79       0.2592
     75  O         55.1830   21.0730  199.5020 O.2    79  VAL79      -0.2718
     76  CB        57.2360   22.7030  201.1880 C.3    79  VAL79       0.0266
     77  CG1       56.5660   24.0730  201.1070 C.3    79  VAL79       0.0020
     78  CG2       58.4050   22.7390  202.1640 C.3    79  VAL79       0.0020
     79  N         53.9210   22.1500  201.0300 N.am   80  GLU80      -0.1966
     80  CA        52.7120   22.1480  200.2130 C.3    80  GLU80       0.1733
     81  C         51.8610   23.3460  200.5960 C.2    80  GLU80       0.2616
     82  O         51.5220   23.5180  201.7700 O.2    80  GLU80      -0.2715
     83  CB        51.9160   20.8560  200.3960 C.3    80  GLU80       0.0429
     84  CG        50.5620   20.8340  199.6790 C.3    80  GLU80       0.1163
     85  CD        50.6740   21.1630  198.1920 C.2    80  GLU80       0.3649
     86  OE1       50.0560   22.1540  197.7450 O.co2  80  GLU80      -0.2457
     87  OE2       51.3920   20.4380  197.4710 O.co2  80  GLU80      -0.2457
     88  N         51.5050   24.1570  199.6010 N.am   81  ALA81      -0.1963
     89  CA        50.7720   25.3890  199.8530 C.3    81  ALA81       0.1728
     90  C         49.2640   25.1870  199.8900 C.2    81  ALA81       0.2616
     91  O         48.5620   25.9570  200.5560 O.2    81  ALA81      -0.2715
     92  CB        51.1280   26.4260  198.7910 C.3    81  ALA81       0.0334
     93  N         48.7430   24.1740  199.2020 N.am   82  SER82      -0.1950
     94  CA        47.3040   23.9680  199.1800 C.3    82  SER82       0.1924
     95  C         46.8480   23.2490  200.4490 C.2    82  SER82       0.2314
     96  O         47.6540   22.7930  201.2680 O.2    82  SER82      -0.2863
     97  CB        46.8900   23.1710  197.9460 C.3    82  SER82       0.2116
     98  OG        47.0910   21.7870  198.1480 O.3    82  SER82      -0.2180
     99  N         52.4430   25.6270  203.4880 N.3   106  GLY106     -0.1210
    100  CA        52.7540   26.9490  202.9790 C.3   106  GLY106      0.1956
    101  C         53.5500   26.9040  201.6930 C.2   106  GLY106      0.2612
    102  O         53.8740   25.8470  201.1560 O.2   106  GLY106     -0.2717
    103  N         53.8570   28.0960  201.1930 N.am  107  LYS107     -0.1965
    104  CA        54.6080   28.2330  199.9550 C.3   107  LYS107      0.1728
    105  C         56.1040   28.1330  200.2160 C.2   107  LYS107      0.2616
    106  O         56.6260   28.7270  201.1600 O.2   107  LYS107     -0.2715
    107  CB        54.2850   29.5670  199.2790 C.3   107  LYS107      0.0311
    108  CG        52.8190   29.7340  198.9060 C.3   107  LYS107      0.0038
    109  CD        52.5360   31.1440  198.4440 C.3   107  LYS107      0.0206
    110  CE        51.0840   31.3080  198.0460 C.3   107  LYS107      0.1093
    111  NZ        50.1450   30.9770  199.1470 N.3   107  LYS107     -0.1314
    112  N         56.8000   27.3910  199.3510 N.am  108  VAL108     -0.1963
    113  CA        58.2270   27.1700  199.5420 C.3   108  VAL108      0.1727
    114  C         58.9890   28.4860  199.5750 C.2   108  VAL108      0.2616
    115  O         60.0930   28.5480  200.1260 O.2   108  VAL108     -0.2715
    116  CB        58.7600   26.2260  198.4410 C.3   108  VAL108      0.0290
    117  CG1       58.8070   26.9330  197.0770 C.3   108  VAL108      0.0023
    118  CG2       60.1130   25.6640  198.8350 C.3   108  VAL108      0.0023
    119  N         58.4180   29.5490  199.0160 N.am  109  GLU109     -0.1977
    120  CA        59.0360   30.8650  199.0580 C.3   109  GLU109      0.1602
    121  C         58.8270   31.5840  200.3890 C.2   109  GLU109      0.2287
    122  O         59.3820   32.6710  200.5740 O.2   109  GLU109     -0.2864
    123  CB        58.4870   31.7420  197.9280 C.3   109  GLU109      0.0415
    124  CG        58.7860   31.2470  196.5240 C.3   109  GLU109      0.1163
    125  CD        57.7400   30.2810  195.9870 C.2   109  GLU109      0.3649
    126  OE1       56.9240   29.7550  196.7770 O.co2 109  GLU109     -0.2457
    127  OE2       57.7380   30.0510  194.7620 O.co2 109  GLU109     -0.2457
    128  N         58.0100   17.4070  191.4960 N.3   123  GLU123     -0.1231
    129  CA        57.4500   17.1660  190.1720 C.3   123  GLU123      0.1684
    130  C         56.8820   18.5020  189.7230 C.2   123  GLU123      0.2434
    131  O         55.6810   18.7640  189.8660 O.2   123  GLU123     -0.2733
    132  CB        56.4070   16.0510  190.2090 C.3   123  GLU123      0.0402
    133  CG        56.0830   15.4640  188.8530 C.3   123  GLU123      0.1161
    134  CD        54.9100   16.1370  188.2200 C.2   123  GLU123      0.3649
    135  OE1       53.7710   15.7230  188.5180 O.co2 123  GLU123     -0.2457
    136  OE2       55.1300   17.0910  187.4450 O.co2 123  GLU123     -0.2457
    137  N         57.7320   19.3990  189.2260 N.am  124  PRO124     -0.2718
    138  CA        57.2790   20.7450  188.8570 C.3   124  PRO124      0.1535
    139  C         56.8380   20.9230  187.4110 C.2   124  PRO124      0.2598
    140  O         56.5270   22.0550  187.0280 O.2   124  PRO124     -0.2715
    141  CB        58.5300   21.5820  189.1320 C.3   124  PRO124      0.0310
    142  CG        59.6480   20.6670  188.7950 C.3   124  PRO124      0.0237
    143  CD        59.2060   19.3040  189.2410 C.3   124  PRO124      0.0939
    144  N         56.8060   19.8630  186.6030 N.am  125  MET125     -0.1964
    145  CA        56.5770   19.9990  185.1690 C.3   125  MET125      0.1736
    146  C         55.0880   20.1530  184.8730 C.2   125  MET125      0.2617
    147  O         54.2800   19.2960  185.2450 O.2   125  MET125     -0.2715
    148  CB        57.1360   18.7860  184.4270 C.3   125  MET125      0.0427
    149  CG        58.6210   18.5340  184.6750 C.3   125  MET125      0.0599
    150  SD        58.9430   17.5580  186.1450 S.3   125  MET125     -0.1393
    151  CE        58.4360   15.9370  185.5960 C.3   125  MET125      0.0692
    152  N         54.7290   21.2400  184.1910 N.am  126  GLY126     -0.1955
    153  CA        53.4100   21.3920  183.6150 C.3   126  GLY126      0.1869
    154  C         53.4000   21.0570  182.1280 C.2   126  GLY126      0.2309
    155  O         54.3810   20.5720  181.5570 O.2   126  GLY126     -0.2863
    156  N         52.4700   26.7180  184.6230 N.3   132  GLU132     -0.1245
    157  CA        52.2700   26.8300  186.0690 C.3   132  GLU132      0.1567
    158  C         53.4290   27.5300  186.7760 C.2   132  GLU132      0.2260
    159  O         53.2740   27.9210  187.9310 O.2   132  GLU132     -0.2867
    160  CB        52.0110   25.4790  186.7570 C.3   132  GLU132      0.0388
    161  CG        50.7790   24.7620  186.2370 C.3   132  GLU132      0.1160
    162  CD        50.5200   23.4250  186.9500 C.2   132  GLU132      0.3649
    163  OE1       50.8850   23.2790  188.1390 O.co2 132  GLU132     -0.2457
    164  OE2       49.9660   22.5010  186.3170 O.co2 132  GLU132     -0.2457
    165  N         56.0220   26.4450  188.0980 N.3   134  MET134     -0.1245
    166  CA        56.4850   25.7290  189.2780 C.3   134  MET134      0.1570
    167  C         57.9960   25.5380  189.2680 C.2   134  MET134      0.2261
    168  O         58.5930   25.3620  190.3370 O.2   134  MET134     -0.2867
    169  CB        55.7850   24.3700  189.3720 C.3   134  MET134      0.0387
    170  CG        56.1130   23.5620  190.6280 C.3   134  MET134      0.0595
    171  SD        55.6050   24.4140  192.1240 S.3   134  MET134     -0.1393
    172  CE        56.0540   23.2120  193.3740 C.3   134  MET134      0.0692
    173  N         59.6500   27.9590  191.5050 N.3   137  SER137     -0.1217
    174  CA        59.5770   27.6010  192.9220 C.3   137  SER137      0.1889
    175  C         60.5810   26.5040  193.2440 C.2   137  SER137      0.2288
    176  O         61.2200   26.5240  194.3040 O.2   137  SER137     -0.2866
    177  CB        58.1630   27.1370  193.2950 C.3   137  SER137      0.2089
    178  OG        57.2030   28.1630  193.1130 O.3   137  SER137     -0.2183
    179  N         50.0510   11.9110  181.2470 N.3   280  HIS280     -0.1226
    180  CA        49.0630   12.9670  181.4290 C.3   280  HIS280      0.1752
    181  C         49.5640   14.3170  180.9340 C.2   280  HIS280      0.2596
    182  O         48.7960   15.2850  180.9390 O.2   280  HIS280     -0.2718
    183  CB        48.6630   13.0670  182.9030 C.3   280  HIS280      0.0759
    184  CG        49.6570   13.8000  183.7520 C.ar  280  HIS280      0.0818
    185  ND1       50.7570   13.1860  184.3110 N.ar  280  HIS280     -0.2268
    186  CD2       49.7150   15.0990  184.1360 C.ar  280  HIS280      0.1154
    187  CE1       51.4500   14.0750  185.0020 C.ar  280  HIS280      0.1986
    188  NE2       50.8400   15.2440  184.9100 N.ar  280  HIS280     -0.2212
    189  N         50.8300   14.4100  180.5250 N.am  281  TRP281     -0.1976
    190  CA        51.3110   15.6070  179.8510 C.3   281  TRP281      0.1640
    191  C         51.0100   15.5880  178.3520 C.2   281  TRP281      0.2290
    192  O         50.9630   16.6550  177.7320 O.2   281  TRP281     -0.2864
    193  CB        52.8180   15.7680  180.0760 C.3   281  TRP281      0.0576
    194  CG        53.2010   16.1980  181.4720 C.ar  281  TRP281      0.0006
    195  CD1       53.1000   17.4550  181.9960 C.ar  281  TRP281      0.0946
    196  CD2       53.7620   15.3790  182.5100 C.ar  281  TRP281      0.0152
    197  NE1       53.5620   17.4690  183.2940 N.ar  281  TRP281     -0.2442
    198  CE2       53.9750   16.2080  183.6300 C.ar  281  TRP281      0.0810
    199  CE3       54.1090   14.0300  182.5980 C.ar  281  TRP281      0.0012
    200  CZ2       54.5070   15.7330  184.8200 C.ar  281  TRP281      0.0191
    201  CZ3       54.6430   13.5570  183.7770 C.ar  281  TRP281      0.0001
    202  CH2       54.8370   14.4080  184.8780 C.ar  281  TRP281      0.0015
    203  N         50.7040   32.7570  186.3140 N.3   312  GLN312     -0.1245
    204  CA        51.3840   31.4810  186.5230 C.3   312  GLN312      0.1566
    205  C         51.5270   30.7150  185.2140 C.2   312  GLN312      0.2260
    206  O         51.4690   29.4880  185.1820 O.2   312  GLN312     -0.2867
    207  CB        50.6570   30.6380  187.5770 C.3   312  GLN312      0.0367
    208  CG        50.7000   31.2390  188.9710 C.3   312  GLN312      0.0905
    209  CD        49.8100   30.5040  189.9550 C.2   312  GLN312      0.2608
    210  OE1       48.5840   30.6600  189.9370 O.2   312  GLN312     -0.2717
    211  NE2       50.4200   29.6950  190.8190 N.am  312  GLN312     -0.0878
@<TRIPOS>BOND
     1   192   191    2
     2   191   190    1
     3   190   193    1
     4   190   189    1
     5   193   194    1
     6   189   181   am
     7   181   182    2
     8   181   180    1
     9   179   180    1
    10   180   183    1
    11   194   195   ar
    12   194   196   ar
    13   155   154    2
    14   195   197   ar
    15   154   153    1
    16   196   199   ar
    17   196   198   ar
    18   199   201   ar
    19   183   184    1
    20   197   198   ar
    21   153   152    1
    22   198   200   ar
    23   184   186   ar
    24   184   185   ar
    25   201   202   ar
    26   186   188   ar
    27   152   146   am
    28   185   187   ar
    29   148   149    1
    30   148   145    1
    31   156   157    1
    32   149   150    1
    33   200   202   ar
    34   146   145    1
    35   146   147    2
    36   188   187   ar
    37   145   144    1
    38   206   205    2
    39   205   204    1
    40   151   150    1
    41   157   160    1
    42   157   158    1
    43   161   160    1
    44   161   162    1
    45   203   204    1
    46   164   162   ar
    47   204   207    1
    48   144   139   am
    49   158   159    2
    50   162   163   ar
    51   140   139    2
    52   139   138    1
    53   136   134   ar
    54   207   208    1
    55   165   166    1
    56   134   135   ar
    57   134   133    1
    58    59    58    2
    59    46    45    1
    60   142   141    1
    61   142   143    1
    62    57    56    1
    63    57    58    1
    64    57    60    1
    65   133   132    1
    66   138   141    1
    67   138   137    1
    68   208   209    1
    69    61    60    1
    70    61    62    1
    71   137   143    1
    72   137   130   am
    73   167   166    1
    74   167   168    2
    75   166   169    1
    76   169   170    1
    77    20    18   ar
    78    20    22   ar
    79   130   131    2
    80   130   129    1
    81    18    17   ar
    82   210   209    2
    83    45    44   ar
    84    45    43   ar
    85   209   211   am
    86   129   132    1
    87   129   128    1
    88    62    63    1
    89    44    42   ar
    90    23    22    1
    91    43    41   ar
    92   170   171    1
    93    22    21   ar
    94    17    16    1
    95    17    19   ar
    96    16    13    1
    97    13    12    1
    98    13    14    1
    99   173   174    1
   100    42    40   ar
   101    41    40   ar
   102    21    19   ar
   103   171   172    1
   104    50    49    2
   105    15    14    2
   106    40    39    1
   107    14    24   am
   108    49    48    1
   109    47    48    1
   110   174   175    1
   111   174   177    1
   112   178   177    1
   113   175   176    2
   114    35    36    1
   115    48    51    1
   116     4     3    2
   117    10    11   ar
   118    10     8   ar
   119    24    25    1
   120    39    36    1
   121    36    37    1
   122    11     9   ar
   123     8     6   ar
   124     3     2    1
   125   127   125   ar
   126     9     7   ar
   127    55    53   am
   128    51    52    1
   129     2     1    1
   130     2     5    1
   131    25    26    1
   132    25    28    1
   133     6     7   ar
   134     6     5    1
   135    53    54    2
   136    53    52    1
   137    37    38    2
   138    26    27    2
   139    67    66    2
   140    34    32   ar
   141    34    33   ar
   142    32    30   ar
   143    33    31   ar
   144    30    29   ar
   145    31    29   ar
   146    29    28    1
   147   125   124    1
   148   125   126   ar
   149    65    66    1
   150    65    64    1
   151   124   123    1
   152   117   116    1
   153    69    68    1
   154    69    70    1
   155    87    85   ar
   156    86    85   ar
   157   123   120    1
   158    97    98    1
   159    97    94    1
   160   110   109    1
   161   110   111    1
   162    85    84    1
   163    70    71    2
   164   116   118    1
   165   116   113    1
   166   109   108    1
   167    92    89    1
   168   108   107    1
   169   119   120    1
   170   119   114   am
   171   120   121    1
   172    94    93    1
   173    94    95    1
   174    93    90   am
   175   107   104    1
   176   112   113    1
   177   112   105   am
   178    75    74    2
   179   113   114    1
   180   114   115    2
   181    88    89    1
   182    88    81   am
   183    84    83    1
   184    89    90    1
   185    90    91    2
   186   104   105    1
   187   104   103    1
   188    80    83    1
   189    80    81    1
   190    80    79    1
   191   105   106    2
   192   121   122    2
   193    95    96    2
   194    81    82    2
   195    74    79   am
   196    74    73    1
   197    77    76    1
   198   102   101    2
   199    76    73    1
   200    76    78    1
   201   103   101   am
   202    73    72    1
   203   101   100    1
   204   100    99    1
