@<TRIPOS>MOLECULE
tmp/5k8yA01.pdb
 98 97 0 0 0
SMALL
GASTEIGER

@<TRIPOS>ATOM
      1  N        -25.2250  -28.9740   -4.6680 N.3    28  TRP28      -0.1227
      2  CA       -26.0150  -30.1840   -4.9430 C.3    28  TRP28       0.1737
      3  C        -27.5170  -29.9400   -4.7380 C.2    28  TRP28       0.2595
      4  O        -28.3110  -30.2190   -5.6340 O.2    28  TRP28      -0.2718
      5  CB       -25.5280  -31.3740   -4.1020 C.3    28  TRP28       0.0564
      6  CG       -26.1850  -32.7010   -4.4500 C.ar   28  TRP28       0.0003
      7  CD1      -25.7010  -33.6490   -5.3010 C.ar   28  TRP28       0.0946
      8  CD2      -27.4310  -33.2180   -3.9430 C.ar   28  TRP28       0.0152
      9  NE1      -26.5620  -34.7180   -5.3650 N.ar   28  TRP28      -0.2442
     10  CE2      -27.6300  -34.4840   -4.5390 C.ar   28  TRP28       0.0810
     11  CE3      -28.3960  -32.7350   -3.0420 C.ar   28  TRP28       0.0012
     12  CZ2      -28.7600  -35.2780   -4.2730 C.ar   28  TRP28       0.0191
     13  CZ3      -29.5280  -33.5280   -2.7740 C.ar   28  TRP28       0.0001
     14  CH2      -29.6930  -34.7870   -3.3900 C.ar   28  TRP28       0.0015
     15  N        -27.8880  -29.3860   -3.5790 N.am   29  TYR29      -0.1976
     16  CA       -29.2970  -29.1670   -3.2390 C.3    29  TYR29       0.1639
     17  C        -30.0080  -28.1250   -4.1060 C.2    29  TYR29       0.2290
     18  O        -31.1700  -28.3250   -4.4710 O.2    29  TYR29      -0.2864
     19  CB       -29.4850  -28.8500   -1.7510 C.3    29  TYR29       0.0560
     20  CG       -30.9440  -28.8060   -1.3460 C.ar   29  TYR29      -0.0198
     21  CD1      -31.7040  -29.9810   -1.2610 C.ar   29  TYR29      -0.0009
     22  CD2      -31.5750  -27.5920   -1.0790 C.ar   29  TYR29      -0.0009
     23  CE1      -33.0460  -29.9410   -0.9120 C.ar   29  TYR29       0.0417
     24  CE2      -32.9130  -27.5470   -0.7240 C.ar   29  TYR29       0.0417
     25  CZ       -33.6410  -28.7260   -0.6440 C.ar   29  TYR29       0.1957
     26  OH       -34.9730  -28.6850   -0.2960 O.3    29  TYR29      -0.2866
     27  N        -30.7320  -29.8320   -7.3150 N.3    32  GLU32      -0.1231
     28  CA       -31.8940  -30.7170   -7.1850 C.3    32  GLU32       0.1699
     29  C        -33.2140  -29.9380   -7.2310 C.2    32  GLU32       0.2592
     30  O        -34.1540  -30.3610   -7.9020 O.2    32  GLU32      -0.2718
     31  CB       -31.7730  -31.5780   -5.9140 C.3    32  GLU32       0.0402
     32  CG       -32.9790  -32.4460   -5.5400 C.3    32  GLU32       0.1161
     33  CD       -33.3470  -33.5140   -6.5670 C.2    32  GLU32       0.3649
     34  OE1      -32.5030  -33.9160   -7.3990 O.co2  32  GLU32      -0.2457
     35  OE2      -34.5050  -33.9760   -6.5280 O.co2  32  GLU32      -0.2457
     36  N        -33.2640  -28.7980   -6.5360 N.am   33  GLN33      -0.1979
     37  CA       -34.4130  -27.8810   -6.5760 C.3    33  GLN33       0.1601
     38  C        -34.7510  -27.4700   -8.0150 C.2    33  GLN33       0.2287
     39  O        -35.9250  -27.3910   -8.3890 O.2    33  GLN33      -0.2864
     40  CB       -34.1560  -26.6250   -5.7330 C.3    33  GLN33       0.0394
     41  CG       -33.9600  -26.8340   -4.2350 C.3    33  GLN33       0.0908
     42  CD       -35.2390  -27.1630   -3.4920 C.2    33  GLN33       0.2608
     43  OE1      -35.6630  -28.3190   -3.4430 O.2    33  GLN33      -0.2717
     44  NE2      -35.8500  -26.1460   -2.8880 N.am   33  GLN33      -0.0878
     45  N        -36.1600  -30.7150   -9.9250 N.3    36  ILE36      -0.1245
     46  CA       -37.5800  -30.8810   -9.5460 C.3    36  ILE36       0.1561
     47  C        -38.4780  -29.9410  -10.3680 C.2    36  ILE36       0.2260
     48  O        -39.4430  -30.3990  -10.9940 O.2    36  ILE36      -0.2867
     49  CB       -37.8430  -30.7270   -8.0220 C.3    36  ILE36       0.0252
     50  CG1      -37.0730  -31.7850   -7.2220 C.3    36  ILE36       0.0019
     51  CG2      -39.3280  -30.8920   -7.7160 C.3    36  ILE36       0.0019
     52  CD1      -36.6360  -31.3360   -5.8430 C.3    36  ILE36       0.0001
     53  N        -34.8290  -35.0950  -11.5440 N.3    41  HIS41      -0.1241
     54  CA       -34.0270  -35.2200  -10.3370 C.3    41  HIS41       0.1621
     55  C        -32.5860  -35.2660  -10.7890 C.2    41  HIS41       0.2264
     56  O        -32.3110  -35.6770  -11.9190 O.2    41  HIS41      -0.2867
     57  CB       -34.3620  -36.5120   -9.5890 C.3    41  HIS41       0.0745
     58  CG       -35.6980  -36.4970   -8.9140 C.ar   41  HIS41       0.0817
     59  ND1      -36.0130  -35.6110   -7.9060 N.ar   41  HIS41      -0.2268
     60  CD2      -36.7950  -37.2720   -9.0900 C.ar   41  HIS41       0.1154
     61  CE1      -37.2480  -35.8360   -7.4940 C.ar   41  HIS41       0.1986
     62  NE2      -37.7460  -36.8360   -8.1990 N.ar   41  HIS41      -0.2212
     63  N        -27.5480  -43.2950   -1.5560 N.3    77  TYR77      -0.1241
     64  CA       -28.7420  -43.6140   -2.3400 C.3    77  TYR77       0.1605
     65  C        -28.8680  -42.6840   -3.5480 C.2    77  TYR77       0.2264
     66  O        -28.3340  -41.5710   -3.5390 O.2    77  TYR77      -0.2867
     67  CB       -30.0130  -43.5890   -1.4710 C.3    77  TYR77       0.0534
     68  CG       -30.4670  -42.2140   -1.0210 C.ar   77  TYR77      -0.0201
     69  CD1      -29.8910  -41.5950    0.0980 C.ar   77  TYR77      -0.0009
     70  CD2      -31.4930  -41.5340   -1.7000 C.ar   77  TYR77      -0.0009
     71  CE1      -30.3070  -40.3330    0.5120 C.ar   77  TYR77       0.0417
     72  CE2      -31.9160  -40.2710   -1.2890 C.ar   77  TYR77       0.0417
     73  CZ       -31.3230  -39.6810   -0.1830 C.ar   77  TYR77       0.1957
     74  OH       -31.7300  -38.4380    0.2380 O.3    77  TYR77      -0.2866
     75  N        -31.0920  -40.1890   -5.5230 N.3    79  VAL79      -0.1231
     76  CA       -32.1860  -39.2600   -5.1980 C.3    79  VAL79       0.1692
     77  C        -33.4730  -39.5660   -5.9810 C.2    79  VAL79       0.2592
     78  O        -34.5670  -39.4950   -5.4110 O.2    79  VAL79      -0.2718
     79  CB       -31.7450  -37.7620   -5.2930 C.3    79  VAL79       0.0266
     80  CG1      -31.2670  -37.3910   -6.6890 C.3    79  VAL79       0.0020
     81  CG2      -32.8460  -36.8120   -4.8240 C.3    79  VAL79       0.0020
     82  N        -33.3240  -39.9440   -7.2580 N.am   80  ASP80      -0.1960
     83  CA       -34.4510  -40.3480   -8.1150 C.3    80  ASP80       0.1840
     84  C        -35.0770  -41.6710   -7.6680 C.2    80  ASP80       0.2621
     85  O        -36.0430  -42.1440   -8.2710 O.2    80  ASP80      -0.2715
     86  CB       -34.0460  -40.3710   -9.6060 C.3    80  ASP80       0.1450
     87  CG       -33.2570  -41.6310  -10.0150 C.2    80  ASP80       0.3671
     88  OD1      -32.5000  -42.2080   -9.2030 O.co2  80  ASP80      -0.2456
     89  OD2      -33.3830  -42.0340  -11.1890 O.co2  80  ASP80      -0.2456
     90  N        -34.4900  -42.2540   -6.6170 N.am   81  GLN81      -0.1977
     91  CA       -35.0100  -43.4150   -5.8740 C.3    81  GLN81       0.1601
     92  C        -34.9220  -44.7570   -6.6010 C.2    81  GLN81       0.2287
     93  O        -35.6340  -45.7060   -6.2540 O.2    81  GLN81      -0.2864
     94  CB       -36.4120  -43.1450   -5.2980 C.3    81  GLN81       0.0394
     95  CG       -36.4320  -42.0450   -4.2480 C.3    81  GLN81       0.0908
     96  CD       -37.3810  -42.3430   -3.1090 C.2    81  GLN81       0.2608
     97  OE1      -38.5980  -42.3730   -3.2940 O.2    81  GLN81      -0.2717
     98  NE2      -36.8260  -42.5660   -1.9160 N.am   81  GLN81      -0.0878
@<TRIPOS>BOND
     1    56    55    2
     2    53    54    1
     3    89    87   ar
     4    48    47    2
     5    55    54    1
     6    47    46    1
     7    54    57    1
     8    87    86    1
     9    87    88   ar
    10    45    46    1
    11    86    83    1
    12    57    58    1
    13    46    49    1
    14    60    58   ar
    15    60    62   ar
    16    58    59   ar
    17    39    38    2
    18    85    84    2
    19    62    61   ar
    20    83    84    1
    21    83    82    1
    22    49    51    1
    23    49    50    1
    24    38    37    1
    25    59    61   ar
    26    30    29    2
    27    84    90   am
    28    34    33   ar
    29    27    28    1
    30    82    77   am
    31    29    28    1
    32    29    36   am
    33    50    52    1
    34    28    31    1
    35    80    79    1
    36    90    91    1
    37    92    93    2
    38    92    91    1
    39    37    36    1
    40    37    40    1
    41    33    35   ar
    42    33    32    1
    43    77    78    2
    44    77    76    1
    45    31    32    1
    46    91    94    1
    47    40    41    1
    48     4     3    2
    49    75    76    1
    50     9     7   ar
    51     9    10   ar
    52     7     6   ar
    53    94    95    1
    54    79    76    1
    55    79    81    1
    56     2     3    1
    57     2     1    1
    58     2     5    1
    59     3    15   am
    60    10    12   ar
    61    10     8   ar
    62    18    17    2
    63     6     5    1
    64     6     8   ar
    65    12    14   ar
    66    95    96    1
    67    41    42    1
    68    17    16    1
    69     8    11   ar
    70    15    16    1
    71    65    66    2
    72    65    64    1
    73    42    43    2
    74    42    44   am
    75    14    13   ar
    76    97    96    2
    77    16    19    1
    78    96    98   am
    79    11    13   ar
    80    64    63    1
    81    64    67    1
    82    19    20    1
    83    70    72   ar
    84    70    68   ar
    85    67    68    1
    86    20    21   ar
    87    20    22   ar
    88    72    73   ar
    89    21    23   ar
    90    22    24   ar
    91    68    69   ar
    92    23    25   ar
    93    24    25   ar
    94    25    26    1
    95    73    74    1
    96    73    71   ar
    97    69    71   ar
