@<TRIPOS>MOLECULE
tmp/5k8zB00.pdb
 103 100 0 0 0
SMALL
GASTEIGER

@<TRIPOS>ATOM
      1  N         47.7840  -82.0160  163.7980 N.3     4  TYR4       -0.1241
      2  CA        46.7700  -82.0370  164.8420 C.3     4  TYR4        0.1605
      3  C         47.4210  -82.3240  166.1850 C.2     4  TYR4        0.2264
      4  O         48.3240  -83.1590  166.2810 O.2     4  TYR4       -0.2867
      5  CB        45.7050  -83.0940  164.5600 C.3     4  TYR4        0.0534
      6  CG        44.9140  -82.8500  163.3030 C.ar    4  TYR4       -0.0201
      7  CD1       45.3700  -83.3060  162.0750 C.ar    4  TYR4       -0.0009
      8  CD2       43.7100  -82.1670  163.3420 C.ar    4  TYR4       -0.0009
      9  CE1       44.6450  -83.0910  160.9210 C.ar    4  TYR4        0.0417
     10  CE2       42.9780  -81.9450  162.1910 C.ar    4  TYR4        0.0417
     11  CZ        43.4500  -82.4080  160.9860 C.ar    4  TYR4        0.1957
     12  OH        42.7200  -82.1830  159.8380 O.3     4  TYR4       -0.2866
     13  N         46.4690  -83.3510  170.3050 N.3     6  PHE6       -0.1241
     14  CA        45.4860  -83.9240  171.2220 C.3     6  PHE6        0.1605
     15  C         45.9820  -83.6700  172.6370 C.2     6  PHE6        0.2264
     16  O         47.0060  -84.2290  173.0460 O.2     6  PHE6       -0.2867
     17  CB        45.3130  -85.4210  170.9770 C.3     6  PHE6        0.0534
     18  CG        44.7990  -85.7600  169.6080 C.ar    6  PHE6       -0.0203
     19  CD1       45.6280  -85.6890  168.5010 C.ar    6  PHE6       -0.0042
     20  CD2       43.4940  -86.1760  169.4370 C.ar    6  PHE6       -0.0042
     21  CE1       45.1590  -86.0150  167.2430 C.ar    6  PHE6       -0.0003
     22  CE2       43.0130  -86.5000  168.1810 C.ar    6  PHE6       -0.0003
     23  CZ        43.8500  -86.4230  167.0800 C.ar    6  PHE6       -0.0000
     24  N         35.7440  -83.3470  173.9380 N.3    14  TRP14      -0.1241
     25  CA        35.4490  -84.7410  174.2360 C.3    14  TRP14       0.1605
     26  C         35.6930  -85.0180  175.7100 C.2    14  TRP14       0.2264
     27  O         36.7280  -84.6240  176.2580 O.2    14  TRP14      -0.2867
     28  CB        36.3140  -85.6710  173.3810 C.3    14  TRP14       0.0550
     29  CG        36.0580  -85.5220  171.9190 C.ar   14  TRP14       0.0003
     30  CD1       36.6690  -84.6550  171.0660 C.ar   14  TRP14       0.0946
     31  CD2       35.1080  -86.2550  171.1370 C.ar   14  TRP14       0.0152
     32  NE1       36.1620  -84.8030  169.7960 N.ar   14  TRP14      -0.2442
     33  CE2       35.2030  -85.7810  169.8130 C.ar   14  TRP14       0.0810
     34  CE3       34.1890  -87.2680  171.4280 C.ar   14  TRP14       0.0012
     35  CZ2       34.4110  -86.2820  168.7810 C.ar   14  TRP14       0.0191
     36  CZ3       33.4050  -87.7670  170.3990 C.ar   14  TRP14       0.0001
     37  CH2       33.5210  -87.2710  169.0950 C.ar   14  TRP14       0.0015
     38  N         41.1590  -81.1670  170.9620 N.3    35  ILE35      -0.1245
     39  CA        41.7040  -81.4950  169.6450 C.3    35  ILE35       0.1561
     40  C         41.8520  -80.2050  168.8490 C.2    35  ILE35       0.2260
     41  O         40.8750  -79.4720  168.6460 O.2    35  ILE35      -0.2867
     42  CB        40.8180  -82.5040  168.9010 C.3    35  ILE35       0.0252
     43  CG1       40.7070  -83.7970  169.7110 C.3    35  ILE35       0.0019
     44  CG2       41.3880  -82.7870  167.5170 C.3    35  ILE35       0.0019
     45  CD1       39.8900  -84.8950  169.0530 C.3    35  ILE35       0.0001
     46  N         33.4580  -87.3620  159.0430 N.3    76  LEU76      -0.1231
     47  CA        33.5950  -87.0500  160.4540 C.3    76  LEU76       0.1693
     48  C         32.4740  -86.1170  160.8990 C.2    76  LEU76       0.2592
     49  O         31.8580  -85.4110  160.0960 O.2    76  LEU76      -0.2718
     50  CB        34.9500  -86.4000  160.7340 C.3    76  LEU76       0.0284
     51  CG        36.1780  -87.2670  160.4390 C.3    76  LEU76       0.0019
     52  CD1       37.4660  -86.4600  160.5640 C.3    76  LEU76       0.0001
     53  CD2       36.2260  -88.4800  161.3620 C.3    76  LEU76       0.0001
     54  N         32.2000  -86.1400  162.2020 N.am   77  ASN77      -0.1974
     55  CA        31.2720  -85.2060  162.8330 C.3    77  ASN77       0.1688
     56  C         29.8260  -85.4390  162.4070 C.2    77  ASN77       0.2292
     57  O         29.0300  -84.4980  162.3600 O.2    77  ASN77      -0.2864
     58  CB        31.6760  -83.7590  162.5470 C.3    77  ASN77       0.1181
     59  CG        33.1280  -83.4920  162.8750 C.2    77  ASN77       0.2629
     60  OD1       33.5850  -83.7700  163.9840 O.2    77  ASN77      -0.2716
     61  ND2       33.8690  -82.9740  161.9040 N.am   77  ASN77      -0.0877
     62  N         40.2060  -91.6970  161.2020 N.3   127  ARG127     -0.1245
     63  CA        41.2600  -90.7920  160.7560 C.3   127  ARG127      0.1563
     64  C         42.5980  -91.3570  161.2120 C.2   127  ARG127      0.2260
     65  O         42.7450  -91.7290  162.3790 O.2   127  ARG127     -0.2867
     66  CB        41.0600  -89.3790  161.3170 C.3   127  ARG127      0.0307
     67  CG        41.9920  -88.3250  160.7280 C.3   127  ARG127      0.0489
     68  CD        41.5920  -87.9840  159.3000 C.3   127  ARG127      0.2205
     69  NE        42.4910  -87.0170  158.6720 N.pl3 127  ARG127     -0.0865
     70  CZ        42.4030  -85.6980  158.8200 C.cat 127  ARG127      0.5346
     71  NH1       41.4590  -85.1680  159.5890 N.pl3 127  ARG127      0.1354
     72  NH2       43.2660  -84.9060  158.2000 N.pl3 127  ARG127      0.1354
     73  N         46.6440  -90.5940  161.6460 N.3   129  LEU129     -0.1245
     74  CA        47.7250  -89.6230  161.7210 C.3   129  LEU129      0.1561
     75  C         49.0430  -90.3310  162.0090 C.2   129  LEU129      0.2260
     76  O         49.0880  -91.3410  162.7200 O.2   129  LEU129     -0.2867
     77  CB        47.4530  -88.5690  162.8060 C.3   129  LEU129      0.0270
     78  CG        46.1760  -87.7420  162.6450 C.3   129  LEU129      0.0019
     79  CD1       45.9720  -86.8460  163.8560 C.3   129  LEU129      0.0001
     80  CD2       46.1980  -86.9080  161.3730 C.3   129  LEU129      0.0001
     81  N         42.0320  -92.6750  165.1240 N.3   143  TRP143     -0.1241
     82  CA        40.8260  -92.0430  165.6280 C.3   143  TRP143      0.1605
     83  C         39.6260  -92.7250  165.0020 C.2   143  TRP143      0.2264
     84  O         39.6210  -92.9880  163.7970 O.2   143  TRP143     -0.2867
     85  CB        40.8240  -90.5480  165.2960 C.3   143  TRP143      0.0550
     86  CG        39.5620  -89.8480  165.6400 C.ar  143  TRP143      0.0003
     87  CD1       38.4800  -89.6670  164.8330 C.ar  143  TRP143      0.0946
     88  CD2       39.2450  -89.2240  166.8860 C.ar  143  TRP143      0.0152
     89  NE1       37.5060  -88.9670  165.4990 N.ar  143  TRP143     -0.2442
     90  CE2       37.9480  -88.6870  166.7660 C.ar  143  TRP143      0.0810
     91  CE3       39.9290  -89.0690  168.0950 C.ar  143  TRP143      0.0012
     92  CZ2       37.3260  -88.0010  167.8030 C.ar  143  TRP143      0.0191
     93  CZ3       39.3090  -88.3910  169.1230 C.ar  143  TRP143      0.0001
     94  CH2       38.0210  -87.8660  168.9720 C.ar  143  TRP143      0.0015
     95  N         35.1120  -92.8380  165.3860 N.3   145  GLU145     -0.1245
     96  CA        33.9090  -92.2990  165.9970 C.3   145  GLU145      0.1567
     97  C         32.6910  -92.9740  165.3820 C.2   145  GLU145      0.2260
     98  O         32.6960  -93.3590  164.2080 O.2   145  GLU145     -0.2867
     99  CB        33.8410  -90.7700  165.8490 C.3   145  GLU145      0.0388
    100  CG        33.9070  -90.2530  164.4320 C.3   145  GLU145      0.1160
    101  CD        33.9240  -88.7330  164.3630 C.2   145  GLU145      0.3649
    102  OE1       34.9080  -88.1110  164.8120 O.co2 145  GLU145     -0.2457
    103  OE2       32.9440  -88.1560  163.8570 O.co2 145  GLU145     -0.2457
@<TRIPOS>BOND
     1    72    70    1
     2    69    70    2
     3    69    68    1
     4    70    71    1
     5    46    47    1
     6    68    67    1
     7    12    11    1
     8    49    48    2
     9    51    52    1
    10    51    50    1
    11    51    53    1
    12    47    50    1
    13    47    48    1
    14    67    66    1
    15    63    62    1
    16    63    64    1
    17    63    66    1
    18    48    54   am
    19     9    11   ar
    20     9     7   ar
    21    11    10   ar
    22    64    65    2
    23    80    78    1
    24    73    74    1
    25    74    75    1
    26    74    77    1
    27    61    59   am
    28    75    76    2
    29     7     6   ar
    30    10     8   ar
    31    54    55    1
    32    57    56    2
    33    56    55    1
    34    58    55    1
    35    58    59    1
    36    78    77    1
    37    78    79    1
    38    59    60    2
    39     6     8   ar
    40     6     5    1
    41    84    83    2
    42     1     2    1
    43   103   101   ar
    44    98    97    2
    45   101   100    1
    46   101   102   ar
    47   100    99    1
    48     5     2    1
    49    87    89   ar
    50    87    86   ar
    51     2     3    1
    52    83    82    1
    53    81    82    1
    54    85    82    1
    55    85    86    1
    56    97    96    1
    57    95    96    1
    58    89    90   ar
    59    86    88   ar
    60    99    96    1
    61     3     4    2
    62    90    88   ar
    63    90    92   ar
    64    88    91   ar
    65    23    21   ar
    66    23    22   ar
    67    21    19   ar
    68    44    42    1
    69    92    94   ar
    70    91    93   ar
    71    22    20   ar
    72    19    18   ar
    73    41    40    2
    74    35    37   ar
    75    35    33   ar
    76    40    39    1
    77    42    39    1
    78    42    43    1
    79    94    93   ar
    80    45    43    1
    81    37    36   ar
    82    20    18   ar
    83    18    17    1
    84    39    38    1
    85    32    33   ar
    86    32    30   ar
    87    33    31   ar
    88    13    14    1
    89    36    34   ar
    90    17    14    1
    91    30    29   ar
    92    31    34   ar
    93    31    29   ar
    94    14    15    1
    95    29    28    1
    96    15    16    2
    97    28    25    1
    98    24    25    1
    99    25    26    1
   100    26    27    2
