@<TRIPOS>MOLECULE
tmp/5k95B00.pdb
 97 91 0 0 0
SMALL
GASTEIGER

@<TRIPOS>ATOM
      1  N         51.0570   45.0710    4.8220 N.3   135  CYS135     -0.1235
      2  CA        51.3300   43.6360    4.9820 C.3   135  CYS135      0.1677
      3  C         52.8040   43.3690    5.3020 C.2   135  CYS135      0.2270
      4  O         53.6900   43.8130    4.5580 O.2   135  CYS135     -0.2867
      5  CB        50.9280   42.8410    3.7340 C.3   135  CYS135      0.0956
      6  SG        50.9920   41.0450    3.9730 S.3   135  CYS135     -0.0801
      7  N         54.3010   40.9290    2.5050 N.3   137  SER137     -0.1217
      8  CA        54.6990   41.7020    1.3270 C.3   137  SER137      0.1889
      9  C         55.9920   42.4980    1.5760 C.2   137  SER137      0.2288
     10  O         56.8660   42.5420    0.7090 O.2   137  SER137     -0.2866
     11  CB        53.5490   42.6600    0.9210 C.3   137  SER137      0.2089
     12  OG        53.8060   43.3750   -0.2820 O.3   137  SER137     -0.2183
     13  N         59.1510   39.7630    1.8300 N.3   140  ILE140     -0.1245
     14  CA        59.5250   39.0350    0.6040 C.3   140  ILE140      0.1561
     15  C         59.9920   39.9250   -0.5590 C.2   140  ILE140      0.2260
     16  O         60.6090   39.4260   -1.4910 O.2   140  ILE140     -0.2867
     17  CB        58.3950   38.0710    0.1090 C.3   140  ILE140      0.0252
     18  CG1       57.2770   38.8100   -0.6500 C.3   140  ILE140      0.0019
     19  CG2       57.8250   37.2550    1.2680 C.3   140  ILE140      0.0019
     20  CD1       56.0510   37.9580   -0.9310 C.3   140  ILE140      0.0001
     21  N         52.4600   46.2980    0.0590 N.3   146  HIS146     -0.1241
     22  CA        51.0680   46.6020   -0.1890 C.3   146  HIS146      0.1621
     23  C         50.4190   46.9660    1.1270 C.2   146  HIS146      0.2264
     24  O         50.7190   46.3950    2.1860 O.2   146  HIS146     -0.2867
     25  CB        50.3350   45.5230   -0.9900 C.3   146  HIS146      0.0745
     26  CG        49.7100   44.4260   -0.1610 C.ar  146  HIS146      0.0817
     27  ND1       48.6010   44.6130    0.5700 N.ar  146  HIS146     -0.2268
     28  CD2       50.0590   43.0820   -0.0100 C.ar  146  HIS146      0.1154
     29  CE1       48.2640   43.4580    1.1800 C.ar  146  HIS146      0.1986
     30  NE2       49.1540   42.5220    0.8180 N.ar  146  HIS146     -0.2212
     31  N         49.3900   42.0700   10.1360 N.3   201  PHE201     -0.1227
     32  CA        48.3350   41.2270    9.6490 C.3   201  PHE201      0.1736
     33  C         47.0350   41.5900   10.3240 C.2   201  PHE201      0.2595
     34  O         47.0140   42.1570   11.3900 O.2   201  PHE201     -0.2718
     35  CB        48.6390   39.7500    9.9350 C.3   201  PHE201      0.0547
     36  CG        49.6280   39.1260    8.9930 C.ar  201  PHE201     -0.0202
     37  CD1       49.7050   39.5060    7.6640 C.ar  201  PHE201     -0.0042
     38  CD2       50.4400   38.1170    9.4290 C.ar  201  PHE201     -0.0042
     39  CE1       50.6120   38.9000    6.8050 C.ar  201  PHE201     -0.0003
     40  CE2       51.3390   37.5090    8.5760 C.ar  201  PHE201     -0.0003
     41  CZ        51.4250   37.8940    7.2600 C.ar  201  PHE201     -0.0000
     42  N         45.9360   41.2420    9.6910 N.am  202  VAL202     -0.1966
     43  CA        44.6430   41.4140   10.3090 C.3   202  VAL202      0.1727
     44  C         44.6170   40.7270   11.7090 C.2   202  VAL202      0.2616
     45  O         44.0010   41.2380   12.6590 O.2   202  VAL202     -0.2715
     46  CB        43.5740   40.8570    9.3760 C.3   202  VAL202      0.0290
     47  CG1       43.6830   39.3450    9.3130 C.3   202  VAL202      0.0023
     48  CG2       42.2130   41.2750    9.8610 C.3   202  VAL202      0.0023
     49  N         45.3150   39.5900   11.8180 N.am  203  GLU203     -0.1977
     50  CA        45.4670   38.8310   13.0590 C.3   203  GLU203      0.1602
     51  C         46.1390   39.6850   14.1470 C.2   203  GLU203      0.2287
     52  O         45.6860   39.7470   15.3030 O.2   203  GLU203     -0.2864
     53  CB        46.3440   37.6010   12.8100 C.3   203  GLU203      0.0415
     54  CG        45.7230   36.5020   11.9540 C.3   203  GLU203      0.1163
     55  CD        46.0120   36.5980   10.4560 C.2   203  GLU203      0.3649
     56  OE1       46.2870   37.7000    9.9300 O.co2 203  GLU203     -0.2457
     57  OE2       45.9370   35.5490    9.7830 O.co2 203  GLU203     -0.2457
     58  N         40.4110   44.1440    6.2730 N.3   228  ASN228     -0.1240
     59  CA        41.3800   44.8420    5.4620 C.3   228  ASN228      0.1653
     60  C         41.0510   44.7260    3.9740 C.2   228  ASN228      0.2266
     61  O         41.0290   43.6250    3.4280 O.2   228  ASN228     -0.2867
     62  CB        42.7800   44.3290    5.7660 C.3   228  ASN228      0.1155
     63  CG        43.1570   44.5170    7.2220 C.2   228  ASN228      0.2627
     64  OD1       44.2140   44.0740    7.6520 O.2   228  ASN228     -0.2716
     65  ND2       42.2900   45.1460    7.9920 N.am  228  ASN228     -0.0877
     66  N         42.2320   44.4910    1.1660 N.3   230  GLU230     -0.1245
     67  CA        43.4620   44.1570    0.4620 C.3   230  GLU230      0.1567
     68  C         43.5470   44.8620   -0.8760 C.2   230  GLU230      0.2260
     69  O         42.6250   44.7860   -1.6950 O.2   230  GLU230     -0.2867
     70  CB        43.5520   42.6530    0.2240 C.3   230  GLU230      0.0388
     71  CG        43.4310   41.7910    1.4710 C.3   230  GLU230      0.1160
     72  CD        44.5320   42.0770    2.4530 C.2   230  GLU230      0.3649
     73  OE1       44.5360   43.1890    3.0040 O.co2 230  GLU230     -0.2457
     74  OE2       45.3890   41.2010    2.6700 O.co2 230  GLU230     -0.2457
     75  N         45.8130   44.2360   -3.0810 N.3   232  ILE232     -0.1231
     76  CA        46.2110   43.2180   -4.0830 C.3   232  ILE232      0.1692
     77  C         45.1180   42.1670   -4.4260 C.2   232  ILE232      0.2592
     78  O         45.2930   41.3510   -5.3460 O.2   232  ILE232     -0.2718
     79  CB        47.4910   42.4820   -3.6480 C.3   232  ILE232      0.0266
     80  CG1       47.2260   41.5140   -2.4810 C.3   232  ILE232      0.0019
     81  CG2       48.5680   43.4770   -3.2560 C.3   232  ILE232      0.0020
     82  CD1       48.4490   40.7060   -2.0850 C.3   232  ILE232      0.0001
     83  N         44.0130   42.1720   -3.6790 N.am  233  HIS233     -0.1976
     84  CA        42.8600   41.3250   -3.9950 C.3   233  HIS233      0.1656
     85  C         41.6350   42.1710   -4.2190 C.2   233  HIS233      0.2291
     86  O         41.6590   43.3880   -3.9730 O.2   233  HIS233     -0.2864
     87  CB        42.5920   40.3460   -2.8680 C.3   233  HIS233      0.0771
     88  CG        43.7840   39.5040   -2.4840 C.ar  233  HIS233      0.0820
     89  ND1       44.3860   38.6660   -3.3500 N.ar  233  HIS233     -0.2267
     90  CD2       44.4730   39.3780   -1.2640 C.ar  233  HIS233      0.1154
     91  CE1       45.4140   38.0340   -2.7240 C.ar  233  HIS233      0.1986
     92  NE2       45.4660   38.4710   -1.4500 N.ar  233  HIS233     -0.2212
     93  N         40.6180   40.5910    3.8290 N.3   237  ALA237     -0.1245
     94  CA        41.0100   39.7440    4.9340 C.3   237  ALA237      0.1562
     95  C         40.2030   40.1730    6.1860 C.2   237  ALA237      0.2260
     96  O         39.8670   41.3360    6.3780 O.2   237  ALA237     -0.2867
     97  CB        42.4960   39.8840    5.1720 C.3   237  ALA237      0.0290
@<TRIPOS>BOND
     1    78    77    2
     2    77    76    1
     3    77    83   am
     4    85    84    1
     5    85    86    2
     6    76    79    1
     7    76    75    1
     8    84    83    1
     9    84    87    1
    10    79    81    1
    11    79    80    1
    12    89    91   ar
    13    89    88   ar
    14    87    88    1
    15    91    92   ar
    16    88    90   ar
    17    80    82    1
    18    69    68    2
    19    16    15    2
    20    92    90   ar
    21    25    22    1
    22    25    26    1
    23    20    18    1
    24    68    67    1
    25    18    17    1
    26    15    14    1
    27    12    11    1
    28    22    21    1
    29    22    23    1
    30    26    28   ar
    31    26    27   ar
    32    28    30   ar
    33    17    14    1
    34    17    19    1
    35    70    67    1
    36    70    71    1
    37    67    66    1
    38    27    29   ar
    39    14    13    1
    40    10     9    2
    41    30    29   ar
    42    11     8    1
    43    23    24    2
    44     8     9    1
    45     8     7    1
    46    71    72    1
    47    72    74   ar
    48    72    73   ar
    49    61    60    2
    50     5     6    1
    51     5     2    1
    52    93    94    1
    53    60    59    1
    54     4     3    2
    55     1     2    1
    56    94    97    1
    57    94    95    1
    58     2     3    1
    59    59    62    1
    60    59    58    1
    61    62    63    1
    62    95    96    2
    63    39    41   ar
    64    39    37   ar
    65    63    64    2
    66    63    65   am
    67    41    40   ar
    68    37    36   ar
    69    40    38   ar
    70    36    38   ar
    71    36    35    1
    72    47    46    1
    73    46    48    1
    74    46    43    1
    75    32    35    1
    76    32    31    1
    77    32    33    1
    78    42    43    1
    79    42    33   am
    80    57    55   ar
    81    56    55   ar
    82    43    44    1
    83    33    34    2
    84    55    54    1
    85    44    49   am
    86    44    45    2
    87    49    50    1
    88    54    53    1
    89    53    50    1
    90    50    51    1
    91    51    52    2
