@<TRIPOS>MOLECULE
tmp/5k99C00.pdb
 157 151 0 0 0
SMALL
GASTEIGER

@<TRIPOS>ATOM
      1  N        -16.6450   21.6650   10.8560 N.3    19  SER19      -0.1217
      2  CA       -16.7520   21.1220   12.2060 C.3    19  SER19       0.1889
      3  C        -16.3370   19.6500   12.2800 C.2    19  SER19       0.2288
      4  O        -16.6160   18.8580   11.3580 O.2    19  SER19      -0.2866
      5  CB       -18.1760   21.2320   12.7180 C.3    19  SER19       0.2089
      6  OG       -18.5520   22.6030   12.7690 O.3    19  SER19      -0.2183
      7  N        -19.8550   13.8860   17.6810 N.3    25  SER25      -0.1217
      8  CA       -21.1360   13.1570   17.6870 C.3    25  SER25       0.1889
      9  C        -20.9310   11.7810   17.0720 C.2    25  SER25       0.2288
     10  O        -21.4530   11.4630   15.9910 O.2    25  SER25      -0.2866
     11  CB       -22.2270   13.9270   16.9400 C.3    25  SER25       0.2089
     12  OG       -22.5900   15.0880   17.6480 O.3    25  SER25      -0.2183
     13  N        -20.7670   17.2930    7.7520 N.3    82  ILE82      -0.1231
     14  CA       -21.5220   18.3770    8.3680 C.3    82  ILE82       0.1692
     15  C        -20.8890   19.6630    7.8690 C.2    82  ILE82       0.2593
     16  O        -19.7990   19.6310    7.3000 O.2    82  ILE82      -0.2718
     17  CB       -21.4730   18.2870    9.9030 C.3    82  ILE82       0.0266
     18  CG1      -22.5400   19.1630   10.5620 C.3    82  ILE82       0.0019
     19  CG2      -20.0960   18.6650   10.3840 C.3    82  ILE82       0.0020
     20  CD1      -22.9440   18.6210   11.9160 C.3    82  ILE82       0.0001
     21  N        -21.5500   20.7850    8.1130 N.am   83  GLY83      -0.1942
     22  CA       -20.9680   22.0860    7.8590 C.3    83  GLY83       0.2014
     23  C        -20.1950   22.6440    9.0460 C.2    83  GLY83       0.2639
     24  O        -19.2850   22.0000    9.5650 O.2    83  GLY83      -0.2714
     25  N        -20.5750   23.8260    9.4880 N.am   84  GLY84      -0.1954
     26  CA       -19.8270   24.6090   10.4500 C.3    84  GLY84       0.1869
     27  C        -19.7620   26.0470    9.9580 C.2    84  GLY84       0.2309
     28  O        -20.7970   26.6790    9.7180 O.2    84  GLY84      -0.2863
     29  N        -24.8730   20.5310    2.4730 N.3   107  TYR107     -0.1227
     30  CA       -25.6770   21.7440    2.6430 C.3   107  TYR107      0.1736
     31  C        -25.0720   22.6520    3.7030 C.2   107  TYR107      0.2596
     32  O        -23.9460   22.4500    4.1600 O.2   107  TYR107     -0.2718
     33  CB       -27.1540   21.4210    2.9280 C.3   107  TYR107      0.0548
     34  CG       -27.5130   20.8990    4.2940 C.ar  107  TYR107     -0.0200
     35  CD1      -27.3220   19.5650    4.6330 C.ar  107  TYR107     -0.0009
     36  CD2      -28.0740   21.7390    5.2370 C.ar  107  TYR107     -0.0009
     37  CE1      -27.6650   19.0950    5.8930 C.ar  107  TYR107      0.0417
     38  CE2      -28.4480   21.2830    6.4760 C.ar  107  TYR107      0.0417
     39  CZ       -28.2070   19.9660    6.8170 C.ar  107  TYR107      0.1957
     40  OH       -28.5820   19.5440    8.0850 O.3   107  TYR107     -0.2866
     41  N        -25.7780   23.7280    4.0240 N.am  108  SER108     -0.1938
     42  CA       -25.3540   24.6730    5.0660 C.3   108  SER108      0.2055
     43  C        -23.9660   25.2220    4.7170 C.2   108  SER108      0.2643
     44  O        -23.7700   25.6840    3.5870 O.2   108  SER108     -0.2714
     45  CB       -25.4680   24.0200    6.4440 C.3   108  SER108      0.2130
     46  OG       -25.1630   24.9350    7.4900 O.3   108  SER108     -0.2179
     47  N        -22.9910   25.2030    5.6270 N.am  109  ASP109     -0.1971
     48  CA       -21.6650   25.7550    5.3100 C.3   109  ASP109      0.1709
     49  C        -21.0420   25.1520    4.0490 C.2   109  ASP109      0.2293
     50  O        -20.2120   25.8060    3.4020 O.2   109  ASP109     -0.2864
     51  CB       -20.7240   25.5640    6.4970 C.3   109  ASP109      0.1436
     52  CG       -19.4130   26.2630    6.2870 C.2   109  ASP109      0.3671
     53  OD1      -19.4290   27.5150    6.1550 O.co2 109  ASP109     -0.2456
     54  OD2      -18.3820   25.5660    6.2620 O.co2 109  ASP109     -0.2456
     55  N        -25.9220   15.0250    9.9000 N.3   133  PRO133     -0.2116
     56  CA       -27.2590   15.5950   10.1530 C.3   133  PRO133      0.1372
     57  C        -28.3660   14.8500    9.4330 C.2   133  PRO133      0.2244
     58  O        -29.4520   14.6830    9.9920 O.2   133  PRO133     -0.2868
     59  CB       -27.1420   17.0340    9.6320 C.3   133  PRO133      0.0268
     60  CG       -25.6610   17.3340    9.5910 C.3   133  PRO133      0.0207
     61  CD       -24.9790   16.0200    9.3520 C.3   133  PRO133      0.0892
     62  N        -35.7380   19.9670   18.1590 N.3   173  PHE173     -0.1241
     63  CA       -34.3440   19.8970   18.6030 C.3   173  PHE173      0.1605
     64  C        -34.2010   18.7830   19.6420 C.2   173  PHE173      0.2264
     65  O        -33.9550   19.0070   20.8340 O.2   173  PHE173     -0.2867
     66  CB       -33.9120   21.2570   19.1550 C.3   173  PHE173      0.0534
     67  CG       -32.4100   21.4270   19.2950 C.ar  173  PHE173     -0.0203
     68  CD1      -31.7930   21.3240   20.5310 C.ar  173  PHE173     -0.0042
     69  CD2      -31.6380   21.7120   18.1960 C.ar  173  PHE173     -0.0042
     70  CE1      -30.4150   21.4990   20.6490 C.ar  173  PHE173     -0.0003
     71  CE2      -30.2650   21.8830   18.3070 C.ar  173  PHE173     -0.0003
     72  CZ       -29.6560   21.7670   19.5350 C.ar  173  PHE173     -0.0000
     73  N        -30.6640   13.8360   18.8190 N.3   176  TRP176     -0.1241
     74  CA       -29.4320   14.0420   18.0520 C.3   176  TRP176      0.1605
     75  C        -28.5210   12.8120   18.1230 C.2   176  TRP176      0.2264
     76  O        -28.3360   12.1130   17.1230 O.2   176  TRP176     -0.2867
     77  CB       -28.7180   15.3220   18.5030 C.3   176  TRP176      0.0550
     78  CG       -27.4710   15.5920   17.7100 C.ar  176  TRP176      0.0003
     79  CD1      -26.1860   15.4770   18.1590 C.ar  176  TRP176      0.0946
     80  CD2      -27.3880   15.9610   16.3320 C.ar  176  TRP176      0.0152
     81  NE1      -25.3010   15.7670   17.1450 N.ar  176  TRP176     -0.2442
     82  CE2      -26.0110   16.0760   16.0120 C.ar  176  TRP176      0.0810
     83  CE3      -28.3360   16.2150   15.3340 C.ar  176  TRP176      0.0012
     84  CZ2      -25.5710   16.4440   14.7390 C.ar  176  TRP176      0.0191
     85  CZ3      -27.8900   16.5880   14.0620 C.ar  176  TRP176      0.0001
     86  CH2      -26.5240   16.6900   13.7820 C.ar  176  TRP176      0.0015
     87  N        -27.2820   28.0340    1.1740 N.3   206  ASN206     -0.1240
     88  CA       -27.3890   28.6250    2.5020 C.3   206  ASN206      0.1653
     89  C        -26.9810   30.0790    2.4230 C.2   206  ASN206      0.2266
     90  O        -25.8420   30.3960    2.0550 O.2   206  ASN206     -0.2867
     91  CB       -26.5170   27.8810    3.5050 C.3   206  ASN206      0.1155
     92  CG       -26.6600   28.4310    4.9210 C.2   206  ASN206      0.2627
     93  OD1      -25.8640   29.2600    5.3730 O.2   206  ASN206     -0.2716
     94  ND2      -27.6550   27.9680    5.6230 N.am  206  ASN206     -0.0877
     95  N        -26.6210   32.5950    4.7580 N.3   208  ASN208     -0.1225
     96  CA       -25.5710   33.0110    5.6830 C.3   208  ASN208      0.1785
     97  C        -24.1990   32.6790    5.1270 C.2   208  ASN208      0.2597
     98  O        -23.2680   33.5000    5.1910 O.2   208  ASN208     -0.2718
     99  CB       -25.7970   32.3330    7.0260 C.3   208  ASN208      0.1169
    100  CG       -25.2860   33.1430    8.1910 C.2   208  ASN208      0.2627
    101  OD1      -25.7430   34.2600    8.4490 O.2   208  ASN208     -0.2716
    102  ND2      -24.3790   32.5470    8.9630 N.am  208  ASN208     -0.0877
    103  N        -24.0630   31.4810    4.5610 N.am  209  THR209     -0.1953
    104  CA       -22.7800   31.0230    4.0510 C.3   209  THR209      0.1897
    105  C        -22.3960   31.7740    2.7760 C.2   209  THR209      0.2313
    106  O        -21.2050   32.0560    2.5400 O.2   209  THR209     -0.2863
    107  CB       -22.8280   29.5040    3.8130 C.3   209  THR209      0.1794
    108  OG1      -23.0840   28.8170    5.0610 O.3   209  THR209     -0.2208
    109  CG2      -21.5290   28.9670    3.2500 C.3   209  THR209      0.0378
    110  N        -31.9750   29.8420    5.3190 N.3   231  ASP231     -0.1225
    111  CA       -31.1960   29.9180    6.5440 C.3   231  ASP231      0.1805
    112  C        -31.8390   29.0130    7.5850 C.2   231  ASP231      0.2598
    113  O        -33.0300   28.7010    7.5140 O.2   231  ASP231     -0.2718
    114  CB       -31.0990   31.3460    7.0620 C.3   231  ASP231      0.1424
    115  CG       -30.0040   32.1460    6.3620 C.2   231  ASP231      0.3668
    116  OD1      -28.8730   31.6140    6.2680 O.co2 231  ASP231     -0.2456
    117  OD2      -30.2650   33.2860    5.9010 O.co2 231  ASP231     -0.2456
    118  N        -31.0300   28.5930    8.5650 N.am  232  SER232     -0.1938
    119  CA       -31.4440   27.6420    9.5810 C.3   232  SER232      0.2055
    120  C        -30.9140   28.0840   10.9380 C.2   232  SER232      0.2644
    121  O        -29.7530   28.4890   11.0420 O.2   232  SER232     -0.2714
    122  CB       -30.8930   26.2390    9.2490 C.3   232  SER232      0.2130
    123  OG       -31.3740   25.7850    7.9930 O.3   232  SER232     -0.2179
    124  N        -31.7640   28.0060   11.9700 N.am  233  SER233     -0.1935
    125  CA       -31.3670   28.2500   13.3660 C.3   233  SER233      0.2055
    126  C        -30.7100   29.6240   13.5320 C.2   233  SER233      0.2642
    127  O        -29.7350   29.7890   14.2800 O.2   233  SER233     -0.2714
    128  CB       -30.4560   27.1340   13.9040 C.3   233  SER233      0.2130
    129  OG       -31.1840   25.9150   14.0310 O.3   233  SER233     -0.2179
    130  N        -31.2660   30.6360   12.8450 N.am  234  LYS234     -0.1977
    131  CA       -30.8890   32.0280   13.0680 C.3   234  LYS234      0.1596
    132  C        -32.0610   32.8150   13.6450 C.2   234  LYS234      0.2287
    133  O        -33.0080   32.2400   14.1940 O.2   234  LYS234     -0.2864
    134  CB       -30.3830   32.6610   11.7630 C.3   234  LYS234      0.0298
    135  CG       -29.2600   31.8910   11.0940 C.3   234  LYS234      0.0038
    136  CD       -28.0210   31.7320   11.9340 C.3   234  LYS234      0.0206
    137  CE       -26.8580   30.9610   11.2350 C.3   234  LYS234      0.1093
    138  NZ       -27.0790   29.5200   11.2410 N.3   234  LYS234     -0.1314
    139  N        -35.4420   26.3480   10.1080 N.3   264  GLU264     -0.1245
    140  CA       -35.3820   25.5350   11.3110 C.3   264  GLU264      0.1567
    141  C        -35.2460   26.3820   12.5620 C.2   264  GLU264      0.2260
    142  O        -34.3470   27.2140   12.6600 O.2   264  GLU264     -0.2867
    143  CB       -34.1730   24.6090   11.2070 C.3   264  GLU264      0.0388
    144  CG       -33.8870   23.8200   12.4770 C.3   264  GLU264      0.1160
    145  CD       -32.5240   23.2120   12.4850 C.2   264  GLU264      0.3649
    146  OE1      -31.5690   23.9370   12.1310 O.co2 264  GLU264     -0.2457
    147  OE2      -32.4230   22.0280   12.8730 O.co2 264  GLU264     -0.2457
    148  N        -32.3560   22.6360    6.7690 N.3   298  HIS298     -0.1241
    149  CA       -32.0370   21.8010    7.9250 C.3   298  HIS298      0.1621
    150  C        -33.2500   21.0850    8.5200 C.2   298  HIS298      0.2264
    151  O        -33.0550   20.1530    9.3150 O.2   298  HIS298     -0.2867
    152  CB       -31.3730   22.6350    9.0190 C.3   298  HIS298      0.0745
    153  CG       -30.6370   21.9040   10.0640 C.ar  298  HIS298      0.0817
    154  ND1      -31.0560   20.6820   10.5690 N.ar  298  HIS298     -0.2268
    155  CD2      -29.4650   22.1300   10.6800 C.ar  298  HIS298      0.1154
    156  CE1      -30.2080   20.2590   11.4530 C.ar  298  HIS298      0.1986
    157  NE2      -29.1890   21.1070   11.5300 N.ar  298  HIS298     -0.2212
@<TRIPOS>BOND
     1    87    88    1
     2    90    89    2
     3    89    88    1
     4    29    30    1
     5    88    91    1
     6   106   105    2
     7    30    33    1
     8    30    31    1
     9   105   104    1
    10    33    34    1
    11   109   107    1
    12    50    49    2
    13    91    92    1
    14    44    43    2
    15    31    41   am
    16    31    32    2
    17   107   104    1
    18   107   108    1
    19    41    42    1
    20    49    48    1
    21   104   103    1
    22    34    35   ar
    23    34    36   ar
    24   103    97   am
    25    35    37   ar
    26    43    42    1
    27    43    47   am
    28    95    96    1
    29    92    93    2
    30    92    94   am
    31    42    45    1
    32    97    98    2
    33    97    96    1
    34    36    38   ar
    35    48    47    1
    36    48    51    1
    37   110   111    1
    38    96    99    1
    39    37    39   ar
    40   117   115   ar
    41    53    52   ar
    42    54    52   ar
    43   116   115   ar
    44    52    51    1
    45   115   114    1
    46    45    46    1
    47    38    39   ar
    48   111   114    1
    49   111   112    1
    50   148   149    1
    51    39    40    1
    52    99   100    1
    53    16    15    2
    54   113   112    2
    55   112   118   am
    56    13    14    1
    57    22    21    1
    58    22    23    1
    59    15    21   am
    60    15    14    1
    61   149   150    1
    62   149   152    1
    63   123   122    1
    64   100   101    2
    65   100   102   am
    66    14    17    1
    67   150   151    2
    68   118   119    1
    69   152   153    1
    70    23    25   am
    71    23    24    2
    72   122   119    1
    73    61    60    1
    74    61    55    1
    75    57    58    2
    76    57    56    1
    77    25    26    1
    78   119   120    1
    79    60    59    1
    80    59    56    1
    81    28    27    2
    82    55    56    1
    83    17    19    1
    84    17    18    1
    85    27    26    1
    86   153   154   ar
    87   153   155   ar
    88   139   140    1
    89    18    20    1
    90   154   156   ar
    91   155   157   ar
    92     1     2    1
    93   120   121    2
    94   120   124   am
    95   135   134    1
    96   135   136    1
    97   143   140    1
    98   143   144    1
    99   137   138    1
   100   137   136    1
   101   140   141    1
   102     4     3    2
   103   156   157   ar
   104   134   131    1
   105   124   125    1
   106   146   145   ar
   107     2     3    1
   108     2     5    1
   109   144   145    1
   110   145   147   ar
   111   141   142    2
   112     5     6    1
   113   130   131    1
   114   130   126   am
   115   131   132    1
   116   125   126    1
   117   125   128    1
   118   126   127    2
   119   132   133    2
   120    86    85   ar
   121    86    84   ar
   122   128   129    1
   123    85    83   ar
   124    84    82   ar
   125    83    80   ar
   126    10     9    2
   127    82    80   ar
   128    82    81   ar
   129    80    78   ar
   130    11    12    1
   131    11     8    1
   132     9     8    1
   133    76    75    2
   134    81    79   ar
   135     7     8    1
   136    78    79   ar
   137    78    77    1
   138    74    75    1
   139    74    77    1
   140    74    73    1
   141    62    63    1
   142    69    71   ar
   143    69    67   ar
   144    71    72   ar
   145    63    66    1
   146    63    64    1
   147    66    67    1
   148    67    68   ar
   149    72    70   ar
   150    64    65    2
   151    68    70   ar
