@<TRIPOS>MOLECULE
tmp/5k9cA02.pdb
 164 157 0 0 0
SMALL
GASTEIGER

@<TRIPOS>ATOM
      1  N         38.9030  -49.1910  112.8140 N.3     9  MET9       -0.1245
      2  CA        39.5740  -47.9560  113.2120 C.3     9  MET9        0.1570
      3  C         40.2030  -47.2120  112.0410 C.2     9  MET9        0.2261
      4  O         40.1100  -45.9720  112.0140 O.2     9  MET9       -0.2867
      5  CB        40.6000  -48.2470  114.3140 C.3     9  MET9        0.0387
      6  CG        40.0020  -48.9300  115.5330 C.3     9  MET9        0.0595
      7  SD        38.7870  -47.9090  116.3880 S.3     9  MET9       -0.1393
      8  CE        39.8640  -46.7520  117.2250 C.3     9  MET9        0.0692
      9  N         37.0460  -45.3130  110.1810 N.3    12  LEU12      -0.1231
     10  CA        36.5720  -44.1390  110.9040 C.3    12  LEU12       0.1693
     11  C         37.6270  -43.0420  110.9170 C.2    12  LEU12       0.2591
     12  O         37.2900  -41.8530  110.9340 O.2    12  LEU12      -0.2718
     13  CB        36.1910  -44.5300  112.3300 C.3    12  LEU12       0.0284
     14  CG        34.9310  -45.3810  112.4880 C.3    12  LEU12       0.0019
     15  CD1       34.8000  -45.7850  113.9380 C.3    12  LEU12       0.0001
     16  CD2       33.6900  -44.6370  112.0680 C.3    12  LEU12       0.0001
     17  N         38.9060  -43.4220  110.8980 N.am   13  GLN13      -0.1979
     18  CA        39.9740  -42.4310  110.8500 C.3    13  GLN13       0.1601
     19  C         39.8440  -41.5280  109.6270 C.2    13  GLN13       0.2287
     20  O         40.1810  -40.3430  109.6940 O.2    13  GLN13      -0.2864
     21  CB        41.3310  -43.1360  110.8650 C.3    13  GLN13       0.0394
     22  CG        42.5130  -42.2000  110.8120 C.3    13  GLN13       0.0908
     23  CD        43.8410  -42.9280  110.7450 C.2    13  GLN13       0.2608
     24  OE1       44.2000  -43.6840  111.6490 O.2    13  GLN13      -0.2717
     25  NE2       44.5800  -42.7040  109.6590 N.am   13  GLN13      -0.0878
     26  N         36.8000  -38.4800  110.1790 N.3    16  LEU16      -0.1245
     27  CA        36.7470  -37.5570  111.2980 C.3    16  LEU16       0.1561
     28  C         38.1120  -36.9410  111.5310 C.2    16  LEU16       0.2260
     29  O         39.1300  -37.6240  111.4160 O.2    16  LEU16      -0.2867
     30  CB        36.3930  -38.3270  112.5800 C.3    16  LEU16       0.0270
     31  CG        35.0280  -38.9890  112.6180 C.3    16  LEU16       0.0019
     32  CD1       35.0000  -40.1000  113.6530 C.3    16  LEU16       0.0001
     33  CD2       34.0100  -37.9380  112.9320 C.3    16  LEU16       0.0001
     34  N         40.8520  -35.6350  114.2680 N.3    18  PRO18      -0.2116
     35  CA        41.1810  -36.3420  115.5140 C.3    18  PRO18       0.1372
     36  C         40.3970  -35.8620  116.7240 C.2    18  PRO18       0.2244
     37  O         40.0060  -36.6770  117.5700 O.2    18  PRO18      -0.2868
     38  CB        42.6840  -36.0960  115.6800 C.3    18  PRO18       0.0268
     39  CG        43.1850  -35.7850  114.3480 C.3    18  PRO18       0.0207
     40  CD        42.0660  -35.1140  113.6090 C.3    18  PRO18       0.0892
     41  N         36.9480  -37.2740  116.5290 N.3    21  ALA21      -0.1231
     42  CA        37.0240  -38.6840  116.8870 C.3    21  ALA21       0.1694
     43  C         37.1090  -38.8490  118.3940 C.2    21  ALA21       0.2592
     44  O         36.4370  -39.7150  118.9730 O.2    21  ALA21      -0.2718
     45  CB        38.2450  -39.3220  116.2230 C.3    21  ALA21       0.0304
     46  N         37.9290  -38.0190  119.0440 N.am   22  HIS22      -0.1976
     47  CA        38.0600  -38.0400  120.4940 C.3    22  HIS22       0.1656
     48  C         36.7170  -37.7870  121.1590 C.2    22  HIS22       0.2291
     49  O         36.2900  -38.5450  122.0380 O.2    22  HIS22      -0.2864
     50  CB        39.0930  -36.9850  120.8920 C.3    22  HIS22       0.0771
     51  CG        39.4120  -36.9480  122.3460 C.ar   22  HIS22       0.0820
     52  ND1       40.2950  -36.0250  122.8800 N.ar   22  HIS22      -0.2267
     53  CD2       39.0070  -37.7280  123.3800 C.ar   22  HIS22       0.1154
     54  CE1       40.4140  -36.2450  124.1800 C.ar   22  HIS22       0.1986
     55  NE2       39.6220  -37.2540  124.5090 N.ar   22  HIS22      -0.2212
     56  N         33.7090  -38.2050  119.9490 N.3    24  LEU24      -0.1231
     57  CA        32.7930  -39.3160  119.7180 C.3    24  LEU24       0.1693
     58  C         33.1840  -40.5270  120.5470 C.2    24  LEU24       0.2591
     59  O         32.3130  -41.2320  121.0800 O.2    24  LEU24      -0.2718
     60  CB        32.7840  -39.6830  118.2360 C.3    24  LEU24       0.0284
     61  CG        32.1530  -38.6520  117.3110 C.3    24  LEU24       0.0019
     62  CD1       32.4400  -39.0350  115.8680 C.3    24  LEU24       0.0001
     63  CD2       30.6620  -38.5540  117.5620 C.3    24  LEU24       0.0001
     64  N         34.4900  -40.7860  120.6670 N.am   25  ALA25      -0.1980
     65  CA        34.9470  -41.9160  121.4600 C.3    25  ALA25       0.1597
     66  C         34.5280  -41.7640  122.9110 C.2    25  ALA25       0.2287
     67  O         34.1210  -42.7380  123.5490 O.2    25  ALA25      -0.2864
     68  CB        36.4640  -42.0500  121.3680 C.3    25  ALA25       0.0319
     69  N         30.7330  -42.4200  123.0380 N.3    28  PHE28      -0.1241
     70  CA        30.4070  -43.8380  122.9160 C.3    28  PHE28       0.1605
     71  C         30.8290  -44.5990  124.1610 C.2    28  PHE28       0.2264
     72  O         30.1180  -45.5030  124.6150 O.2    28  PHE28      -0.2867
     73  CB        31.0780  -44.4560  121.6880 C.3    28  PHE28       0.0534
     74  CG        30.4800  -44.0080  120.3700 C.ar   28  PHE28      -0.0203
     75  CD1       29.2730  -43.3260  120.3230 C.ar   28  PHE28      -0.0042
     76  CD2       31.1380  -44.2670  119.1800 C.ar   28  PHE28      -0.0042
     77  CE1       28.7350  -42.9200  119.1130 C.ar   28  PHE28      -0.0003
     78  CE2       30.6000  -43.8610  117.9650 C.ar   28  PHE28      -0.0003
     79  CZ        29.4020  -43.1890  117.9350 C.ar   28  PHE28      -0.0000
     80  N         42.2380  -38.6480  128.0730 N.3    64  PHE64      -0.1241
     81  CA        41.1700  -39.2650  127.3070 C.3    64  PHE64       0.1605
     82  C         39.8340  -38.7960  127.8430 C.2    64  PHE64       0.2264
     83  O         39.0280  -38.2210  127.1100 O.2    64  PHE64      -0.2867
     84  CB        41.2480  -40.7980  127.3070 C.3    64  PHE64       0.0534
     85  CG        40.0970  -41.4200  126.5940 C.ar   64  PHE64      -0.0203
     86  CD1       40.0530  -41.4350  125.2250 C.ar   64  PHE64      -0.0042
     87  CD2       39.0170  -41.8780  127.2850 C.ar   64  PHE64      -0.0042
     88  CE1       38.9590  -41.9690  124.5510 C.ar   64  PHE64      -0.0003
     89  CE2       37.9110  -42.4210  126.6170 C.ar   64  PHE64      -0.0003
     90  CZ        37.8870  -42.4460  125.2600 C.ar   64  PHE64      -0.0000
     91  N         44.8090  -31.0660  117.7300 N.3   100  VAL100     -0.1245
     92  CA        45.1640  -32.4680  117.8520 C.3   100  VAL100      0.1561
     93  C         45.4150  -32.9860  116.4500 C.2   100  VAL100      0.2260
     94  O         44.6600  -32.6820  115.5150 O.2   100  VAL100     -0.2867
     95  CB        44.0660  -33.3100  118.5350 C.3   100  VAL100      0.0252
     96  CG1       44.6730  -34.6680  118.9230 C.3   100  VAL100      0.0019
     97  CG2       43.4530  -32.5800  119.7100 C.3   100  VAL100      0.0019
     98  N         47.0090  -36.3890  114.0410 N.3   102  ARG102     -0.1245
     99  CA        47.4520  -37.7740  113.9730 C.3   102  ARG102      0.1563
    100  C         48.6540  -37.8970  113.0470 C.2   102  ARG102      0.2260
    101  O         48.7710  -37.1830  112.0400 O.2   102  ARG102     -0.2867
    102  CB        46.3170  -38.7120  113.5490 C.3   102  ARG102      0.0307
    103  CG        45.6420  -38.3650  112.3170 C.3   102  ARG102      0.0489
    104  CD        44.5780  -39.4160  111.9820 C.3   102  ARG102      0.2205
    105  NE        43.3220  -39.3870  112.7460 N.pl3 102  ARG102     -0.0865
    106  CZ        42.1800  -38.8370  112.3190 C.cat 102  ARG102      0.5346
    107  NH1       42.1310  -38.1500  111.1850 N.pl3 102  ARG102      0.1354
    108  NH2       41.0870  -38.9290  113.0420 N.pl3 102  ARG102      0.1354
    109  N         50.5670  -39.2910  117.9440 N.3   109  VAL109     -0.1245
    110  CA        49.6720  -38.1410  117.9740 C.3   109  VAL109      0.1561
    111  C         50.4590  -36.9620  118.5150 C.2   109  VAL109      0.2260
    112  O         51.3770  -37.1240  119.3210 O.2   109  VAL109     -0.2867
    113  CB        48.4370  -38.4460  118.8510 C.3   109  VAL109      0.0252
    114  CG1       47.6200  -37.1860  119.1740 C.3   109  VAL109      0.0019
    115  CG2       47.5480  -39.4530  118.1440 C.3   109  VAL109      0.0019
    116  N         46.0500  -29.4280  123.2580 N.3   113  TYR113     -0.1241
    117  CA        44.7270  -29.0720  123.7660 C.3   113  TYR113      0.1605
    118  C         44.7700  -27.8470  124.6550 C.2   113  TYR113      0.2264
    119  O         43.8860  -26.9920  124.5720 O.2   113  TYR113     -0.2867
    120  CB        44.1300  -30.2350  124.5400 C.3   113  TYR113      0.0534
    121  CG        43.2450  -31.1270  123.7520 C.ar  113  TYR113     -0.0201
    122  CD1       42.0570  -30.6570  123.2360 C.ar  113  TYR113     -0.0009
    123  CD2       43.5430  -32.4620  123.5770 C.ar  113  TYR113     -0.0009
    124  CE1       41.2120  -31.4700  122.5220 C.ar  113  TYR113      0.0417
    125  CE2       42.6920  -33.2930  122.8630 C.ar  113  TYR113      0.0417
    126  CZ        41.5200  -32.7870  122.3600 C.ar  113  TYR113      0.1957
    127  OH        40.6780  -33.5950  121.6590 O.3   113  TYR113     -0.2866
    128  N         47.2130  -44.5930  126.1940 N.3   315  TYR315     -0.1227
    129  CA        46.1770  -43.7560  125.6230 C.3   315  TYR315      0.1736
    130  C         46.2620  -43.8430  124.1050 C.2   315  TYR315      0.2596
    131  O         45.3550  -44.3680  123.4500 O.2   315  TYR315     -0.2718
    132  CB        46.3310  -42.3460  126.1670 C.3   315  TYR315      0.0548
    133  CG        45.3460  -41.2990  125.6800 C.ar  315  TYR315     -0.0200
    134  CD1       44.3680  -41.5840  124.7500 C.ar  315  TYR315     -0.0009
    135  CD2       45.4310  -40.0060  126.1690 C.ar  315  TYR315     -0.0009
    136  CE1       43.5080  -40.5970  124.3010 C.ar  315  TYR315      0.0417
    137  CE2       44.6030  -39.0250  125.7400 C.ar  315  TYR315      0.0417
    138  CZ        43.6280  -39.3060  124.8210 C.ar  315  TYR315      0.1957
    139  OH        42.7800  -38.3030  124.4160 O.3   315  TYR315     -0.2866
    140  N         47.3550  -43.3670  123.5260 N.am  316  THR316     -0.1953
    141  CA        47.3990  -43.2360  122.0800 C.3   316  THR316      0.1897
    142  C         47.0900  -44.5530  121.3760 C.2   316  THR316      0.2313
    143  O         46.3490  -44.5700  120.3810 O.2   316  THR316     -0.2863
    144  CB        48.7490  -42.6570  121.6630 C.3   316  THR316      0.1794
    145  OG1       48.8830  -41.3540  122.2200 O.3   316  THR316     -0.2208
    146  CG2       48.8450  -42.5470  120.1780 C.3   316  THR316      0.0378
    147  N         43.5620  -45.2370  120.7780 N.3   319  THR319     -0.1203
    148  CA        42.9460  -44.4330  119.7460 C.3   319  THR319      0.1994
    149  C         43.2460  -44.9590  118.3570 C.2   319  THR319      0.2617
    150  O         42.4580  -44.7030  117.4450 O.2   319  THR319     -0.2717
    151  CB        43.3470  -42.9560  119.8520 C.3   319  THR319      0.1784
    152  OG1       44.5950  -42.7510  119.2000 O.3   319  THR319     -0.2211
    153  CG2       43.4320  -42.4840  121.2800 C.3   319  THR319      0.0376
    154  N         44.3410  -45.7050  118.1730 N.am  320  PHE320     -0.1975
    155  CA        44.6210  -46.3240  116.8840 C.3   320  PHE320      0.1639
    156  C         43.9930  -47.7060  116.7460 C.2   320  PHE320      0.2290
    157  O         43.4860  -48.0530  115.6690 O.2   320  PHE320     -0.2864
    158  CB        46.1240  -46.4380  116.6540 C.3   320  PHE320      0.0560
    159  CG        46.7580  -45.1660  116.1990 C.ar  320  PHE320     -0.0200
    160  CD1       46.5500  -44.6930  114.9030 C.ar  320  PHE320     -0.0042
    161  CD2       47.5660  -44.4340  117.0430 C.ar  320  PHE320     -0.0042
    162  CE1       47.1360  -43.5380  114.4740 C.ar  320  PHE320     -0.0003
    163  CE2       48.1650  -43.2790  116.6060 C.ar  320  PHE320     -0.0003
    164  CZ        47.9540  -42.8220  115.3260 C.ar  320  PHE320     -0.0000
@<TRIPOS>BOND
     1    19    20    2
     2    19    18    1
     3    25    23   am
     4    26    27    1
     5     9    10    1
     6    23    22    1
     7    23    24    2
     8    22    21    1
     9    18    21    1
    10    18    17    1
    11    17    11   am
    12    10    11    1
    13    10    13    1
    14    11    12    2
    15   107   106    1
    16    27    28    1
    17    27    30    1
    18    29    28    2
    19   104   103    1
    20   104   105    1
    21     4     3    2
    22   101   100    2
    23     3     2    1
    24    16    14    1
    25   103   102    1
    26   106   105    2
    27   106   108    1
    28    13    14    1
    29    14    15    1
    30    30    31    1
    31    31    33    1
    32    31    32    1
    33     1     2    1
    34   100    99    1
    35     2     5    1
    36   102    99    1
    37    40    34    1
    38    40    39    1
    39    99    98    1
    40    34    35    1
    41     5     6    1
    42    39    38    1
    43   162   160   ar
    44   162   164   ar
    45   160   159   ar
    46   164   163   ar
    47    35    38    1
    48    35    36    1
    49    94    93    2
    50     6     7    1
    51   157   156    2
    52    62    61    1
    53   159   158    1
    54   159   161   ar
    55    45    42    1
    56     7     8    1
    57    93    92    1
    58    41    42    1
    59   163   161   ar
    60   158   155    1
    61    36    37    2
    62   156   155    1
    63   155   154    1
    64    42    43    1
    65    61    63    1
    66    61    60    1
    67   150   149    2
    68    91    92    1
    69    92    95    1
    70    79    78   ar
    71    79    77   ar
    72   109   110    1
    73    78    76   ar
    74   110   111    1
    75   110   113    1
    76   115   113    1
    77   154   149   am
    78    60    57    1
    79   149   148    1
    80    43    44    2
    81    43    46   am
    82   111   112    2
    83    95    96    1
    84    95    97    1
    85   113   114    1
    86    46    47    1
    87    77    75   ar
    88    76    74   ar
    89   152   151    1
    90    57    56    1
    91    57    58    1
    92   148   151    1
    93   148   147    1
    94   151   153    1
    95   146   144    1
    96    75    74   ar
    97    74    73    1
    98   143   142    2
    99    47    50    1
   100    47    48    1
   101    58    64   am
   102    58    59    2
   103    64    65    1
   104    50    51    1
   105    48    49    2
   106    68    65    1
   107   142   141    1
   108    65    66    1
   109   127   126    1
   110   144   141    1
   111   144   145    1
   112    73    70    1
   113   141   140    1
   114    51    52   ar
   115    51    53   ar
   116   126   124   ar
   117   126   125   ar
   118   124   122   ar
   119   125   123   ar
   120    52    54   ar
   121    66    67    2
   122    70    69    1
   123    70    71    1
   124   122   121   ar
   125   116   117    1
   126    53    55   ar
   127   131   130    2
   128   140   130   am
   129   123   121   ar
   130   121   120    1
   131   117   120    1
   132   117   118    1
   133   130   129    1
   134    71    72    2
   135    54    55   ar
   136   136   134   ar
   137   136   138   ar
   138   139   138    1
   139    88    86   ar
   140    88    90   ar
   141   119   118    2
   142   134   133   ar
   143   138   137   ar
   144    86    85   ar
   145    90    89   ar
   146   129   132    1
   147   129   128    1
   148   133   132    1
   149   133   135   ar
   150   137   135   ar
   151    85    87   ar
   152    85    84    1
   153    89    87   ar
   154    83    82    2
   155    84    81    1
   156    81    82    1
   157    81    80    1
