@<TRIPOS>MOLECULE
tmp/5k9dA02.pdb
 159 152 0 0 0
SMALL
GASTEIGER

@<TRIPOS>ATOM
      1  N          6.0390  131.6700  236.6950 N.3     1  TYR1       -0.1241
      2  CA         5.6200  130.4160  237.3100 C.3     1  TYR1        0.1605
      3  C          4.2710  129.9590  236.7740 C.2     1  TYR1        0.2264
      4  O          4.1750  128.9400  236.0900 O.2     1  TYR1       -0.2867
      5  CB         5.5120  130.5700  238.8280 C.3     1  TYR1        0.0534
      6  CG         6.8340  130.6290  239.5540 C.ar    1  TYR1       -0.0201
      7  CD1        7.5450  131.8210  239.6520 C.ar    1  TYR1       -0.0009
      8  CD2        7.3660  129.4960  240.1560 C.ar    1  TYR1       -0.0009
      9  CE1        8.7490  131.8810  240.3260 C.ar    1  TYR1        0.0417
     10  CE2        8.5710  129.5440  240.8330 C.ar    1  TYR1        0.0417
     11  CZ         9.2580  130.7390  240.9170 C.ar    1  TYR1        0.1957
     12  OH        10.4580  130.7890  241.5880 O.3     1  TYR1       -0.2866
     13  N          6.0820  126.7540  235.7400 N.3     6  MET6       -0.1245
     14  CA         5.4030  125.4950  236.0400 C.3     6  MET6        0.1570
     15  C          4.9370  124.7470  234.7990 C.2     6  MET6        0.2261
     16  O          5.0160  123.5070  234.7990 O.2     6  MET6       -0.2867
     17  CB         4.2190  125.7450  236.9880 C.3     6  MET6        0.0387
     18  CG         4.5780  126.5040  238.2500 C.3     6  MET6        0.0595
     19  SD         5.9760  125.7850  239.1310 S.3     6  MET6       -0.1393
     20  CE         5.2600  124.2580  239.7520 C.3     6  MET6        0.0692
     21  N          8.0620  122.6580  233.6820 N.3     9  LEU9       -0.1231
     22  CA         8.3500  121.5660  234.6040 C.3     9  LEU9        0.1693
     23  C          7.2040  120.5660  234.6620 C.2     9  LEU9        0.2591
     24  O          7.4300  119.3750  234.9070 O.2     9  LEU9       -0.2718
     25  CB         8.6240  122.1220  235.9980 C.3     9  LEU9        0.0284
     26  CG         9.9370  122.8830  236.1800 C.3     9  LEU9        0.0019
     27  CD1        9.9620  123.4760  237.5700 C.3     9  LEU9        0.0001
     28  CD2       11.1380  121.9900  236.0010 C.3     9  LEU9        0.0001
     29  N          5.9710  121.0260  234.4490 N.am   10  GLN10      -0.1979
     30  CA         4.8340  120.1130  234.4640 C.3    10  GLN10       0.1601
     31  C          4.8150  119.2520  233.2070 C.2    10  GLN10       0.2287
     32  O          4.7640  118.0190  233.2850 O.2    10  GLN10      -0.2864
     33  CB         3.5320  120.9020  234.6080 C.3    10  GLN10       0.0394
     34  CG         3.2900  121.3890  235.9840 C.3    10  GLN10       0.0908
     35  CD         1.9130  122.0390  236.0850 C.2    10  GLN10       0.2608
     36  OE1        1.5640  122.9120  235.2640 O.2    10  GLN10      -0.2717
     37  NE2        1.1050  121.5800  237.0390 N.am   10  GLN10      -0.0878
     38  N          8.0040  116.7050  232.9330 N.3    13  LEU13      -0.1245
     39  CA         8.1640  115.5950  233.8550 C.3    13  LEU13       0.1561
     40  C          6.8100  115.0050  234.2170 C.2    13  LEU13       0.2260
     41  O          5.7960  115.7110  234.2720 O.2    13  LEU13      -0.2867
     42  CB         8.8490  116.0650  235.1370 C.3    13  LEU13       0.0270
     43  CG        10.2640  116.6070  234.9480 C.3    13  LEU13       0.0019
     44  CD1       10.6990  117.3480  236.1920 C.3    13  LEU13       0.0001
     45  CD2       11.2180  115.4720  234.6310 C.3    13  LEU13       0.0001
     46  N          4.2190  113.7510  236.9130 N.3    15  PRO15      -0.2116
     47  CA         3.9410  114.5260  238.1290 C.3    15  PRO15       0.1372
     48  C          4.7060  114.0520  239.3420 C.2    15  PRO15       0.2244
     49  O          5.0530  114.8720  240.1930 O.2    15  PRO15      -0.2868
     50  CB         2.4340  114.3470  238.3450 C.3    15  PRO15       0.0268
     51  CG         1.9230  113.6260  237.1990 C.3    15  PRO15       0.0207
     52  CD         3.0220  113.0690  236.3870 C.3    15  PRO15       0.0892
     53  N          8.1610  115.3740  239.0530 N.3    18  ALA18      -0.1231
     54  CA         8.1320  116.8050  239.2960 C.3    18  ALA18       0.1694
     55  C          8.0260  117.0820  240.7870 C.2    18  ALA18       0.2592
     56  O          8.7060  117.9700  241.3120 O.2    18  ALA18      -0.2718
     57  CB         6.9670  117.4440  238.5430 C.3    18  ALA18       0.0304
     58  N          7.1820  116.3170  241.4850 N.am   19  HIS19      -0.1976
     59  CA         7.0200  116.5150  242.9160 C.3    19  HIS19       0.1656
     60  C          8.3220  116.2250  243.6580 C.2    19  HIS19       0.2291
     61  O          8.7470  116.9930  244.5360 O.2    19  HIS19      -0.2864
     62  CB         5.9170  115.6070  243.4410 C.3    19  HIS19       0.0771
     63  CG         5.8480  115.5850  244.9310 C.ar   19  HIS19       0.0820
     64  ND1        6.1660  114.4700  245.6750 N.ar   19  HIS19      -0.2267
     65  CD2        5.5560  116.5630  245.8140 C.ar   19  HIS19       0.1154
     66  CE1        6.0490  114.7620  246.9580 C.ar   19  HIS19       0.1986
     67  NE2        5.6780  116.0250  247.0660 N.ar   19  HIS19      -0.2212
     68  N         11.3270  116.4800  242.5750 N.3    21  LEU21      -0.1231
     69  CA        12.2550  117.5810  242.3490 C.3    21  LEU21       0.1693
     70  C         11.8270  118.8270  243.1140 C.2    21  LEU21       0.2591
     71  O         12.6700  119.5550  243.6510 O.2    21  LEU21      -0.2718
     72  CB        12.3670  117.8760  240.8560 C.3    21  LEU21       0.0284
     73  CG        13.1880  116.8950  240.0170 C.3    21  LEU21       0.0019
     74  CD1       13.1710  117.3700  238.5890 C.3    21  LEU21       0.0001
     75  CD2       14.6230  116.7630  240.5080 C.3    21  LEU21       0.0001
     76  N         10.5220  119.0900  243.1740 N.am   22  ALA22      -0.1980
     77  CA        10.0410  120.2250  243.9480 C.3    22  ALA22       0.1597
     78  C         10.4050  120.0840  245.4210 C.2    22  ALA22       0.2287
     79  O         10.8010  121.0600  246.0610 O.2    22  ALA22      -0.2864
     80  CB         8.5310  120.3530  243.7930 C.3    22  ALA22       0.0319
     81  N         14.1940  120.7770  245.6790 N.3    25  PHE25      -0.1227
     82  CA        14.4610  122.2030  245.5370 C.3    25  PHE25       0.1736
     83  C         14.0390  122.9520  246.7850 C.2    25  PHE25       0.2596
     84  O         14.7580  123.8330  247.2720 O.2    25  PHE25      -0.2718
     85  CB        13.6910  122.7680  244.3480 C.3    25  PHE25       0.0547
     86  CG        14.5180  122.9800  243.1330 C.ar   25  PHE25      -0.0202
     87  CD1       14.9280  121.9070  242.3610 C.ar   25  PHE25      -0.0042
     88  CD2       14.8670  124.2610  242.7430 C.ar   25  PHE25      -0.0042
     89  CE1       15.6900  122.1060  241.2190 C.ar   25  PHE25      -0.0003
     90  CE2       15.6240  124.4710  241.6100 C.ar   25  PHE25      -0.0003
     91  CZ        16.0380  123.3900  240.8440 C.ar   25  PHE25      -0.0000
     92  N         12.8440  122.6410  247.2940 N.am   26  THR26      -0.1953
     93  CA        12.3490  123.3330  248.4730 C.3    26  THR26       0.1897
     94  C         13.2500  123.0460  249.6580 C.2    26  THR26       0.2313
     95  O         13.6260  123.9590  250.4030 O.2    26  THR26      -0.2863
     96  CB        10.9170  122.8810  248.7650 C.3    26  THR26       0.1794
     97  OG1       10.0840  123.2040  247.6540 O.3    26  THR26      -0.2208
     98  CG2       10.3510  123.5510  250.0100 C.3    26  THR26       0.0378
     99  N         14.4990  128.6520  246.4820 N.3    31  LEU31      -0.1245
    100  CA        13.3730  129.4870  246.1170 C.3    31  LEU31       0.1561
    101  C         13.6330  130.8180  246.7790 C.2    31  LEU31       0.2260
    102  O         14.2380  130.8520  247.8600 O.2    31  LEU31      -0.2867
    103  CB        12.0580  128.8850  246.6310 C.3    31  LEU31       0.0270
    104  CG        11.5750  127.6130  245.9350 C.3    31  LEU31       0.0019
    105  CD1       10.3590  127.0950  246.6660 C.3    31  LEU31       0.0001
    106  CD2       11.2170  127.8590  244.4920 C.3    31  LEU31       0.0001
    107  N          2.5330  116.8650  250.5940 N.3    61  PHE61      -0.1241
    108  CA         3.6070  117.5060  249.8600 C.3    61  PHE61       0.1605
    109  C          4.9440  117.0860  250.4310 C.2    61  PHE61       0.2264
    110  O          5.8450  116.6710  249.6910 O.2    61  PHE61      -0.2867
    111  CB         3.4830  119.0290  249.8500 C.3    61  PHE61       0.0534
    112  CG         4.6000  119.6590  249.1120 C.ar   61  PHE61      -0.0203
    113  CD1        4.6060  119.6690  247.7300 C.ar   61  PHE61      -0.0042
    114  CD2        5.7090  120.1170  249.7800 C.ar   61  PHE61      -0.0042
    115  CE1        5.6690  120.1960  247.0450 C.ar   61  PHE61      -0.0003
    116  CE2        6.7750  120.6570  249.0950 C.ar   61  PHE61      -0.0003
    117  CZ         6.7580  120.6840  247.7340 C.ar   61  PHE61      -0.0000
    118  N          8.8540  129.5560  252.0610 N.3    74  MET74      -0.1245
    119  CA         7.8840  129.8450  251.0130 C.3    74  MET74       0.1570
    120  C          6.7330  130.7050  251.5080 C.2    74  MET74       0.2261
    121  O          5.9590  131.2220  250.6840 O.2    74  MET74      -0.2867
    122  CB         7.3220  128.5180  250.4970 C.3    74  MET74       0.0387
    123  CG         6.9730  128.5040  249.0380 C.3    74  MET74       0.0595
    124  SD         6.4510  126.8540  248.5230 S.3    74  MET74      -0.1393
    125  CE         7.9320  125.9730  248.6460 C.3    74  MET74       0.0692
    126  N         -2.4230  122.3680  248.7400 N.3   319  TYR319     -0.1241
    127  CA        -1.3660  121.5950  248.1080 C.3   319  TYR319      0.1605
    128  C         -1.4770  121.7310  246.5910 C.2   319  TYR319      0.2264
    129  O         -0.5570  122.2430  245.9450 O.2   319  TYR319     -0.2867
    130  CB        -1.4570  120.1490  248.5640 C.3   319  TYR319      0.0534
    131  CG        -0.4430  119.1650  248.0120 C.ar  319  TYR319     -0.0201
    132  CD1        0.4410  119.4940  246.9910 C.ar  319  TYR319     -0.0009
    133  CD2       -0.4100  117.8770  248.4980 C.ar  319  TYR319     -0.0009
    134  CE1        1.3550  118.5370  246.5020 C.ar  319  TYR319      0.0417
    135  CE2        0.4830  116.9390  248.0170 C.ar  319  TYR319      0.0417
    136  CZ         1.3440  117.2660  247.0190 C.ar  319  TYR319      0.1957
    137  OH         2.2290  116.3100  246.5460 O.3   319  TYR319     -0.2866
    138  N         -0.3080  124.7180  244.5980 N.3   322  LEU322     -0.1231
    139  CA         1.1380  124.8600  244.4910 C.3   322  LEU322      0.1693
    140  C          1.6490  124.0890  243.2900 C.2   322  LEU322      0.2592
    141  O          2.5410  124.5560  242.5630 O.2   322  LEU322     -0.2718
    142  CB         1.7680  124.3670  245.8050 C.3   322  LEU322      0.0284
    143  CG         3.2380  124.6120  246.0910 C.3   322  LEU322      0.0019
    144  CD1        3.4450  126.1000  246.2290 C.3   322  LEU322      0.0001
    145  CD2        3.6290  123.8560  247.3530 C.3   322  LEU322      0.0001
    146  N          1.0310  122.9390  243.0050 N.am  323  THR323     -0.1953
    147  CA         1.4660  122.1450  241.8700 C.3   323  THR323      0.1897
    148  C          1.1680  122.8530  240.5650 C.2   323  THR323      0.2313
    149  O          1.9380  122.7280  239.6120 O.2   323  THR323     -0.2863
    150  CB         0.8770  120.7250  241.9200 C.3   323  THR323      0.1794
    151  OG1       -0.4570  120.7410  241.4240 O.3   323  THR323     -0.2208
    152  CG2        0.9350  120.1720  243.3800 C.3   323  THR323      0.0378
    153  N          5.2770  128.3750  243.8950 N.3   327  PRO327     -0.2116
    154  CA         5.4350  129.0530  245.1830 C.3   327  PRO327      0.1372
    155  C          4.7680  130.4180  245.2500 C.2   327  PRO327      0.2244
    156  O          4.3230  130.8170  246.3330 O.2   327  PRO327     -0.2868
    157  CB         6.9560  129.1740  245.3160 C.3   327  PRO327      0.0268
    158  CG         7.4620  127.9770  244.5650 C.3   327  PRO327      0.0207
    159  CD         6.5570  127.8370  243.3960 C.3   327  PRO327      0.0892
@<TRIPOS>BOND
     1    38    39    1
     2    31    32    2
     3    31    30    1
     4    21    22    1
     5    39    40    1
     6    39    42    1
     7    40    41    2
     8    29    30    1
     9    29    23   am
    10    30    33    1
    11    22    23    1
    12    22    25    1
    13    33    34    1
    14    45    43    1
    15    23    24    2
    16    16    15    2
    17    15    14    1
    18    43    42    1
    19    43    44    1
    20    36    35    2
    21    13    14    1
    22    34    35    1
    23    25    26    1
    24    28    26    1
    25    14    17    1
    26    35    37   am
    27     4     3    2
    28    26    27    1
    29    52    46    1
    30    52    51    1
    31     1     2    1
    32     3     2    1
    33    46    47    1
    34    17    18    1
    35    51    50    1
    36     2     5    1
    37    47    50    1
    38    47    48    1
    39    18    19    1
    40    57    54    1
    41    74    73    1
    42     5     6    1
    43    53    54    1
    44    19    20    1
    45    54    55    1
    46    48    49    2
    47     6     7   ar
    48     6     8   ar
    49   149   148    2
    50     7     9   ar
    51    73    75    1
    52    73    72    1
    53     8    10   ar
    54     9    11   ar
    55   148   147    1
    56    55    56    2
    57    55    58   am
    58    10    11   ar
    59    91    89   ar
    60    91    90   ar
    61    72    69    1
    62    11    12    1
    63    89    87   ar
    64   151   150    1
    65    58    59    1
    66    90    88   ar
    67   147   150    1
    68   147   146    1
    69   150   152    1
    70    69    68    1
    71    69    70    1
    72    87    86   ar
    73   141   140    2
    74    88    86   ar
    75    59    62    1
    76    59    60    1
    77   146   140   am
    78    70    76   am
    79    70    71    2
    80    86    85    1
    81    76    77    1
    82   140   139    1
    83   159   153    1
    84   159   158    1
    85    62    63    1
    86    60    61    2
    87    80    77    1
    88   153   154    1
    89    77    78    1
    90    85    82    1
    91   139   138    1
    92   139   142    1
    93   106   104    1
    94   158   157    1
    95    63    64   ar
    96    63    65   ar
    97   154   155    1
    98   154   157    1
    99   155   156    2
   100    78    79    2
   101    82    81    1
   102    82    83    1
   103    64    66   ar
   104   142   143    1
   105    65    67   ar
   106   104   103    1
   107   104   105    1
   108   129   128    2
   109   143   144    1
   110   143   145    1
   111   100    99    1
   112   100   103    1
   113   100   101    1
   114   134   132   ar
   115   134   136   ar
   116   137   136    1
   117   128   127    1
   118   101   102    2
   119    83    84    2
   120    83    92   am
   121    66    67   ar
   122   132   131   ar
   123   136   135   ar
   124   115   113   ar
   125   115   117   ar
   126    92    93    1
   127    97    96    1
   128   113   112   ar
   129   117   116   ar
   130   131   133   ar
   131   131   130    1
   132   135   133   ar
   133   127   130    1
   134   127   126    1
   135    93    96    1
   136    93    94    1
   137   124   125    1
   138   124   123    1
   139    96    98    1
   140   123   122    1
   141   116   114   ar
   142   112   114   ar
   143   112   111    1
   144    94    95    2
   145   110   109    2
   146   111   108    1
   147   108   109    1
   148   108   107    1
   149   122   119    1
   150   121   120    2
   151   119   120    1
   152   119   118    1
