@<TRIPOS>MOLECULE
tmp/5k9gB00.pdb
 91 87 0 0 0
SMALL
GASTEIGER

@<TRIPOS>ATOM
      1  N         51.5180   45.1370    5.0160 N.3   133  CYS133     -0.1235
      2  CA        51.7010   43.6900    5.1030 C.3   133  CYS133      0.1677
      3  C         53.1570   43.2510    5.4190 C.2   133  CYS133      0.2270
      4  O         54.1110   43.5550    4.6600 O.2   133  CYS133     -0.2867
      5  CB        51.1950   42.9700    3.8530 C.3   133  CYS133      0.0956
      6  SG        51.3830   41.1260    3.9490 S.3   133  CYS133     -0.0801
      7  N         54.6520   40.8710    2.5930 N.3   135  SER135     -0.1217
      8  CA        55.0090   41.7110    1.4180 C.3   135  SER135      0.1889
      9  C         56.3820   42.4120    1.5630 C.2   135  SER135      0.2288
     10  O         57.2840   42.3110    0.6640 O.2   135  SER135     -0.2866
     11  CB        53.8850   42.7880    1.2380 C.3   135  SER135      0.2089
     12  OG        54.1700   43.6020    0.0790 O.3   135  SER135     -0.2183
     13  N         52.8410   46.1590    0.1820 N.3   144  HIS144     -0.1241
     14  CA        51.4370   46.5220   -0.1320 C.3   144  HIS144      0.1621
     15  C         50.7420   46.9370    1.1410 C.2   144  HIS144      0.2264
     16  O         51.0330   46.3960    2.2080 O.2   144  HIS144     -0.2867
     17  CB        50.6740   45.4370   -0.8870 C.3   144  HIS144      0.0745
     18  CG        50.1260   44.3260   -0.0400 C.ar  144  HIS144      0.0817
     19  ND1       48.9360   44.4330    0.6750 N.ar  144  HIS144     -0.2268
     20  CD2       50.5450   43.0400    0.1080 C.ar  144  HIS144      0.1154
     21  CE1       48.6720   43.2690    1.2580 C.ar  144  HIS144      0.1986
     22  NE2       49.6420   42.4170    0.9420 N.ar  144  HIS144     -0.2212
     23  N         49.9190   42.0530   10.2500 N.3   199  PHE199     -0.1227
     24  CA        48.8000   41.2230    9.7000 C.3   199  PHE199      0.1736
     25  C         47.4990   41.6040   10.3820 C.2   199  PHE199      0.2595
     26  O         47.4980   42.1970   11.5090 O.2   199  PHE199     -0.2718
     27  CB        49.0900   39.7280    9.9830 C.3   199  PHE199      0.0547
     28  CG        50.2600   39.1850    9.2100 C.ar  199  PHE199     -0.0202
     29  CD1       50.2490   39.1640    7.8100 C.ar  199  PHE199     -0.0042
     30  CD2       51.3710   38.6730    9.8960 C.ar  199  PHE199     -0.0042
     31  CE1       51.3450   38.6530    7.0820 C.ar  199  PHE199     -0.0003
     32  CE2       52.4610   38.1690    9.2030 C.ar  199  PHE199     -0.0003
     33  CZ        52.4650   38.1530    7.7910 C.ar  199  PHE199     -0.0000
     34  N         46.3710   41.1500    9.7990 N.am  200  VAL200     -0.1966
     35  CA        45.0500   41.3950   10.3810 C.3   200  VAL200      0.1727
     36  C         45.0310   40.6790   11.7540 C.2   200  VAL200      0.2616
     37  O         44.4080   41.1650   12.6930 O.2   200  VAL200     -0.2715
     38  CB        43.9070   40.9340    9.3860 C.3   200  VAL200      0.0290
     39  CG1       43.8490   39.3990    9.1960 C.3   200  VAL200      0.0023
     40  CG2       42.6040   41.4320    9.8510 C.3   200  VAL200      0.0023
     41  N         45.7220   39.5400   11.8400 N.am  201  GLU201     -0.1977
     42  CA        45.8340   38.7680   13.1130 C.3   201  GLU201      0.1602
     43  C         46.4860   39.6090   14.1890 C.2   201  GLU201      0.2287
     44  O         46.0090   39.6230   15.3260 O.2   201  GLU201     -0.2864
     45  CB        46.6340   37.4560   12.9410 C.3   201  GLU201      0.0415
     46  CG        45.9890   36.4320   12.0070 C.3   201  GLU201      0.1163
     47  CD        46.4280   36.5380   10.5400 C.2   201  GLU201      0.3649
     48  OE1       46.6900   37.6390   10.0510 O.co2 201  GLU201     -0.2457
     49  OE2       46.4660   35.4840    9.8600 O.co2 201  GLU201     -0.2457
     50  N         42.5920   44.4910    1.1530 N.3   228  GLU228     -0.1245
     51  CA        43.8830   44.1460    0.5860 C.3   228  GLU228      0.1567
     52  C         44.1100   44.7740   -0.7890 C.2   228  GLU228      0.2260
     53  O         43.3450   44.5140   -1.6650 O.2   228  GLU228     -0.2867
     54  CB        43.9960   42.6100    0.4200 C.3   228  GLU228      0.0388
     55  CG        43.7970   41.8470    1.7370 C.3   228  GLU228      0.1160
     56  CD        44.9500   42.1220    2.6500 C.2   228  GLU228      0.3649
     57  OE1       44.8470   43.0630    3.4850 O.co2 228  GLU228     -0.2457
     58  OE2       45.9980   41.4510    2.4870 O.co2 228  GLU228     -0.2457
     59  N         46.1510   44.2020   -3.1420 N.3   230  ILE230     -0.1231
     60  CA        46.5480   43.2460   -4.2350 C.3   230  ILE230      0.1692
     61  C         45.4740   42.2080   -4.6510 C.2   230  ILE230      0.2592
     62  O         45.6490   41.4080   -5.6220 O.2   230  ILE230     -0.2718
     63  CB        47.8090   42.4620   -3.8080 C.3   230  ILE230      0.0266
     64  CG1       47.4570   41.5510   -2.6000 C.3   230  ILE230      0.0019
     65  CG2       48.9610   43.4710   -3.5510 C.3   230  ILE230      0.0020
     66  CD1       48.6230   40.6140   -2.1830 C.3   230  ILE230      0.0001
     67  N         44.3770   42.1830   -3.8930 N.am  231  HIS231     -0.1976
     68  CA        43.2470   41.2950   -4.1980 C.3   231  HIS231      0.1656
     69  C         41.9860   42.1280   -4.4240 C.2   231  HIS231      0.2291
     70  O         41.9800   43.3750   -4.2620 O.2   231  HIS231     -0.2864
     71  CB        42.9170   40.3910   -3.0070 C.3   231  HIS231      0.0771
     72  CG        44.0450   39.5150   -2.5910 C.ar  231  HIS231      0.0820
     73  ND1       44.6830   38.6480   -3.4550 N.ar  231  HIS231     -0.2267
     74  CD2       44.6640   39.3990   -1.3920 C.ar  231  HIS231      0.1154
     75  CE1       45.6060   37.9750   -2.7750 C.ar  231  HIS231      0.1986
     76  NE2       45.6150   38.4230   -1.5240 N.ar  231  HIS231     -0.2212
     77  N         39.3300   41.1040   -2.5720 N.3   233  HIS233     -0.1241
     78  CA        38.4880   40.6200   -1.4710 C.3   233  HIS233      0.1621
     79  C         39.2690   41.1030   -0.2440 C.2   233  HIS233      0.2264
     80  O         40.3870   41.6170   -0.4040 O.2   233  HIS233     -0.2867
     81  CB        38.3280   39.0610   -1.5110 C.3   233  HIS233      0.0745
     82  CG        39.6250   38.2960   -1.4060 C.ar  233  HIS233      0.0817
     83  ND1       40.3170   37.8580   -2.5250 N.ar  233  HIS233     -0.2268
     84  CD2       40.3510   37.8810   -0.3360 C.ar  233  HIS233      0.1154
     85  CE1       41.4070   37.2030   -2.1420 C.ar  233  HIS233      0.1986
     86  NE2       41.4510   37.2090   -0.8130 N.ar  233  HIS233     -0.2212
     87  N         40.9890   40.6310    3.8280 N.3   235  ALA235     -0.1245
     88  CA        41.3980   39.8090    5.0010 C.3   235  ALA235      0.1562
     89  C         40.5760   40.2550    6.1730 C.2   235  ALA235      0.2260
     90  O         40.2840   41.4620    6.3200 O.2   235  ALA235     -0.2867
     91  CB        42.9320   39.9290    5.2540 C.3   235  ALA235      0.0290
@<TRIPOS>BOND
     1    62    61    2
     2    61    60    1
     3    61    67   am
     4    69    70    2
     5    69    68    1
     6    60    63    1
     7    60    59    1
     8    68    67    1
     9    68    71    1
    10    63    65    1
    11    63    64    1
    12    73    75   ar
    13    73    72   ar
    14    71    72    1
    15    75    76   ar
    16    64    66    1
    17    72    74   ar
    18    77    78    1
    19    83    85   ar
    20    83    82   ar
    21    85    86   ar
    22    53    52    2
    23    76    74   ar
    24    81    78    1
    25    81    82    1
    26    78    79    1
    27    82    84   ar
    28    17    14    1
    29    17    18    1
    30    86    84   ar
    31    52    51    1
    32    80    79    2
    33    14    13    1
    34    14    15    1
    35    18    20   ar
    36    18    19   ar
    37    12    11    1
    38    20    22   ar
    39    54    51    1
    40    54    55    1
    41    51    50    1
    42    10     9    2
    43    19    21   ar
    44    22    21   ar
    45    15    16    2
    46    11     8    1
    47     8     9    1
    48     8     7    1
    49    55    56    1
    50    58    56   ar
    51    56    57   ar
    52    87    88    1
    53     5     6    1
    54     5     2    1
    55     4     3    2
    56    88    91    1
    57    88    89    1
    58     1     2    1
    59     2     3    1
    60    89    90    2
    61    31    33   ar
    62    31    29   ar
    63    33    32   ar
    64    29    28   ar
    65    39    38    1
    66    32    30   ar
    67    28    30   ar
    68    28    27    1
    69    38    40    1
    70    38    35    1
    71    24    27    1
    72    24    23    1
    73    24    25    1
    74    34    35    1
    75    34    25   am
    76    49    47   ar
    77    48    47   ar
    78    35    36    1
    79    25    26    2
    80    47    46    1
    81    36    41   am
    82    36    37    2
    83    41    42    1
    84    46    45    1
    85    45    42    1
    86    42    43    1
    87    43    44    2
