@<TRIPOS>MOLECULE
tmp/5k9iA00.pdb
 189 181 0 0 0
SMALL
GASTEIGER

@<TRIPOS>ATOM
      1  N          8.2310  -14.8960  -10.1030 N.3    15  LEU15      -0.1231
      2  CA         8.4210  -14.2340   -8.8170 C.3    15  LEU15       0.1693
      3  C          7.3600  -14.6610   -7.8060 C.2    15  LEU15       0.2593
      4  O          7.5990  -14.6530   -6.5990 O.2    15  LEU15      -0.2718
      5  CB         8.4140  -12.7100   -8.9830 C.3    15  LEU15       0.0284
      6  CG         9.6080  -12.0930   -9.7180 C.3    15  LEU15       0.0019
      7  CD1        9.4440  -10.5770   -9.8450 C.3    15  LEU15       0.0001
      8  CD2       10.9250  -12.4520   -9.0220 C.3    15  LEU15       0.0001
      9  N          6.1890  -15.0350   -8.3090 N.am   16  GLY16      -0.1942
     10  CA         5.1000  -15.4830   -7.4630 C.3    16  GLY16       0.2014
     11  C          3.8270  -15.6180   -8.2770 C.2    16  GLY16       0.2639
     12  O          3.8540  -15.5220   -9.5100 O.2    16  GLY16      -0.2714
     13  N          2.7080  -15.8480   -7.6010 N.am   17  GLN17      -0.1963
     14  CA         1.4240  -15.9350   -8.2840 C.3    17  GLN17       0.1733
     15  C          0.2730  -15.7510   -7.3130 C.2    17  GLN17       0.2617
     16  O          0.3990  -16.0430   -6.1300 O.2    17  GLN17      -0.2715
     17  CB         1.2760  -17.2530   -9.0470 C.3    17  GLN17       0.0408
     18  CG         1.0150  -18.4640   -8.1820 C.3    17  GLN17       0.0908
     19  CD         0.9510  -19.7300   -9.0030 C.2    17  GLN17       0.2608
     20  OE1        1.2280  -19.7200  -10.2090 O.2    17  GLN17      -0.2717
     21  NE2        0.5860  -20.8340   -8.3580 N.am   17  GLN17      -0.0878
     22  N         -0.8400  -15.2460   -7.8300 N.am   18  GLY18      -0.1940
     23  CA        -2.0000  -14.9310   -7.0220 C.3    18  GLY18       0.2014
     24  C         -3.2580  -15.4770   -7.6630 C.2    18  GLY18       0.2639
     25  O         -3.1960  -16.2490   -8.6230 O.2    18  GLY18      -0.2714
     26  N         -4.4060  -15.0690   -7.1350 N.am   19  CYS19      -0.1953
     27  CA        -5.6790  -15.6030   -7.5980 C.3    19  CYS19       0.1843
     28  C         -5.9940  -15.2030   -9.0440 C.2    19  CYS19       0.2625
     29  O         -6.7410  -15.8980   -9.7360 O.2    19  CYS19      -0.2714
     30  CB        -6.8090  -15.1860   -6.6520 C.3    19  CYS19       0.0997
     31  SG        -6.9140  -13.4160   -6.3970 S.3    19  CYS19      -0.0797
     32  N         -5.4030  -14.1030   -9.5030 N.am   20  PHE20      -0.1960
     33  CA        -5.6820  -13.5940  -10.8450 C.3    20  PHE20       0.1771
     34  C         -4.6090  -13.9390  -11.8690 C.2    20  PHE20       0.2620
     35  O         -4.8440  -13.8320  -13.0710 O.2    20  PHE20      -0.2715
     36  CB        -5.9050  -12.0800  -10.8170 C.3    20  PHE20       0.0574
     37  CG        -7.0620  -11.6570   -9.9590 C.ar   20  PHE20      -0.0200
     38  CD1       -8.1880  -12.4620   -9.8450 C.ar   20  PHE20      -0.0042
     39  CD2       -7.0200  -10.4590   -9.2550 C.ar   20  PHE20      -0.0042
     40  CE1       -9.2540  -12.0770   -9.0500 C.ar   20  PHE20      -0.0003
     41  CE2       -8.0850  -10.0640   -8.4600 C.ar   20  PHE20      -0.0003
     42  CZ        -9.2030  -10.8760   -8.3560 C.ar   20  PHE20      -0.0000
     43  N         -3.4350  -14.3520  -11.4060 N.am   21  GLY21      -0.1954
     44  CA        -2.3780  -14.7360  -12.3230 C.3    21  GLY21       0.1869
     45  C         -0.9900  -14.7370  -11.7150 C.2    21  GLY21       0.2309
     46  O         -0.8320  -14.9440  -10.5150 O.2    21  GLY21      -0.2863
     47  N          3.3590  -13.2540  -11.7150 N.3    23  VAL23      -0.1245
     48  CA         4.2340  -12.1110  -11.8620 C.3    23  VAL23       0.1561
     49  C          5.6390  -12.5980  -12.1500 C.2    23  VAL23       0.2260
     50  O          6.1710  -13.4330  -11.4310 O.2    23  VAL23      -0.2867
     51  CB         4.2210  -11.2020  -10.6170 C.3    23  VAL23       0.0252
     52  CG1        5.4220  -10.2840  -10.6200 C.3    23  VAL23       0.0019
     53  CG2        2.9260  -10.3880  -10.5620 C.3    23  VAL23       0.0019
     54  N          9.0040   -5.7710  -14.7610 N.3    35  ALA35      -0.1231
     55  CA         8.1390   -6.7750  -14.1780 C.3    35  ALA35       0.1694
     56  C          6.9220   -6.9120  -15.0700 C.2    35  ALA35       0.2592
     57  O          6.4400   -5.9240  -15.6340 O.2    35  ALA35      -0.2718
     58  CB         7.7240   -6.3740  -12.7790 C.3    35  ALA35       0.0304
     59  N          6.4360   -8.1400  -15.2070 N.am   36  ILE36      -0.1966
     60  CA         5.2100   -8.3960  -15.9450 C.3    36  ILE36       0.1727
     61  C          4.2310   -9.1110  -15.0360 C.2    36  ILE36       0.2616
     62  O          4.5720  -10.0830  -14.3780 O.2    36  ILE36      -0.2715
     63  CB         5.4200   -9.2730  -17.2230 C.3    36  ILE36       0.0290
     64  CG1        6.5340   -8.7290  -18.1130 C.3    36  ILE36       0.0022
     65  CG2        4.1360   -9.3530  -18.0190 C.3    36  ILE36       0.0023
     66  CD1        7.8640   -9.3720  -17.8730 C.3    36  ILE36       0.0001
     67  N          3.0090   -8.6140  -15.0030 N.am   37  LYS37      -0.1977
     68  CA         1.9470   -9.2450  -14.2540 C.3    37  LYS37       0.1596
     69  C          1.0390   -9.8570  -15.2960 C.2    37  LYS37       0.2287
     70  O          0.4320   -9.1340  -16.0850 O.2    37  LYS37      -0.2864
     71  CB         1.2210   -8.1900  -13.4020 C.3    37  LYS37       0.0298
     72  CG        -0.2290   -8.4830  -13.0040 C.3    37  LYS37       0.0038
     73  CD        -0.3330   -9.6300  -12.0220 C.3    37  LYS37       0.0206
     74  CE        -1.5800   -9.5310  -11.1490 C.3    37  LYS37       0.1093
     75  NZ        -1.8660  -10.8770  -10.5730 N.3    37  LYS37      -0.1314
     76  N          4.1520    2.4110   -8.2050 N.3    65  VAL65      -0.1245
     77  CA         4.8690    1.5810   -9.1700 C.3    65  VAL65       0.1561
     78  C          4.4580    1.9730  -10.5810 C.2    65  VAL65       0.2260
     79  O          3.2710    1.9560  -10.9080 O.2    65  VAL65      -0.2867
     80  CB         4.5790    0.0830   -8.9410 C.3    65  VAL65       0.0252
     81  CG1        5.2610   -0.7520  -10.0050 C.3    65  VAL65       0.0019
     82  CG2        5.0370   -0.3340   -7.5660 C.3    65  VAL65       0.0019
     83  N          5.3990   -3.2540  -15.8120 N.3    80  THR80      -0.1203
     84  CA         5.6400   -2.1370  -14.9100 C.3    80  THR80       0.1994
     85  C          7.1040   -2.0990  -14.5310 C.2    80  THR80       0.2618
     86  O          7.8390   -3.0460  -14.8120 O.2    80  THR80      -0.2717
     87  CB         4.8900   -2.3250  -13.6040 C.3    80  THR80       0.1784
     88  OG1        5.6140   -3.2580  -12.7960 O.3    80  THR80      -0.2211
     89  CG2        3.4760   -2.8330  -13.8610 C.3    80  THR80       0.0376
     90  N          7.5220   -1.0160  -13.8760 N.am   81  GLU81      -0.1965
     91  CA         8.8830   -0.9070  -13.3700 C.3    81  GLU81       0.1733
     92  C          9.1450   -2.0360  -12.4040 C.2    81  GLU81       0.2616
     93  O          8.2120   -2.5640  -11.8070 O.2    81  GLU81      -0.2715
     94  CB         9.1100    0.4350  -12.6730 C.3    81  GLU81       0.0429
     95  CG         8.6980    0.4980  -11.2240 C.3    81  GLU81       0.1163
     96  CD         8.9110    1.8870  -10.6280 C.2    81  GLU81       0.3649
     97  OE1        7.9500    2.6820  -10.6330 O.co2  81  GLU81      -0.2457
     98  OE2       10.0350    2.1890  -10.1590 O.co2  81  GLU81      -0.2457
     99  N         10.4140   -2.4070  -12.2590 N.am   82  TYR82      -0.1960
    100  CA        10.8080   -3.5400  -11.4300 C.3    82  TYR82       0.1771
    101  C         11.3260   -3.1140  -10.0640 C.2    82  TYR82       0.2619
    102  O         12.2760   -2.3430   -9.9480 O.2    82  TYR82      -0.2715
    103  CB        11.8620   -4.3990  -12.1440 C.3    82  TYR82       0.0574
    104  CG        12.4230   -5.5010  -11.2760 C.ar   82  TYR82      -0.0198
    105  CD1       11.6770   -6.6520  -11.0060 C.ar   82  TYR82      -0.0009
    106  CD2       13.6960   -5.3910  -10.7140 C.ar   82  TYR82      -0.0009
    107  CE1       12.1840   -7.6650  -10.1950 C.ar   82  TYR82       0.0417
    108  CE2       14.2150   -6.3950   -9.9090 C.ar   82  TYR82       0.0417
    109  CZ        13.4580   -7.5300   -9.6540 C.ar   82  TYR82       0.1957
    110  OH        13.9770   -8.5270   -8.8500 O.3    82  TYR82      -0.2866
    111  N         10.7030   -3.6370   -9.0180 N.am   83  MET83      -0.1963
    112  CA        11.1420   -3.3190   -7.6780 C.3    83  MET83       0.1736
    113  C         11.9530   -4.4710   -7.1270 C.2    83  MET83       0.2617
    114  O         11.4580   -5.5810   -6.9790 O.2    83  MET83      -0.2715
    115  CB         9.9400   -2.9910   -6.8020 C.3    83  MET83       0.0427
    116  CG         9.0400   -1.9110   -7.4210 C.3    83  MET83       0.0599
    117  SD         9.8580   -0.3070   -7.4710 S.3    83  MET83      -0.1393
    118  CE        10.0960   -0.0490   -5.7200 C.3    83  MET83       0.0692
    119  N         13.2090   -4.1920   -6.8120 N.am   84  SER84      -0.1936
    120  CA        14.1750   -5.2410   -6.5150 C.3    84  SER84       0.2055
    121  C         13.9290   -6.0660   -5.2420 C.2    84  SER84       0.2643
    122  O         14.4120   -7.1910   -5.1560 O.2    84  SER84      -0.2714
    123  CB        15.5900   -4.6570   -6.5050 C.3    84  SER84       0.2130
    124  OG        15.7120   -3.5800   -5.5800 O.3    84  SER84      -0.2179
    125  N         13.1910   -5.5320   -4.2660 N.am   85  LYS85      -0.1963
    126  CA        13.1000   -6.1840   -2.9440 C.3    85  LYS85       0.1728
    127  C         11.7630   -6.8570   -2.6180 C.2    85  LYS85       0.2617
    128  O         11.5370   -7.2910   -1.4910 O.2    85  LYS85      -0.2715
    129  CB        13.4660   -5.2090   -1.8140 C.3    85  LYS85       0.0311
    130  CG        14.8650   -4.5970   -1.9070 C.3    85  LYS85       0.0038
    131  CD        15.9320   -5.6790   -1.9100 C.3    85  LYS85       0.0206
    132  CE        17.3230   -5.1070   -2.1720 C.3    85  LYS85       0.1093
    133  NZ        18.3310   -6.1970   -2.3640 N.3    85  LYS85      -0.1314
    134  N         10.8780   -6.9400   -3.6000 N.am   86  GLY86      -0.1940
    135  CA         9.6040   -7.6090   -3.4130 C.3    86  GLY86       0.2014
    136  C          8.6240   -6.8210   -2.5690 C.2    86  GLY86       0.2639
    137  O          8.7630   -5.6080   -2.3830 O.2    86  GLY86      -0.2714
    138  N          7.6290   -7.5230   -2.0400 N.am   87  SER87      -0.1949
    139  CA         6.5810   -6.8930   -1.2670 C.3    87  SER87       0.1924
    140  C          7.0740   -6.4330    0.0920 C.2    87  SER87       0.2314
    141  O          7.9650   -7.0490    0.6870 O.2    87  SER87      -0.2863
    142  CB         5.4080   -7.8560   -1.0850 C.3    87  SER87       0.2116
    143  OG         5.7540   -8.8990   -0.1850 O.3    87  SER87      -0.2180
    144  N          6.7600   -9.2710    2.6630 N.3    90  ASP90      -0.1239
    145  CA         7.8930  -10.2140    2.6770 C.3    90  ASP90       0.1674
    146  C          9.1270   -9.5680    3.2710 C.2    90  ASP90       0.2266
    147  O          9.8540  -10.1740    4.0590 O.2    90  ASP90      -0.2867
    148  CB         8.2150  -10.7140    1.2640 C.3    90  ASP90       0.1410
    149  CG         7.0920  -11.5370    0.6770 C.2    90  ASP90       0.3668
    150  OD1        6.2310  -11.9780    1.4690 O.co2  90  ASP90      -0.2456
    151  OD2        7.0630  -11.7420   -0.5580 O.co2  90  ASP90      -0.2456
    152  N          1.1590   -6.0740    1.6130 N.3   132  ALA132     -0.1231
    153  CA         1.3200   -7.0180    0.5120 C.3   132  ALA132      0.1694
    154  C          1.2730   -6.3150   -0.8480 C.2   132  ALA132      0.2592
    155  O          1.7110   -6.8630   -1.8650 O.2   132  ALA132     -0.2718
    156  CB         0.2550   -8.1120    0.5860 C.3   132  ALA132      0.0304
    157  N          0.7410   -5.1000   -0.8630 N.am  133  ASN133     -0.1974
    158  CA         0.6020   -4.3490   -2.1020 C.3   133  ASN133      0.1688
    159  C          1.5270   -3.1340   -2.1520 C.2   133  ASN133      0.2292
    160  O          1.3510   -2.2450   -2.9770 O.2   133  ASN133     -0.2864
    161  CB        -0.8610   -3.9360   -2.3130 C.3   133  ASN133      0.1181
    162  CG        -1.7470   -5.1160   -2.6890 C.2   133  ASN133      0.2629
    163  OD1       -1.3280   -5.9880   -3.4370 O.2   133  ASN133     -0.2716
    164  ND2       -2.9610   -5.1590   -2.1540 N.am  133  ASN133     -0.0877
    165  N          5.5490   -2.2960   -2.7510 N.3   135  LEU135     -0.1245
    166  CA         6.7940   -2.9040   -3.2250 C.3   135  LEU135      0.1561
    167  C          8.0090   -2.1110   -2.7710 C.2   135  LEU135      0.2260
    168  O          7.9750   -0.8840   -2.7110 O.2   135  LEU135     -0.2867
    169  CB         6.7820   -3.0510   -4.7410 C.3   135  LEU135      0.0270
    170  CG         5.7640   -4.0780   -5.2050 C.3   135  LEU135      0.0019
    171  CD1        5.6180   -3.9950   -6.6880 C.3   135  LEU135      0.0001
    172  CD2        6.2030   -5.4780   -4.7710 C.3   135  LEU135      0.0001
    173  N          1.3470   -0.3380   -5.0860 N.3   145  ALA145     -0.1231
    174  CA         1.0780   -1.0690   -6.3250 C.3   145  ALA145      0.1694
    175  C         -0.3530   -1.6000   -6.4160 C.2   145  ALA145      0.2592
    176  O         -1.2190   -1.2410   -5.6130 O.2   145  ALA145     -0.2718
    177  CB         2.0330   -2.2310   -6.4340 C.3   145  ALA145      0.0304
    178  N         -0.5610   -2.4670   -7.4130 N.am  146  ASP146     -0.1974
    179  CA        -1.6800   -3.4300   -7.5080 C.3   146  ASP146      0.1709
    180  C         -3.0860   -2.8420   -7.6240 C.2   146  ASP146      0.2293
    181  O         -3.6070   -2.2420   -6.6880 O.2   146  ASP146     -0.2864
    182  CB        -1.5730   -4.5310   -6.4320 C.3   146  ASP146      0.1436
    183  CG        -0.5560   -5.6340   -6.8160 C.2   146  ASP146      0.3671
    184  OD1       -0.6740   -6.2050   -7.9250 O.co2 146  ASP146     -0.2456
    185  OD2        0.3720   -5.9240   -6.0250 O.co2 146  ASP146     -0.2456
    186  N         -5.9380   -4.5410   -9.3910 N.3   148  GLY148     -0.1225
    187  CA        -6.9590   -5.4920   -9.7970 C.3   148  GLY148      0.1811
    188  C         -8.2330   -5.3920   -8.9790 C.2   148  GLY148      0.2280
    189  O         -8.9210   -4.3700   -8.9980 O.2   148  GLY148     -0.2866
@<TRIPOS>BOND
     1    64    66    1
     2    64    63    1
     3    65    63    1
     4    63    60    1
     5    70    69    2
     6    60    59    1
     7    60    61    1
     8    83    84    1
     9    57    56    2
    10    69    68    1
    11    59    56   am
    12    56    55    1
    13    61    67   am
    14    61    62    2
    15    67    68    1
    16    84    85    1
    17    84    87    1
    18    86    85    2
    19    54    55    1
    20    85    90   am
    21    68    71    1
    22    55    58    1
    23    90    91    1
    24    89    87    1
    25    87    88    1
    26    71    72    1
    27    91    94    1
    28    91    92    1
    29    35    34    2
    30    72    73    1
    31    94    95    1
    32    92    99   am
    33    92    93    2
    34    44    45    1
    35    44    43    1
    36    99   100    1
    37    49    48    1
    38    49    50    2
    39   103   100    1
    40   103   104    1
    41    73    74    1
    42    34    43   am
    43    34    33    1
    44    48    47    1
    45    48    51    1
    46    45    46    2
    47   100   101    1
    48   104   105   ar
    49   104   106   ar
    50    95    96    1
    51    74    75    1
    52   105   107   ar
    53    79    78    2
    54    33    36    1
    55    33    32    1
    56    36    37    1
    57   106   108   ar
    58    97    96   ar
    59    96    98   ar
    60    52    51    1
    61    51    53    1
    62    78    77    1
    63    20    19    2
    64   107   109   ar
    65     1     2    1
    66   101   102    2
    67   101   111   am
    68    81    80    1
    69    37    38   ar
    70    37    39   ar
    71   108   109   ar
    72    38    40   ar
    73     7     6    1
    74   187   186    1
    75   187   188    1
    76    29    28    2
    77     6     8    1
    78     6     5    1
    79   109   110    1
    80    12    11    2
    81    32    28   am
    82    39    41   ar
    83    77    80    1
    84    77    76    1
    85    40    42   ar
    86    17    14    1
    87    17    18    1
    88    28    27    1
    89   111   112    1
    90    19    21   am
    91    19    18    1
    92   189   188    2
    93     5     2    1
    94    80    82    1
    95     2     3    1
    96    25    24    2
    97    41    42   ar
    98     9     3   am
    99     9    10    1
   100    14    13    1
   101    14    15    1
   102    11    13   am
   103    11    10    1
   104   184   183   ar
   105    22    15   am
   106    22    23    1
   107     3     4    2
   108   112   113    1
   109   112   115    1
   110    24    26   am
   111    24    23    1
   112   180   179    1
   113   180   181    2
   114    27    26    1
   115    27    30    1
   116   179   178    1
   117   179   182    1
   118   117   116    1
   119   117   118    1
   120   116   115    1
   121   178   175   am
   122    15    16    2
   123   113   114    2
   124   113   119   am
   125   183   182    1
   126   183   185   ar
   127   119   120    1
   128   171   170    1
   129    30    31    1
   130   120   123    1
   131   120   121    1
   132   123   124    1
   133   177   174    1
   134   175   174    1
   135   175   176    2
   136   174   173    1
   137   121   122    2
   138   121   125   am
   139   170   172    1
   140   170   169    1
   141   169   166    1
   142   125   126    1
   143   134   135    1
   144   134   127   am
   145   163   162    2
   146   135   136    1
   147   166   167    1
   148   166   165    1
   149   160   159    2
   150   126   127    1
   151   126   129    1
   152   167   168    2
   153   162   161    1
   154   162   164   am
   155   127   128    2
   156   136   137    2
   157   136   138   am
   158   133   132    1
   159   161   158    1
   160   132   131    1
   161   159   158    1
   162   158   157    1
   163   138   139    1
   164   131   130    1
   165   130   129    1
   166   155   154    2
   167   139   142    1
   168   139   140    1
   169   142   143    1
   170   157   154   am
   171   154   153    1
   172   151   149   ar
   173   140   141    2
   174   153   156    1
   175   153   152    1
   176   149   148    1
   177   149   150   ar
   178   148   145    1
   179   144   145    1
   180   145   146    1
   181   146   147    2
