@<TRIPOS>MOLECULE
tmp/5k9jA00.pdb
 89 84 0 0 0
SMALL
GASTEIGER

@<TRIPOS>ATOM
      1  N          7.0170   43.6200  -20.0910 N.3    41  GLN41      -0.1231
      2  CA         5.6660   43.7070  -20.6270 C.3    41  GLN41       0.1698
      3  C          4.7350   44.2960  -19.5760 C.2    41  GLN41       0.2593
      4  O          4.6790   43.8000  -18.4470 O.2    41  GLN41      -0.2718
      5  CB         5.1570   42.3230  -21.0640 C.3    41  GLN41       0.0381
      6  CG         3.7920   42.3480  -21.7550 C.3    41  GLN41       0.0905
      7  CD         3.4140   40.9990  -22.3600 C.2    41  GLN41       0.2608
      8  OE1        2.7930   40.9380  -23.4230 O.2    41  GLN41      -0.2717
      9  NE2        3.8040   39.9180  -21.6930 N.am   41  GLN41      -0.0878
     10  N          4.0100   45.3470  -19.9430 N.am   42  SER42      -0.1939
     11  CA         3.0070   45.9380  -19.0700 C.3    42  SER42       0.2040
     12  C          2.0070   46.6780  -19.9410 C.2    42  SER42       0.2485
     13  O          2.2540   46.8720  -21.1360 O.2    42  SER42      -0.2729
     14  CB         3.6500   46.8890  -18.0450 C.3    42  SER42       0.2129
     15  OG         3.9830   48.1240  -18.6530 O.3    42  SER42      -0.2179
     16  N          0.8560   47.0840  -19.3820 N.am   43  PRO43      -0.2726
     17  CA        -0.1040   47.8400  -20.1980 C.3    43  PRO43       0.1402
     18  C          0.4400   49.1600  -20.7160 C.2    43  PRO43       0.2269
     19  O          0.0950   49.5760  -21.8310 O.2    43  PRO43      -0.2865
     20  CB        -1.2860   48.0480  -19.2360 C.3    43  PRO43       0.0296
     21  CG        -1.1910   46.9110  -18.2840 C.3    43  PRO43       0.0237
     22  CD         0.2740   46.6800  -18.0900 C.3    43  PRO43       0.0939
     23  N          3.7670   48.2390  -23.1250 N.3    46  GLY46      -0.1210
     24  CA         3.6490   47.2570  -24.1830 C.3    46  GLY46       0.1956
     25  C          4.6790   46.1660  -23.9880 C.2    46  GLY46       0.2611
     26  O          5.0050   45.7790  -22.8610 O.2    46  GLY46      -0.2717
     27  N          5.2130   45.6650  -25.0950 N.am   47  LEU47      -0.1979
     28  CA         6.2880   44.6740  -25.0720 C.3    47  LEU47       0.1596
     29  C          7.5800   45.4160  -25.4150 C.2    47  LEU47       0.2287
     30  O          7.8230   45.7530  -26.5780 O.2    47  LEU47      -0.2864
     31  CB         5.9860   43.5440  -26.0500 C.3    47  LEU47       0.0297
     32  CG         6.7010   42.2080  -25.8850 C.3    47  LEU47       0.0022
     33  CD1        6.5370   41.6750  -24.4690 C.3    47  LEU47       0.0001
     34  CD2        6.1490   41.2220  -26.8980 C.3    47  LEU47       0.0001
     35  N          6.5980   48.7140  -13.0720 N.3    94  THR94      -0.1203
     36  CA         5.8530   47.4990  -12.7680 C.3    94  THR94       0.1994
     37  C          5.5300   46.7630  -14.0630 C.2    94  THR94       0.2618
     38  O          4.9260   47.3390  -14.9730 O.2    94  THR94      -0.2717
     39  CB         4.5820   47.8570  -12.0090 C.3    94  THR94       0.1784
     40  OG1        4.9360   48.3480  -10.7090 O.3    94  THR94      -0.2211
     41  CG2        3.6720   46.6540  -11.8740 C.3    94  THR94       0.0376
     42  N          5.9400   45.5000  -14.1530 N.am   95  ALA95      -0.1965
     43  CA         5.8420   44.7570  -15.4050 C.3    95  ALA95       0.1728
     44  C          6.2220   43.3060  -15.1540 C.2    95  ALA95       0.2616
     45  O          6.7490   42.9530  -14.0940 O.2    95  ALA95      -0.2715
     46  CB         6.7550   45.3500  -16.4860 C.3    95  ALA95       0.0334
     47  N          5.9540   42.4720  -16.1530 N.am   96  VAL96      -0.1977
     48  CA         6.5500   41.1500  -16.2390 C.3    96  VAL96       0.1596
     49  C          7.8400   41.3000  -17.0280 C.2    96  VAL96       0.2287
     50  O          7.8300   41.8180  -18.1500 O.2    96  VAL96      -0.2864
     51  CB         5.5980   40.1400  -16.9010 C.3    96  VAL96       0.0276
     52  CG1        6.3010   38.8060  -17.0930 C.3    96  VAL96       0.0022
     53  CG2        4.3610   39.9420  -16.0450 C.3    96  VAL96       0.0022
     54  N          7.0870   38.8150  -12.5030 N.3   121  LEU121     -0.1245
     55  CA         6.3130   40.0180  -12.2190 C.3   121  LEU121      0.1561
     56  C          7.0210   40.8200  -11.1370 C.2   121  LEU121      0.2260
     57  O          7.3010   40.3010  -10.0510 O.2   121  LEU121     -0.2867
     58  CB         4.8930   39.6670  -11.7820 C.3   121  LEU121      0.0270
     59  CG         4.0470   40.8760  -11.3610 C.3   121  LEU121      0.0019
     60  CD1        3.8870   41.8660  -12.5090 C.3   121  LEU121      0.0001
     61  CD2        2.6790   40.4490  -10.8420 C.3   121  LEU121      0.0001
     62  N          6.5200   44.2370   -8.9180 N.3   123  THR123     -0.1218
     63  CA         5.5940   45.2800   -8.5000 C.3   123  THR123      0.1862
     64  C          6.3850   46.3610   -7.7910 C.2   123  THR123      0.2287
     65  O          7.1120   46.0700   -6.8310 O.2   123  THR123     -0.2866
     66  CB         4.5050   44.7440   -7.5750 C.3   123  THR123      0.1770
     67  OG1        3.7380   43.7560   -8.2660 O.3   123  THR123     -0.2211
     68  CG2        3.5750   45.8780   -7.1500 C.3   123  THR123      0.0375
     69  N          0.9530   40.6370   -5.8940 N.3   161  GLU161     -0.1245
     70  CA         0.7360   39.5600   -6.8450 C.3   161  GLU161      0.1567
     71  C          2.0860   38.8840   -7.0780 C.2   161  GLU161      0.2260
     72  O          3.1320   39.5250   -6.9280 O.2   161  GLU161     -0.2867
     73  CB         0.1550   40.1030   -8.1540 C.3   161  GLU161      0.0388
     74  CG        -1.3570   40.3770   -8.1330 C.3   161  GLU161      0.1160
     75  CD        -2.1530   39.2320   -8.7560 C.2   161  GLU161      0.3649
     76  OE1       -2.1390   38.1080   -8.2010 O.co2 161  GLU161     -0.2457
     77  OE2       -2.7730   39.4550   -9.8170 O.co2 161  GLU161     -0.2457
     78  N         -4.8640   42.2670   -2.4270 N.3   189  TYR189     -0.1241
     79  CA        -5.5150   41.5460   -3.5090 C.3   189  TYR189      0.1605
     80  C         -6.3860   40.4230   -2.9700 C.2   189  TYR189      0.2264
     81  O         -6.2370   39.9700   -1.8300 O.2   189  TYR189     -0.2867
     82  CB        -4.4920   40.9560   -4.4760 C.3   189  TYR189      0.0534
     83  CG        -3.7400   41.9770   -5.2820 C.ar  189  TYR189     -0.0201
     84  CD1       -4.2650   42.4820   -6.4680 C.ar  189  TYR189     -0.0009
     85  CD2       -2.4950   42.4280   -4.8660 C.ar  189  TYR189     -0.0009
     86  CE1       -3.5650   43.4160   -7.2160 C.ar  189  TYR189      0.0417
     87  CE2       -1.7910   43.3620   -5.6000 C.ar  189  TYR189      0.0417
     88  CZ        -2.3290   43.8510   -6.7750 C.ar  189  TYR189      0.1957
     89  OH        -1.6200   44.7840   -7.5110 O.3   189  TYR189     -0.2866
@<TRIPOS>BOND
     1    34    32    1
     2    30    29    2
     3    31    32    1
     4    31    28    1
     5    32    33    1
     6    29    28    1
     7    27    28    1
     8    27    25   am
     9    24    25    1
    10    24    23    1
    11    25    26    2
    12     8     7    2
    13     7     6    1
    14     7     9   am
    15    19    18    2
    16     6     5    1
    17    13    12    2
    18     5     2    1
    19    18    17    1
    20     2     1    1
    21     2     3    1
    22    17    16    1
    23    17    20    1
    24    10     3   am
    25    10    11    1
    26    12    16   am
    27    12    11    1
    28     3     4    2
    29    16    22    1
    30    20    21    1
    31    11    14    1
    32    15    14    1
    33    21    22    1
    34    50    49    2
    35    52    51    1
    36    49    48    1
    37    51    48    1
    38    51    53    1
    39    46    43    1
    40    48    47    1
    41    47    44   am
    42    43    44    1
    43    43    42    1
    44    44    45    2
    45    38    37    2
    46    42    37   am
    47    37    36    1
    48    35    36    1
    49    36    39    1
    50    60    59    1
    51    54    55    1
    52    55    58    1
    53    55    56    1
    54    39    41    1
    55    39    40    1
    56    58    59    1
    57    59    61    1
    58    56    57    2
    59    77    75   ar
    60    62    63    1
    61    75    76   ar
    62    75    74    1
    63    63    64    1
    64    63    66    1
    65    67    66    1
    66    73    74    1
    67    73    70    1
    68    64    65    2
    69    66    68    1
    70    89    88    1
    71    86    88   ar
    72    86    84   ar
    73    71    72    2
    74    71    70    1
    75    70    69    1
    76    88    87   ar
    77    84    83   ar
    78    87    85   ar
    79    83    85   ar
    80    83    82    1
    81    82    79    1
    82    79    80    1
    83    79    78    1
    84    80    81    2
