@<TRIPOS>MOLECULE
tmp/5k9mA00.pdb
 133 123 0 0 0
SMALL
GASTEIGER

@<TRIPOS>ATOM
      1  N         19.4810   94.3500  124.1430 N.3    76  ARG76      -0.1245
      2  CA        19.0890   94.5600  122.7610 C.3    76  ARG76       0.1563
      3  C         18.1840   95.7810  122.6900 C.2    76  ARG76       0.2260
      4  O         17.5260   96.1440  123.6680 O.2    76  ARG76      -0.2867
      5  CB        18.3730   93.3370  122.1920 C.3    76  ARG76       0.0307
      6  CG        19.1560   92.0380  122.3910 C.3    76  ARG76       0.0489
      7  CD        18.6840   91.2880  123.6210 C.3    76  ARG76       0.2205
      8  NE        17.2620   90.9920  123.4990 N.pl3  76  ARG76      -0.0865
      9  CZ        16.7640   89.9380  122.8650 C.cat  76  ARG76       0.5346
     10  NH1       17.5690   89.0410  122.3090 N.pl3  76  ARG76       0.1354
     11  NH2       15.4520   89.7850  122.7850 N.pl3  76  ARG76       0.1354
     12  N         21.6630   93.6870  118.7200 N.3   137  GLU137     -0.1245
     13  CA        22.2060   92.9810  119.8750 C.3   137  GLU137      0.1567
     14  C         23.4960   93.6820  120.2790 C.2   137  GLU137      0.2260
     15  O         24.4770   93.6690  119.5290 O.2   137  GLU137     -0.2867
     16  CB        22.4600   91.5150  119.5400 C.3   137  GLU137      0.0388
     17  CG        21.2150   90.7580  119.0960 C.3   137  GLU137      0.1160
     18  CD        20.7430   89.7220  120.1020 C.2   137  GLU137      0.3649
     19  OE1       21.4280   89.5140  121.1250 O.co2 137  GLU137     -0.2457
     20  OE2       19.6820   89.1060  119.8650 O.co2 137  GLU137     -0.2457
     21  N         19.1350   92.1670  113.6350 N.3   147  LYS147     -0.1245
     22  CA        17.9460   91.3900  113.3230 C.3   147  LYS147      0.1561
     23  C         16.9440   92.3050  112.6380 C.2   147  LYS147      0.2260
     24  O         16.7620   93.4530  113.0560 O.2   147  LYS147     -0.2867
     25  CB        17.3310   90.7810  114.5910 C.3   147  LYS147      0.0271
     26  CG        18.3000   89.9100  115.3830 C.3   147  LYS147      0.0035
     27  CD        17.6960   89.3860  116.6830 C.3   147  LYS147      0.0206
     28  CE        17.5080   90.4900  117.7140 C.3   147  LYS147      0.1093
     29  NZ        17.1690   89.9500  119.0600 N.3   147  LYS147     -0.1314
     30  N         12.9550   92.7170  111.1100 N.3   149  TYR149     -0.1241
     31  CA        11.5820   92.2430  111.2270 C.3   149  TYR149      0.1605
     32  C         10.7630   92.7700  110.0570 C.2   149  TYR149      0.2264
     33  O         10.7510   93.9790  109.7940 O.2   149  TYR149     -0.2867
     34  CB        10.9730   92.6820  112.5620 C.3   149  TYR149      0.0534
     35  CG        11.8000   92.2370  113.7460 C.ar  149  TYR149     -0.0201
     36  CD1       12.9520   92.9230  114.1030 C.ar  149  TYR149     -0.0009
     37  CD2       11.4430   91.1210  114.4910 C.ar  149  TYR149     -0.0009
     38  CE1       13.7220   92.5230  115.1700 C.ar  149  TYR149      0.0417
     39  CE2       12.2120   90.7090  115.5690 C.ar  149  TYR149      0.0417
     40  CZ        13.3520   91.4150  115.8980 C.ar  149  TYR149      0.1957
     41  OH        14.1310   91.0310  116.9630 O.3   149  TYR149     -0.2866
     42  N         19.1800   82.5680  112.0790 N.3   200  ARG200     -0.1245
     43  CA        17.8270   82.0390  112.0270 C.3   200  ARG200      0.1563
     44  C         16.9890   82.8030  111.0100 C.2   200  ARG200      0.2260
     45  O         17.2070   83.9920  110.7620 O.2   200  ARG200     -0.2867
     46  CB        17.1540   82.1380  113.4020 C.3   200  ARG200      0.0307
     47  CG        17.9100   81.4630  114.5440 C.3   200  ARG200      0.0489
     48  CD        17.4970   82.0190  115.9060 C.3   200  ARG200      0.2205
     49  NE        17.7770   83.4500  116.0360 N.pl3 200  ARG200     -0.0865
     50  CZ        17.3420   84.2140  117.0340 C.cat 200  ARG200      0.5346
     51  NH1       17.6480   85.5040  117.0620 N.pl3 200  ARG200      0.1354
     52  NH2       16.5950   83.6980  118.0030 N.pl3 200  ARG200      0.1354
     53  N         13.0620   83.4050  111.4230 N.3   202  LYS202     -0.1245
     54  CA        12.1200   83.2570  112.5200 C.3   202  LYS202      0.1561
     55  C         10.7200   83.5790  112.0300 C.2   202  LYS202      0.2260
     56  O         10.4990   84.6220  111.4020 O.2   202  LYS202     -0.2867
     57  CB        12.5010   84.1720  113.6810 C.3   202  LYS202      0.0271
     58  CG        13.7820   83.7650  114.3770 C.3   202  LYS202      0.0035
     59  CD        14.5920   84.9710  114.7960 C.3   202  LYS202      0.0206
     60  CE        13.8640   85.8160  115.8240 C.3   202  LYS202      0.1093
     61  NZ        14.6840   86.9890  116.2260 N.3   202  LYS202     -0.1314
     62  N          6.9090   84.1680  113.3570 N.3   204  TYR204     -0.1241
     63  CA         6.0900   84.4580  114.5200 C.3   204  TYR204      0.1605
     64  C          4.6390   84.1340  114.2070 C.2   204  TYR204      0.2264
     65  O          4.1310   84.4890  113.1390 O.2   204  TYR204     -0.2867
     66  CB         6.2120   85.9280  114.9240 C.3   204  TYR204      0.0534
     67  CG         7.5900   86.3440  115.4010 C.ar  204  TYR204     -0.0201
     68  CD1        8.6380   86.4970  114.5060 C.ar  204  TYR204     -0.0009
     69  CD2        7.8320   86.6170  116.7430 C.ar  204  TYR204     -0.0009
     70  CE1        9.8890   86.9010  114.9300 C.ar  204  TYR204      0.0417
     71  CE2        9.0820   87.0220  117.1780 C.ar  204  TYR204      0.0417
     72  CZ        10.1050   87.1630  116.2640 C.ar  204  TYR204      0.1957
     73  OH        11.3570   87.5570  116.6810 O.3   204  TYR204     -0.2866
     74  N          7.2690   81.8320  118.3990 N.3   252  CYS252     -0.1235
     75  CA         8.2720   82.0960  117.3850 C.3   252  CYS252      0.1677
     76  C          9.0190   80.8040  117.1160 C.2   252  CYS252      0.2270
     77  O          9.4750   80.1420  118.0520 O.2   252  CYS252     -0.2867
     78  CB         9.2370   83.1910  117.8260 C.3   252  CYS252      0.0956
     79  SG        10.5330   83.4790  116.6380 S.3   252  CYS252     -0.0801
     80  N         10.1370   79.9440  120.9230 N.3   267  THR267     -0.1218
     81  CA         9.9780   80.9610  121.9510 C.3   267  THR267      0.1862
     82  C          8.4970   81.2220  122.1560 C.2   267  THR267      0.2287
     83  O          7.7450   81.3610  121.1880 O.2   267  THR267     -0.2866
     84  CB        10.6840   82.2720  121.5870 C.3   267  THR267      0.1770
     85  OG1       12.0980   82.0510  121.5320 O.3   267  THR267     -0.2211
     86  CG2       10.3810   83.3540  122.6280 C.3   267  THR267      0.0375
     87  N          5.9710   83.9870  123.7130 N.3   269  HIS269     -0.1241
     88  CA         5.8930   85.3990  124.0880 C.3   269  HIS269      0.1621
     89  C          4.5440   85.6580  124.7420 C.2   269  HIS269      0.2264
     90  O          3.5040   85.4680  124.1030 O.2   269  HIS269     -0.2867
     91  CB         6.0250   86.3200  122.8730 C.3   269  HIS269      0.0745
     92  CG         7.3360   86.2330  122.1540 C.ar  269  HIS269      0.0817
     93  ND1        8.3690   87.1150  122.3870 N.ar  269  HIS269     -0.2268
     94  CD2        7.7620   85.4070  121.1690 C.ar  269  HIS269      0.1154
     95  CE1        9.3830   86.8210  121.5930 C.ar  269  HIS269      0.1986
     96  NE2        9.0410   85.7890  120.8450 N.ar  269  HIS269     -0.2212
     97  N         12.6590   81.1440  126.0070 N.3   325  VAL325     -0.1245
     98  CA        13.3630   80.9230  124.7480 C.3   325  VAL325      0.1561
     99  C         14.0630   79.5750  124.7980 C.2   325  VAL325      0.2260
    100  O         14.9060   79.3410  125.6740 O.2   325  VAL325     -0.2867
    101  CB        14.3830   82.0380  124.4690 C.3   325  VAL325      0.0252
    102  CG1       15.0940   81.7780  123.1510 C.3   325  VAL325      0.0019
    103  CG2       13.6990   83.4070  124.4650 C.3   325  VAL325      0.0019
    104  N         16.6170   80.4480  128.0340 N.3   333  ARG333     -0.1245
    105  CA        16.8090   81.8830  128.1510 C.3   333  ARG333      0.1563
    106  C         15.4570   82.5380  128.3940 C.2   333  ARG333      0.2260
    107  O         14.4350   82.0810  127.8810 O.2   333  ARG333     -0.2867
    108  CB        17.5050   82.3920  126.8730 C.3   333  ARG333      0.0307
    109  CG        17.4110   83.8550  126.5590 C.3   333  ARG333      0.0489
    110  CD        18.4790   84.2320  125.5190 C.3   333  ARG333      0.2205
    111  NE        18.2060   83.8280  124.1380 N.pl3 333  ARG333     -0.0865
    112  CZ        17.4740   84.5320  123.2750 C.cat 333  ARG333      0.5346
    113  NH1       16.8880   85.6630  123.6480 N.pl3 333  ARG333      0.1354
    114  NH2       17.3180   84.0980  122.0300 N.pl3 333  ARG333      0.1354
    115  N         13.5850   86.3500  128.2490 N.3   335  THR335     -0.1218
    116  CA        13.7110   87.7000  127.7200 C.3   335  THR335      0.1862
    117  C         12.5980   88.5620  128.2910 C.2   335  THR335      0.2287
    118  O         11.4300   88.1590  128.2930 O.2   335  THR335     -0.2866
    119  CB        13.6540   87.7170  126.1890 C.3   335  THR335      0.1770
    120  OG1       14.6090   86.7890  125.6640 O.3   335  THR335     -0.2211
    121  CG2       13.9830   89.1090  125.6590 C.3   335  THR335      0.0375
    122  N         10.9450   92.3120  127.7770 N.3   337  TYR337     -0.1241
    123  CA        10.8570   93.4510  126.8700 C.3   337  TYR337      0.1605
    124  C         10.3570   94.6580  127.6490 C.2   337  TYR337      0.2264
    125  O          9.3090   94.5860  128.3000 O.2   337  TYR337     -0.2867
    126  CB         9.9340   93.1350  125.6950 C.3   337  TYR337      0.0534
    127  CG        10.4600   92.0070  124.8340 C.ar  337  TYR337     -0.0201
    128  CD1       10.2190   90.6860  125.1690 C.ar  337  TYR337     -0.0009
    129  CD2       11.2080   92.2660  123.7010 C.ar  337  TYR337     -0.0009
    130  CE1       10.7020   89.6570  124.3950 C.ar  337  TYR337      0.0417
    131  CE2       11.7060   91.2420  122.9250 C.ar  337  TYR337      0.0417
    132  CZ        11.4450   89.9380  123.2720 C.ar  337  TYR337      0.1957
    133  OH        11.9270   88.9020  122.5000 O.3   337  TYR337     -0.2866
@<TRIPOS>BOND
     1    33    32    2
     2    32    31    1
     3    45    44    2
     4    44    43    1
     5    30    31    1
     6    31    34    1
     7    56    55    2
     8    53    54    1
     9    43    42    1
    10    43    46    1
    11    55    54    1
    12    54    57    1
    13    34    35    1
    14    23    24    2
    15    23    22    1
    16    65    64    2
    17    22    21    1
    18    22    25    1
    19    62    63    1
    20    46    47    1
    21    57    58    1
    22    35    36   ar
    23    35    37   ar
    24    36    38   ar
    25    64    63    1
    26    58    59    1
    27    37    39   ar
    28    68    70   ar
    29    68    67   ar
    30    63    66    1
    31    47    48    1
    32    25    26    1
    33    59    60    1
    34    66    67    1
    35    70    72   ar
    36    38    40   ar
    37    26    27    1
    38    67    69   ar
    39    39    40   ar
    40    60    61    1
    41    40    41    1
    42    48    49    1
    43    49    50    2
    44    72    73    1
    45    72    71   ar
    46    79    78    1
    47    27    28    1
    48    69    71   ar
    49    50    51    1
    50    50    52    1
    51    76    75    1
    52    76    77    2
    53    75    78    1
    54    75    74    1
    55    28    29    1
    56    12    13    1
    57    17    16    1
    58    17    18    1
    59    15    14    2
    60    16    13    1
    61    20    18   ar
    62    13    14    1
    63    18    19   ar
    64    96    94   ar
    65    96    95   ar
    66    80    81    1
    67    94    92   ar
    68    83    82    2
    69    85    84    1
    70    84    81    1
    71    84    86    1
    72    95    93   ar
    73    81    82    1
    74   114   112    1
    75    92    93   ar
    76    92    91    1
    77     5     6    1
    78     5     2    1
    79    10     9    1
    80     6     7    1
    81   133   132    1
    82     3     2    1
    83     3     4    2
    84     2     1    1
    85    11     9    1
    86     9     8    2
    87    91    88    1
    88   131   132   ar
    89   131   129   ar
    90   102   101    1
    91   132   130   ar
    92   112   113    1
    93   112   111    2
    94     8     7    1
    95   129   127   ar
    96    87    88    1
    97    88    89    1
    98    90    89    2
    99   111   110    1
   100   130   128   ar
   101   103   101    1
   102   101    98    1
   103    98    99    1
   104    98    97    1
   105    99   100    2
   106   127   128   ar
   107   127   126    1
   108   110   109    1
   109   121   119    1
   110   120   119    1
   111   126   123    1
   112   119   116    1
   113   109   108    1
   114   123   124    1
   115   123   122    1
   116   108   105    1
   117   124   125    2
   118   116   115    1
   119   116   117    1
   120   107   106    2
   121   104   105    1
   122   105   106    1
   123   117   118    2
