@<TRIPOS>MOLECULE
tmp/5k9tA00.pdb
 152 146 0 0 0
SMALL
GASTEIGER

@<TRIPOS>ATOM
      1  N         17.2910   29.2290   13.5140 N.3    66  GLY66      -0.1210
      2  CA        18.4380   30.0290   13.1410 C.3    66  GLY66       0.1956
      3  C         19.3720   29.3510   12.1690 C.2    66  GLY66       0.2612
      4  O         20.5350   29.7340   12.0880 O.2    66  GLY66      -0.2717
      5  N         18.8950   28.3560   11.4170 N.am   67  MET67      -0.1965
      6  CA        19.7340   27.5470   10.5350 C.3    67  MET67       0.1736
      7  C         19.1820   27.5940    9.1190 C.2    67  MET67       0.2616
      8  O         18.0590   27.1460    8.8740 O.2    67  MET67      -0.2715
      9  CB        19.8100   26.0930   11.0190 C.3    67  MET67       0.0427
     10  CG        20.3460   25.9130   12.4340 C.3    67  MET67       0.0599
     11  SD        20.5860   24.1720   12.8440 S.3    67  MET67      -0.1393
     12  CE        20.4950   24.2070   14.6290 C.3    67  MET67       0.0692
     13  N         19.9750   28.1130    8.1870 N.am   68  ARG68      -0.1963
     14  CA        19.5950   28.1820    6.7830 C.3    68  ARG68       0.1729
     15  C         20.2750   27.0460    6.0310 C.2    68  ARG68       0.2616
     16  O         21.5090   27.0120    5.9490 O.2    68  ARG68      -0.2715
     17  CB        19.9850   29.5300    6.1760 C.3    68  ARG68       0.0348
     18  CG        19.8060   29.6110    4.6590 C.3    68  ARG68       0.0492
     19  CD        20.2010   30.9780    4.1380 C.3    68  ARG68       0.2205
     20  NE        20.0000   31.1080    2.7050 N.pl3  68  ARG68      -0.0865
     21  CZ        20.8090   30.5810    1.7910 C.cat  68  ARG68       0.5346
     22  NH1       21.8680   29.8690    2.1600 N.pl3  68  ARG68       0.1354
     23  NH2       20.5610   30.7580    0.5040 N.pl3  68  ARG68       0.1354
     24  N         19.4720   26.1380    5.4690 N.am   69  HIS69      -0.1959
     25  CA        20.0080   24.9790    4.7620 C.3    69  HIS69       0.1787
     26  C         21.1010   25.3980    3.7810 C.2    69  HIS69       0.2620
     27  O         20.8880   26.2660    2.9270 O.2    69  HIS69      -0.2715
     28  CB        18.8840   24.2540    4.0120 C.3    69  HIS69       0.0785
     29  CG        17.8000   23.7240    4.8970 C.ar   69  HIS69       0.0821
     30  ND1       16.9160   24.5410    5.5760 N.ar   69  HIS69      -0.2267
     31  CD2       17.4570   22.4540    5.2160 C.ar   69  HIS69       0.1154
     32  CE1       16.0760   23.7980    6.2720 C.ar   69  HIS69       0.1986
     33  NE2       16.3860   22.5290    6.0760 N.ar   69  HIS69      -0.2212
     34  N         22.2760   24.7840    3.9030 N.am   70  PHE70      -0.1974
     35  CA        23.3130   25.0450    2.9150 C.3    70  PHE70       0.1639
     36  C         22.9240   24.4440    1.5710 C.2    70  PHE70       0.2290
     37  O         22.1220   23.5100    1.4850 O.2    70  PHE70      -0.2864
     38  CB        24.6680   24.4610    3.3290 C.3    70  PHE70       0.0560
     39  CG        25.0160   24.6670    4.7670 C.ar   70  PHE70      -0.0200
     40  CD1       25.0240   25.9390    5.3230 C.ar   70  PHE70      -0.0042
     41  CD2       25.3590   23.5810    5.5600 C.ar   70  PHE70      -0.0042
     42  CE1       25.3440   26.1240    6.6530 C.ar   70  PHE70      -0.0003
     43  CE2       25.6890   23.7540    6.8820 C.ar   70  PHE70      -0.0003
     44  CZ        25.6800   25.0310    7.4390 C.ar   70  PHE70      -0.0000
     45  N         23.2090   20.8040    1.4990 N.3    73  GLN73      -0.1245
     46  CA        22.0940   20.1600    2.1710 C.3    73  GLN73       0.1566
     47  C         20.8480   20.1490    1.2980 C.2    73  GLN73       0.2260
     48  O         20.0650   19.1940    1.3580 O.2    73  GLN73      -0.2867
     49  CB        21.8230   20.8430    3.5040 C.3    73  GLN73       0.0367
     50  CG        22.8640   20.5480    4.5700 C.3    73  GLN73       0.0905
     51  CD        22.6210   21.3680    5.8130 C.2    73  GLN73       0.2608
     52  OE1       22.1350   22.4990    5.7270 O.2    73  GLN73      -0.2717
     53  NE2       22.9340   20.8070    6.9730 N.am   73  GLN73      -0.0878
     54  N         30.1290   13.0970    8.1780 N.3    90  THR90      -0.1203
     55  CA        29.7270   13.3910    9.5470 C.3    90  THR90       0.1994
     56  C         29.7500   14.8950    9.7850 C.2    90  THR90       0.2618
     57  O         30.6780   15.5940    9.3620 O.2    90  THR90      -0.2717
     58  CB        30.6550   12.6890   10.5450 C.3    90  THR90       0.1784
     59  OG1       30.6800   11.2820   10.2750 O.3    90  THR90      -0.2211
     60  CG2       30.1700   12.9100   11.9750 C.3    90  THR90       0.0376
     61  N         28.7160   15.3900   10.4640 N.am   91  GLY91      -0.1942
     62  CA        28.5990   16.8060   10.7200 C.3    91  GLY91       0.2014
     63  C         28.2530   17.6410    9.5120 C.2    91  GLY91       0.2639
     64  O         28.3780   18.8690    9.5650 O.2    91  GLY91      -0.2714
     65  N         27.8340   17.0180    8.4150 N.am   92  GLU92      -0.1963
     66  CA        27.3110   17.7730    7.2900 C.3    92  GLU92       0.1733
     67  C         25.8630   18.2040    7.5020 C.2    92  GLU92       0.2617
     68  O         25.3190   18.9160    6.6520 O.2    92  GLU92      -0.2715
     69  CB        27.4400   16.9480    6.0080 C.3    92  GLU92       0.0429
     70  CG        28.8510   16.9220    5.4600 C.3    92  GLU92       0.1163
     71  CD        29.3360   18.3060    5.0680 C.2    92  GLU92       0.3649
     72  OE1       28.7900   18.8720    4.0990 O.co2  92  GLU92      -0.2457
     73  OE2       30.2580   18.8300    5.7350 O.co2  92  GLU92      -0.2457
     74  N         25.2330   17.7780    8.5940 N.am   93  GLY93      -0.1940
     75  CA        23.8810   18.1650    8.9120 C.3    93  GLY93       0.2014
     76  C         22.7900   17.2360    8.4300 C.2    93  GLY93       0.2639
     77  O         21.7040   17.7120    8.0890 O.2    93  GLY93      -0.2714
     78  N         23.0320   15.9250    8.4140 N.am   94  LYS94      -0.1963
     79  CA        22.0420   14.9960    7.8870 C.3    94  LYS94       0.1728
     80  C         20.6930   15.1040    8.6010 C.2    94  LYS94       0.2617
     81  O         19.6500   14.8880    7.9720 O.2    94  LYS94      -0.2715
     82  CB        22.5960   13.5680    7.9560 C.3    94  LYS94       0.0311
     83  CG        23.7570   13.3610    6.9990 C.3    94  LYS94       0.0038
     84  CD        24.2900   11.9350    6.9680 C.3    94  LYS94       0.0206
     85  CE        25.1590   11.6320    8.1920 C.3    94  LYS94       0.1093
     86  NZ        26.2520   12.6260    8.3840 N.3    94  LYS94      -0.1314
     87  N         20.6810   15.4560    9.8950 N.am   95  THR95      -0.1937
     88  CA        19.4110   15.5540   10.6190 C.3    95  THR95       0.2028
     89  C         18.5620   16.6990   10.0900 C.2    95  THR95       0.2642
     90  O         17.3620   16.5390    9.8390 O.2    95  THR95      -0.2714
     91  CB        19.6440   15.7500   12.1130 C.3    95  THR95       0.1808
     92  OG1       20.6260   14.8180   12.5850 O.3    95  THR95      -0.2208
     93  CG2       18.3450   15.5320   12.8560 C.3    95  THR95       0.0379
     94  N         19.1620   17.8740    9.9510 N.am   96  LEU96      -0.1977
     95  CA        18.4350   18.9960    9.3780 C.3    96  LEU96       0.1596
     96  C         18.1370   18.7390    7.9000 C.2    96  LEU96       0.2287
     97  O         17.0400   19.0560    7.4140 O.2    96  LEU96      -0.2864
     98  CB        19.2490   20.2740    9.6130 C.3    96  LEU96       0.0297
     99  CG        18.7810   21.6420    9.1490 C.3    96  LEU96       0.0022
    100  CD1       18.9130   21.6060    7.6710 C.3    96  LEU96       0.0001
    101  CD2       17.3400   21.8830    9.5180 C.3    96  LEU96       0.0001
    102  N         15.5510   12.2320   19.9370 N.3   124  ARG124     -0.1245
    103  CA        16.2690   13.4990   19.8490 C.3   124  ARG124      0.1563
    104  C         15.9540   14.2250   18.5450 C.2   124  ARG124      0.2260
    105  O         15.5980   15.4110   18.5510 O.2   124  ARG124     -0.2867
    106  CB        17.7650   13.2710   19.9840 C.3   124  ARG124      0.0307
    107  CG        18.5480   14.5610   19.9300 C.3   124  ARG124      0.0489
    108  CD        19.9810   14.3150   19.5000 C.3   124  ARG124      0.2205
    109  NE        20.0920   13.9150   18.0970 N.pl3 124  ARG124     -0.0865
    110  CZ        21.2400   13.9130   17.4200 C.cat 124  ARG124      0.5346
    111  NH1       22.3670   14.2890   18.0210 N.pl3 124  ARG124      0.1354
    112  NH2       21.2680   13.5410   16.1440 N.pl3 124  ARG124      0.1354
    113  N         18.2310    7.0540    8.2030 N.3   195  ASP195     -0.1239
    114  CA        19.4790    7.6260    8.6770 C.3   195  ASP195      0.1674
    115  C         20.4620    6.5110    9.0160 C.2   195  ASP195      0.2266
    116  O         20.0720    5.3650    9.2600 O.2   195  ASP195     -0.2867
    117  CB        19.2380    8.5000    9.9050 C.3   195  ASP195      0.1410
    118  CG        20.3630    9.4940   10.1430 C.2   195  ASP195      0.3668
    119  OD1       21.4110    9.3740    9.4770 O.co2 195  ASP195     -0.2456
    120  OD2       20.2050   10.3880   11.0090 O.co2 195  ASP195     -0.2456
    121  N         26.6370   10.2110   16.1910 N.3   496  GLY496     -0.1225
    122  CA        25.5490   11.1110   15.8980 C.3   496  GLY496      0.1811
    123  C         25.5340   12.3920   16.7020 C.2   496  GLY496      0.2280
    124  O         24.6640   13.2420   16.4620 O.2   496  GLY496     -0.2866
    125  N         27.4460   15.7750   17.4440 N.3   498  ASP498     -0.1239
    126  CA        28.5050   16.6520   16.9680 C.3   498  ASP498      0.1674
    127  C         29.5050   16.9500   18.0830 C.2   498  ASP498      0.2266
    128  O         29.1300   17.2100   19.2280 O.2   498  ASP498     -0.2867
    129  CB        27.8950   17.9530   16.4420 C.3   498  ASP498      0.1410
    130  CG        28.7960   18.6790   15.4480 C.2   498  ASP498      0.3668
    131  OD1       29.4720   18.0060   14.6390 O.co2 498  ASP498     -0.2456
    132  OD2       28.8080   19.9310   15.4610 O.co2 498  ASP498     -0.2456
    133  N         34.9380   18.1040   10.9480 N.3   563  ARG563     -0.1231
    134  CA        33.6140   18.5360   10.5200 C.3   563  ARG563      0.1694
    135  C         33.6220   19.9840   10.0270 C.2   563  ARG563      0.2591
    136  O         34.3640   20.8380   10.5260 O.2   563  ARG563     -0.2718
    137  CB        32.6190   18.3990   11.6760 C.3   563  ARG563      0.0321
    138  CG        33.0870   19.1560   12.9120 C.3   563  ARG563      0.0489
    139  CD        32.0970   19.1180   14.0440 C.3   563  ARG563      0.2205
    140  NE        30.9430   19.9890   13.8200 N.pl3 563  ARG563     -0.0865
    141  CZ        31.0060   21.3150   13.7530 C.cat 563  ARG563      0.5346
    142  NH1       29.8970   22.0220   13.5660 N.pl3 563  ARG563      0.1354
    143  NH2       32.1770   21.9300   13.8520 N.pl3 563  ARG563      0.1354
    144  N         32.7660   20.2550    9.0430 N.am  564  GLN564     -0.1979
    145  CA        32.5530   21.6080    8.5470 C.3   564  GLN564      0.1601
    146  C         33.8620   22.3720    8.3650 C.2   564  GLN564      0.2287
    147  O         33.9580   23.5440    8.7360 O.2   564  GLN564     -0.2864
    148  CB        31.6220   22.3700    9.4900 C.3   564  GLN564      0.0394
    149  CG        30.1950   21.8460    9.5220 C.3   564  GLN564      0.0908
    150  CD        29.4120   22.1680    8.2460 C.2   564  GLN564      0.2608
    151  OE1       29.7890   23.0530    7.4720 O.2   564  GLN564     -0.2717
    152  NE2       28.3150   21.4460    8.0290 N.am  564  GLN564     -0.0878
@<TRIPOS>BOND
     1    23    21    1
     2    47    48    2
     3    47    46    1
     4    37    36    2
     5    45    46    1
     6    36    35    1
     7    21    22    1
     8    21    20    2
     9    46    49    1
    10    20    19    1
    11    35    38    1
    12    35    34    1
    13    27    26    2
    14    38    39    1
    15    49    50    1
    16    26    34   am
    17    26    25    1
    18    28    25    1
    19    28    29    1
    20    72    71   ar
    21    19    18    1
    22    50    51    1
    23    18    17    1
    24    25    24    1
    25    39    40   ar
    26    39    41   ar
    27    29    31   ar
    28    29    30   ar
    29    71    70    1
    30    71    73   ar
    31    31    33   ar
    32    40    42   ar
    33    70    69    1
    34    24    15   am
    35    41    43   ar
    36    30    32   ar
    37    52    51    2
    38    51    53   am
    39    16    15    2
    40    69    66    1
    41    15    14    1
    42    33    32   ar
    43    17    14    1
    44    68    67    2
    45    42    44   ar
    46    14    13    1
    47    43    44   ar
    48    84    83    1
    49    84    85    1
    50    83    82    1
    51    66    67    1
    52    66    65    1
    53    97    96    2
    54   151   150    2
    55    67    74   am
    56   100    99    1
    57    79    82    1
    58    79    78    1
    59    79    80    1
    60    96    95    1
    61    81    80    2
    62   152   150   am
    63    77    76    2
    64    54    55    1
    65    13     7   am
    66    85    86    1
    67   113   114    1
    68   150   149    1
    69   146   145    1
    70   146   147    2
    71    78    76   am
    72    65    63   am
    73    76    75    1
    74   145   144    1
    75   145   148    1
    76    74    75    1
    77    80    87   am
    78   114   115    1
    79   114   117    1
    80     8     7    2
    81   115   116    2
    82   144   135   am
    83     7     6    1
    84    99   101    1
    85    99    98    1
    86    57    56    2
    87    95    98    1
    88    95    94    1
    89   119   118   ar
    90   148   149    1
    91    63    64    2
    92    63    62    1
    93    55    56    1
    94    55    58    1
    95    56    61   am
    96    90    89    2
    97    87    88    1
    98   117   118    1
    99    94    89   am
   100   135   134    1
   101   135   136    2
   102    89    88    1
   103   118   120   ar
   104    59    58    1
   105    61    62    1
   106   134   133    1
   107   134   137    1
   108     6     9    1
   109     6     5    1
   110    58    60    1
   111    88    91    1
   112     9    10    1
   113     5     3   am
   114   137   138    1
   115     4     3    2
   116    91    92    1
   117    91    93    1
   118     3     2    1
   119    10    11    1
   120    11    12    1
   121   138   139    1
   122     2     1    1
   123   142   141    1
   124   141   140    2
   125   141   143    1
   126   140   139    1
   127   131   130   ar
   128   130   132   ar
   129   130   129    1
   130   122   121    1
   131   122   123    1
   132   112   110    1
   133   129   126    1
   134   124   123    2
   135   126   125    1
   136   126   127    1
   137   110   111    1
   138   110   109    2
   139   127   128    2
   140   109   108    1
   141   104   105    2
   142   104   103    1
   143   108   107    1
   144   103   102    1
   145   103   106    1
   146   107   106    1
