@<TRIPOS>MOLECULE
tmp/5kaeA00.pdb
 181 175 0 0 0
SMALL
GASTEIGER

@<TRIPOS>ATOM
      1  N         14.5080   13.9060   12.2350 N.3   561  LYS561     -0.1231
      2  CA        15.1040   15.2240   11.9970 C.3   561  LYS561      0.1693
      3  C         16.5980   15.1440   11.6640 C.2   561  LYS561      0.2592
      4  O         17.2170   14.1020   11.8210 O.2   561  LYS561     -0.2718
      5  CB        14.9310   16.1090   13.2430 C.3   561  LYS561      0.0285
      6  CG        13.5350   16.0680   13.8680 C.3   561  LYS561      0.0035
      7  CD        13.0680   17.4170   14.4280 C.3   561  LYS561      0.0206
      8  CE        11.6600   17.7900   13.9370 C.3   561  LYS561      0.1093
      9  NZ        11.0760   19.0090   14.5880 N.3   561  LYS561     -0.1314
     10  N         17.1610   16.2590   11.2060 N.am  562  VAL562     -0.1966
     11  CA        18.6170   16.4390   11.0940 C.3   562  VAL562      0.1727
     12  C         18.9910   17.6710   11.9230 C.2   562  VAL562      0.2616
     13  O         18.1800   18.5800   12.0710 O.2   562  VAL562     -0.2715
     14  CB        19.0650   16.6300    9.6320 C.3   562  VAL562      0.0290
     15  CG1       20.5770   16.7630    9.5430 C.3   562  VAL562      0.0023
     16  CG2       18.5970   15.4640    8.7800 C.3   562  VAL562      0.0023
     17  N         20.1930   17.7000   12.4930 N.am  563  MET563     -0.1963
     18  CA        20.5420   18.7620   13.4380 C.3   563  MET563      0.1736
     19  C         21.1580   19.9570   12.7270 C.2   563  MET563      0.2616
     20  O         21.9690   19.7850   11.8220 O.2   563  MET563     -0.2715
     21  CB        21.5030   18.2340   14.5120 C.3   563  MET563      0.0427
     22  CG        21.6110   19.1110   15.7590 C.3   563  MET563      0.0599
     23  SD        22.7670   18.4880   17.0090 S.3   563  MET563     -0.1393
     24  CE        22.5590   19.7470   18.2700 C.3   563  MET563      0.0692
     25  N         20.7680   21.1640   13.1390 N.am  564  ALA564     -0.1977
     26  CA        21.4720   22.3830   12.7470 C.3   564  ALA564      0.1597
     27  C         22.8620   22.3470   13.3960 C.2   564  ALA564      0.2287
     28  O         23.1370   23.0390   14.3790 O.2   564  ALA564     -0.2864
     29  CB        20.7000   23.6170   13.1840 C.3   564  ALA564      0.0319
     30  N         24.0040   15.1230   12.3590 N.3   569  PRO569     -0.2102
     31  CA        23.4800   13.8260   12.7980 C.3   569  PRO569      0.1504
     32  C         21.9780   13.6870   12.5670 C.2   569  PRO569      0.2576
     33  O         21.2530   14.6960   12.5390 O.2   569  PRO569     -0.2718
     34  CB        23.7540   13.8230   14.3120 C.3   569  PRO569      0.0282
     35  CG        23.8880   15.2570   14.6860 C.3   569  PRO569      0.0208
     36  CD        24.5270   15.9100   13.4930 C.3   569  PRO569      0.0893
     37  N         21.5170   12.4490   12.4400 N.am  570  LEU570     -0.1966
     38  CA        20.0980   12.1740   12.3330 C.3   570  LEU570      0.1728
     39  C         19.4750   11.9090   13.6770 C.2   570  LEU570      0.2616
     40  O         20.1450   11.5420   14.6110 O.2   570  LEU570     -0.2715
     41  CB        19.8480   10.9680   11.4470 C.3   570  LEU570      0.0311
     42  CG        20.2630   11.2100   10.0160 C.3   570  LEU570      0.0022
     43  CD1       20.0530    9.9230    9.2360 C.3   570  LEU570      0.0001
     44  CD2       19.4810   12.3870    9.4240 C.3   570  LEU570      0.0001
     45  N         18.1620   12.0920   13.7420 N.am  571  TRP571     -0.1974
     46  CA        17.3650   11.8250   14.9340 C.3   571  TRP571      0.1640
     47  C         16.2300   10.9710   14.4680 C.2   571  TRP571      0.2290
     48  O         15.3310   11.4610   13.8180 O.2   571  TRP571     -0.2864
     49  CB        16.8900   13.1520   15.4950 C.3   571  TRP571      0.0576
     50  CG        15.8800   13.0990   16.6040 C.ar  571  TRP571      0.0006
     51  CD1       14.5390   12.7420   16.5270 C.ar  571  TRP571      0.0946
     52  CD2       16.0810   13.5080   17.9840 C.ar  571  TRP571      0.0152
     53  NE1       13.9340   12.8650   17.7420 N.ar  571  TRP571     -0.2442
     54  CE2       14.7990   13.3310   18.6550 C.ar  571  TRP571      0.0810
     55  CE3       17.1560   13.9730   18.7080 C.ar  571  TRP571      0.0012
     56  CZ2       14.6320   13.6120   19.9920 C.ar  571  TRP571      0.0191
     57  CZ3       16.9740   14.2570   20.0580 C.ar  571  TRP571      0.0001
     58  CH2       15.7420   14.0790   20.6810 C.ar  571  TRP571      0.0015
     59  N         19.8340    8.3450   17.6470 N.3   590  ILE590     -0.1245
     60  CA        20.5910    9.3380   16.8670 C.3   590  ILE590      0.1561
     61  C         21.6780    8.6080   16.0850 C.2   590  ILE590      0.2260
     62  O         22.3040    7.7060   16.6240 O.2   590  ILE590     -0.2867
     63  CB        21.3190   10.3530   17.7790 C.3   590  ILE590      0.0252
     64  CG1       20.3450   11.3360   18.4060 C.3   590  ILE590      0.0019
     65  CG2       22.4060   11.0930   17.0130 C.3   590  ILE590      0.0019
     66  CD1       20.9930   12.2190   19.4460 C.3   590  ILE590      0.0001
     67  N         23.6800    7.1030   28.8020 N.3   626  TYR626     -0.1241
     68  CA        22.8540    6.6260   27.7010 C.3   626  TYR626      0.1605
     69  C         23.5930    5.6010   26.8390 C.2   626  TYR626      0.2264
     70  O         24.8140    5.6020   26.7810 O.2   626  TYR626     -0.2867
     71  CB        22.3990    7.8230   26.8420 C.3   626  TYR626      0.0534
     72  CG        23.5320    8.7660   26.4680 C.ar  626  TYR626     -0.0201
     73  CD1       23.8940    9.8300   27.3020 C.ar  626  TYR626     -0.0009
     74  CD2       24.2480    8.5830   25.3000 C.ar  626  TYR626     -0.0009
     75  CE1       24.9420   10.6730   26.9790 C.ar  626  TYR626      0.0417
     76  CE2       25.2900    9.4220   24.9600 C.ar  626  TYR626      0.0417
     77  CZ        25.6320   10.4650   25.7930 C.ar  626  TYR626      0.1957
     78  OH        26.6710   11.2930   25.4370 O.3   626  TYR626     -0.2866
     79  N         23.4900    6.6400   19.0520 N.3   638  ILE638     -0.1231
     80  CA        23.3410    7.1040   20.4270 C.3   638  ILE638      0.1692
     81  C         21.8900    7.0010   20.8930 C.2   638  ILE638      0.2592
     82  O         20.9810    7.4840   20.2120 O.2   638  ILE638     -0.2718
     83  CB        23.7610    8.5610   20.5170 C.3   638  ILE638      0.0266
     84  CG1       25.2660    8.6770   20.2220 C.3   638  ILE638      0.0019
     85  CG2       23.3860    9.1110   21.8770 C.3   638  ILE638      0.0020
     86  CD1       25.7770   10.0800   20.0360 C.3   638  ILE638      0.0001
     87  N         21.6600    6.3830   22.0450 N.am  639  GLU639     -0.1966
     88  CA        20.2920    6.2720   22.5740 C.3   639  GLU639      0.1733
     89  C         19.7450    7.6660   22.8170 C.2   639  GLU639      0.2616
     90  O         20.3750    8.4430   23.5350 O.2   639  GLU639     -0.2715
     91  CB        20.2720    5.4660   23.8830 C.3   639  GLU639      0.0429
     92  CG        18.9450    5.5080   24.6340 C.3   639  GLU639      0.1163
     93  CD        18.9910    4.8360   26.0110 C.2   639  GLU639      0.3649
     94  OE1       17.9140    4.7260   26.6450 O.co2 639  GLU639     -0.2457
     95  OE2       20.0790    4.4120   26.4740 O.co2 639  GLU639     -0.2457
     96  N         18.6030    7.9970   22.2130 N.am  640  ILE640     -0.1963
     97  CA        17.9610    9.2960   22.4740 C.3   640  ILE640      0.1727
     98  C         17.3360    9.3050   23.8590 C.2   640  ILE640      0.2616
     99  O         16.5060    8.4580   24.1530 O.2   640  ILE640     -0.2715
    100  CB        16.8240    9.6180   21.4940 C.3   640  ILE640      0.0290
    101  CG1       17.3800    9.8950   20.1040 C.3   640  ILE640      0.0022
    102  CG2       16.0230   10.8260   21.9940 C.3   640  ILE640      0.0023
    103  CD1       16.3060   10.1270   19.0610 C.3   640  ILE640      0.0001
    104  N         17.7180   10.2620   24.6940 N.am  641  VAL641     -0.1977
    105  CA        17.1040   10.4110   26.0080 C.3   641  VAL641      0.1596
    106  C         15.8920   11.2980   25.8800 C.2   641  VAL641      0.2287
    107  O         16.0160   12.4490   25.4830 O.2   641  VAL641     -0.2864
    108  CB        18.0650   11.0430   27.0300 C.3   641  VAL641      0.0276
    109  CG1       17.3140   11.3780   28.3190 C.3   641  VAL641      0.0022
    110  CG2       19.2730   10.1220   27.2650 C.3   641  VAL641      0.0022
    111  N         14.1170   15.7170   27.1910 N.3   644  ALA644     -0.1231
    112  CA        15.3850   16.3100   27.6380 C.3   644  ALA644      0.1694
    113  C         15.8430   17.4220   26.7140 C.2   644  ALA644      0.2593
    114  O         15.6950   17.3350   25.4960 O.2   644  ALA644     -0.2718
    115  CB        16.4670   15.2470   27.7320 C.3   644  ALA644      0.0304
    116  N         16.4190   18.4630   27.2980 N.am  645  THR645     -0.1939
    117  CA        16.9000   19.6050   26.5220 C.3   645  THR645      0.2028
    118  C         18.3020   19.9710   27.0030 C.2   645  THR645      0.2642
    119  O         18.7380   19.5190   28.0650 O.2   645  THR645     -0.2714
    120  CB        15.9250   20.8080   26.6300 C.3   645  THR645      0.1808
    121  OG1       16.3310   21.8530   25.7420 O.3   645  THR645     -0.2208
    122  CG2       15.8800   21.3590   28.0390 C.3   645  THR645      0.0379
    123  N         19.0100   20.7700   26.2130 N.am  646  THR646     -0.1950
    124  CA        20.3440   21.2200   26.6000 C.3   646  THR646      0.1897
    125  C         20.2270   22.4070   27.5340 C.2   646  THR646      0.2313
    126  O         19.1980   23.0820   27.5570 O.2   646  THR646     -0.2863
    127  CB        21.1960   21.6270   25.3870 C.3   646  THR646      0.1794
    128  OG1       20.7420   22.8850   24.8710 O.3   646  THR646     -0.2208
    129  CG2       21.1460   20.5460   24.2950 C.3   646  THR646      0.0378
    130  N         20.0400   25.7730   25.5940 N.3   649  LYS649     -0.1245
    131  CA        18.7410   26.1040   25.0050 C.3   649  LYS649      0.1561
    132  C         17.8140   26.7390   26.0440 C.2   649  LYS649      0.2260
    133  O         17.0720   27.6760   25.7280 O.2   649  LYS649     -0.2867
    134  CB        18.0960   24.8530   24.3870 C.3   649  LYS649      0.0271
    135  CG        16.8000   25.1120   23.6310 C.3   649  LYS649      0.0035
    136  CD        16.2450   23.8490   22.9730 C.3   649  LYS649      0.0206
    137  CE        14.9970   24.1550   22.1420 C.3   649  LYS649      0.1093
    138  NZ        14.4910   22.9690   21.3820 N.3   649  LYS649     -0.1314
    139  N         26.1670   23.7740   25.9590 N.3   709  ASP709     -0.1239
    140  CA        25.2940   23.1600   24.9570 C.3   709  ASP709      0.1674
    141  C         25.6800   21.6920   24.7670 C.2   709  ASP709      0.2266
    142  O         25.1890   21.0360   23.8560 O.2   709  ASP709     -0.2867
    143  CB        25.2850   23.9460   23.6210 C.3   709  ASP709      0.1410
    144  CG        26.5630   23.7830   22.8080 C.2   709  ASP709      0.3668
    145  OD1       27.6340   23.4790   23.3870 O.co2 709  ASP709     -0.2456
    146  OD2       26.4910   23.9850   21.5760 O.co2 709  ASP709     -0.2456
    147  N         22.9200   18.2550   29.2230 N.3   712  MET712     -0.1245
    148  CA        21.4700   18.2070   29.1040 C.3   712  MET712      0.1570
    149  C         20.8100   17.9780   30.4540 C.2   712  MET712      0.2261
    150  O         21.4750   17.5870   31.4290 O.2   712  MET712     -0.2867
    151  CB        21.0430   17.0960   28.1530 C.3   712  MET712      0.0387
    152  CG        21.5920   17.2190   26.7340 C.3   712  MET712      0.0595
    153  SD        20.7070   16.2310   25.4990 S.3   712  MET712     -0.1393
    154  CE        19.1550   17.1160   25.4680 C.3   712  MET712      0.0692
    155  N         22.7130   15.5050   32.7580 N.3   720  PHE720     -0.1241
    156  CA        23.7200   14.6030   32.2120 C.3   720  PHE720      0.1605
    157  C         24.5400   15.2280   31.0860 C.2   720  PHE720      0.2264
    158  O         24.0280   16.0170   30.3200 O.2   720  PHE720     -0.2867
    159  CB        23.0740   13.3060   31.7290 C.3   720  PHE720      0.0534
    160  CG        22.0830   13.4930   30.6230 C.ar  720  PHE720     -0.0203
    161  CD1       20.8120   13.9450   30.8860 C.ar  720  PHE720     -0.0042
    162  CD2       22.4150   13.1940   29.3230 C.ar  720  PHE720     -0.0042
    163  CE1       19.8830   14.1090   29.8700 C.ar  720  PHE720     -0.0003
    164  CE2       21.4980   13.3600   28.3020 C.ar  720  PHE720     -0.0003
    165  CZ        20.2300   13.8150   28.5740 C.ar  720  PHE720     -0.0000
    166  N         26.8550   15.0460   27.5780 N.3   722  ILE722     -0.1231
    167  CA        26.8250   14.3090   26.3110 C.3   722  ILE722      0.1692
    168  C         28.0650   14.6140   25.4820 C.2   722  ILE722      0.2592
    169  O         28.9000   15.3510   25.9260 O.2   722  ILE722     -0.2718
    170  CB        25.5690   14.6390   25.4910 C.3   722  ILE722      0.0266
    171  CG1       25.4190   16.1590   25.2740 C.3   722  ILE722      0.0019
    172  CG2       24.3550   14.0370   26.1700 C.3   722  ILE722      0.0020
    173  CD1       24.4870   16.5230   24.1360 C.3   722  ILE722      0.0001
    174  N         28.1930   14.0340   24.2980 N.am  723  ASP723     -0.1974
    175  CA        29.2400   14.4140   23.3520 C.3   723  ASP723      0.1709
    176  C         30.6290   14.3480   23.9680 C.2   723  ASP723      0.2293
    177  O         31.3980   15.3050   23.9320 O.2   723  ASP723     -0.2864
    178  CB        28.9650   15.8180   22.7800 C.3   723  ASP723      0.1436
    179  CG        27.8200   15.8330   21.7730 C.2   723  ASP723      0.3671
    180  OD1       27.8780   15.0710   20.7730 O.co2 723  ASP723     -0.2456
    181  OD2       26.8650   16.6180   21.9730 O.co2 723  ASP723     -0.2456
@<TRIPOS>BOND
     1    16    14    1
     2    43    42    1
     3    44    42    1
     4    15    14    1
     5    14    11    1
     6    42    41    1
     7    11    10    1
     8    11    12    1
     9    10     3   am
    10    41    38    1
    11     3     4    2
    12     3     2    1
    13    20    19    2
    14    12    13    2
    15    12    17   am
    16     2     1    1
    17     2     5    1
    18    38    37    1
    19    38    39    1
    20    30    31    1
    21    30    36    1
    22    37    32   am
    23    17    18    1
    24    33    32    2
    25    32    31    1
    26    19    25   am
    27    19    18    1
    28    26    25    1
    29    26    29    1
    30    26    27    1
    31    31    34    1
    32     5     6    1
    33    27    28    2
    34    18    21    1
    35    36    35    1
    36    39    45   am
    37    39    40    2
    38    45    46    1
    39    48    47    2
    40     6     7    1
    41     8     7    1
    42     8     9    1
    43    34    35    1
    44    47    46    1
    45    21    22    1
    46    46    49    1
    47    49    50    1
    48    22    23    1
    49    61    62    2
    50    61    60    1
    51    51    50   ar
    52    51    53   ar
    53    50    52   ar
    54    60    59    1
    55    60    63    1
    56    23    24    1
    57    65    63    1
    58    53    54   ar
    59    63    64    1
    60    52    54   ar
    61    52    55   ar
    62    64    66    1
    63    54    56   ar
    64    55    57   ar
    65    79    80    1
    66   103   101    1
    67    56    58   ar
    68    86    84    1
    69    57    58   ar
    70   101   100    1
    71    82    81    2
    72    84    83    1
    73    80    83    1
    74    80    81    1
    75    83    85    1
    76   180   179   ar
    77    81    87   am
    78   138   137    1
    79   100   102    1
    80   100    97    1
    81   146   144   ar
    82   179   181   ar
    83   179   178    1
    84    87    88    1
    85   137   136    1
    86    96    97    1
    87    96    89   am
    88    97    98    1
    89    88    89    1
    90    88    91    1
    91   178   175    1
    92   144   145   ar
    93   144   143    1
    94    89    90    2
    95   136   135    1
    96   175   176    1
    97   175   174    1
    98   143   140    1
    99   135   134    1
   100   142   141    2
   101    98    99    2
   102    98   104   am
   103    91    92    1
   104   177   176    2
   105   173   171    1
   106   129   127    1
   107   174   168   am
   108   134   131    1
   109    92    93    1
   110   104   105    1
   111   141   140    1
   112   128   127    1
   113   140   139    1
   114    76    74   ar
   115    76    77   ar
   116   131   130    1
   117   131   132    1
   118   171   170    1
   119    74    72   ar
   120   127   124    1
   121    78    77    1
   122   154   153    1
   123   168   169    2
   124   168   167    1
   125   107   106    2
   126   170   172    1
   127   170   167    1
   128   114   113    2
   129   153   152    1
   130   133   132    2
   131   121   120    1
   132    77    75   ar
   133   106   105    1
   134   105   108    1
   135    93    95   ar
   136    93    94   ar
   137   123   124    1
   138   123   118   am
   139   167   166    1
   140    72    71    1
   141    72    73   ar
   142   117   120    1
   143   117   118    1
   144   117   116    1
   145   124   125    1
   146   120   122    1
   147   113   116   am
   148   113   112    1
   149   152   151    1
   150    70    69    2
   151    69    68    1
   152    71    68    1
   153    75    73   ar
   154   118   119    2
   155   108   110    1
   156   108   109    1
   157   111   112    1
   158   125   126    2
   159   112   115    1
   160    68    67    1
   161   151   148    1
   162   164   165   ar
   163   164   162   ar
   164   165   163   ar
   165   148   147    1
   166   148   149    1
   167   162   160   ar
   168   163   161   ar
   169   158   157    2
   170   149   150    2
   171   160   161   ar
   172   160   159    1
   173   157   156    1
   174   159   156    1
   175   156   155    1
