@<TRIPOS>MOLECULE
tmp/5kafA15.pdb
 87 86 0 0 0
SMALL
GASTEIGER

@<TRIPOS>ATOM
      1  N        101.2060  166.8530   57.6490 N.3   183  LEU183     -0.1245
      2  CA       102.3510  165.9980   57.3510 C.3   183  LEU183      0.1561
      3  C        102.1780  164.5990   57.9280 C.2   183  LEU183      0.2260
      4  O        102.6580  163.6230   57.3420 O.2   183  LEU183     -0.2867
      5  CB       103.6350  166.6330   57.8830 C.3   183  LEU183      0.0270
      6  CG       104.1840  167.8150   57.0850 C.3   183  LEU183      0.0019
      7  CD1      105.4200  168.3840   57.7610 C.3   183  LEU183      0.0001
      8  CD2      104.4920  167.3890   55.6590 C.3   183  LEU183      0.0001
      9  N         98.0470  162.8490   52.7380 N.3   188  HIS188     -0.1226
     10  CA        99.0890  163.7060   52.1810 C.3   188  HIS188      0.1752
     11  C        100.3580  162.9120   51.9040 C.2   188  HIS188      0.2595
     12  O        101.0890  163.2240   50.9580 O.2   188  HIS188     -0.2718
     13  CB        99.3850  164.8770   53.1220 C.3   188  HIS188      0.0759
     14  CG       100.3740  165.8650   52.5760 C.ar  188  HIS188      0.0818
     15  ND1      101.7220  165.8020   52.8560 N.ar  188  HIS188     -0.2268
     16  CD2      100.2090  166.9450   51.7740 C.ar  188  HIS188      0.1154
     17  CE1      102.3450  166.7970   52.2490 C.ar  188  HIS188      0.1986
     18  NE2      101.4500  167.5070   51.5850 N.ar  188  HIS188     -0.2212
     19  N        100.6300  161.8830   52.7110 N.am  189  GLN189     -0.1979
     20  CA       101.7470  160.9900   52.4210 C.3   189  GLN189      0.1601
     21  C        101.5050  160.2210   51.1300 C.2   189  GLN189      0.2287
     22  O        102.4320  160.0190   50.3350 O.2   189  GLN189     -0.2864
     23  CB       101.9680  160.0310   53.5900 C.3   189  GLN189      0.0394
     24  CG       102.3350  160.7210   54.8940 C.3   189  GLN189      0.0908
     25  CD       102.2370  159.7980   56.0920 C.2   189  GLN189      0.2608
     26  OE1      101.9440  158.6110   55.9540 O.2   189  GLN189     -0.2717
     27  NE2      102.4850  160.3410   57.2790 N.am  189  GLN189     -0.0878
     28  N        102.1980  162.7510   48.4490 N.3   192  VAL192     -0.1231
     29  CA       103.6280  162.8890   48.1950 C.3   192  VAL192      0.1692
     30  C        104.1440  161.6870   47.4160 C.2   192  VAL192      0.2591
     31  O        104.9760  161.8260   46.5110 O.2   192  VAL192     -0.2718
     32  CB       104.3930  163.0830   49.5170 C.3   192  VAL192      0.0266
     33  CG1      105.8920  163.1210   49.2650 C.3   192  VAL192      0.0020
     34  CG2      103.9450  164.3600   50.2060 C.3   192  VAL192      0.0020
     35  N        103.6480  160.4890   47.7420 N.am  193  ALA193     -0.1980
     36  CA       104.0450  159.2970   47.0010 C.3   193  ALA193      0.1597
     37  C        103.5940  159.3640   45.5480 C.2   193  ALA193      0.2287
     38  O        104.2040  158.7330   44.6780 O.2   193  ALA193     -0.2864
     39  CB       103.4800  158.0470   47.6760 C.3   193  ALA193      0.0319
     40  N        106.1110  162.3280   44.0380 N.3   196  PHE196     -0.1227
     41  CA       107.4900  161.8510   44.0110 C.3   196  PHE196      0.1736
     42  C        107.6420  160.6740   43.0580 C.2   196  PHE196      0.2596
     43  O        108.6080  160.6100   42.2890 O.2   196  PHE196     -0.2718
     44  CB       107.9500  161.4630   45.4160 C.3   196  PHE196      0.0547
     45  CG       108.5400  162.6000   46.2000 C.ar  196  PHE196     -0.0202
     46  CD1      108.6700  163.8580   45.6340 C.ar  196  PHE196     -0.0042
     47  CD2      108.9770  162.4070   47.5000 C.ar  196  PHE196     -0.0042
     48  CE1      109.2160  164.9040   46.3540 C.ar  196  PHE196     -0.0003
     49  CE2      109.5250  163.4490   48.2250 C.ar  196  PHE196     -0.0003
     50  CZ       109.6450  164.6990   47.6510 C.ar  196  PHE196     -0.0000
     51  N        106.6980  159.7320   43.0950 N.am  197  GLY197     -0.1957
     52  CA       106.7370  158.6260   42.1550 C.3   197  GLY197      0.1869
     53  C        106.4580  159.0670   40.7320 C.2   197  GLY197      0.2309
     54  O        107.0340  158.5300   39.7820 O.2   197  GLY197     -0.2863
     55  N        109.5590  160.4540   39.3790 N.3   200  LEU200     -0.1231
     56  CA       110.4350  159.3140   39.1310 C.3   200  LEU200      0.1693
     57  C        110.0220  158.5820   37.8610 C.2   200  LEU200      0.2592
     58  O        110.8480  158.3300   36.9770 O.2   200  LEU200     -0.2718
     59  CB       110.4080  158.3680   40.3370 C.3   200  LEU200      0.0284
     60  CG       111.4410  157.2460   40.5080 C.3   200  LEU200      0.0019
     61  CD1      111.3800  156.7210   41.9300 C.3   200  LEU200      0.0001
     62  CD2      111.2460  156.0930   39.5300 C.3   200  LEU200      0.0001
     63  N        108.7380  158.2310   37.7560 N.am  201  PHE201     -0.1976
     64  CA       108.2680  157.4600   36.6110 C.3   201  PHE201      0.1639
     65  C        108.2870  158.2820   35.3290 C.2   201  PHE201      0.2290
     66  O        108.4250  157.7180   34.2370 O.2   201  PHE201     -0.2864
     67  CB       106.8640  156.9230   36.8890 C.3   201  PHE201      0.0560
     68  CG       106.8030  155.9670   38.0490 C.ar  201  PHE201     -0.0200
     69  CD1      107.8760  155.1400   38.3390 C.ar  201  PHE201     -0.0042
     70  CD2      105.6760  155.9000   38.8530 C.ar  201  PHE201     -0.0042
     71  CE1      107.8260  154.2630   39.4050 C.ar  201  PHE201     -0.0003
     72  CE2      105.6210  155.0250   39.9220 C.ar  201  PHE201     -0.0003
     73  CZ       106.6970  154.2050   40.1980 C.ar  201  PHE201     -0.0000
     74  N         99.3260  155.9080   38.7000 N.3   268  TRP268     -0.1241
     75  CA       100.0480  156.2380   39.9290 C.3   268  TRP268      0.1605
     76  C         99.9560  157.7130   40.3060 C.2   268  TRP268      0.2264
     77  O         99.6120  158.0050   41.4650 O.2   268  TRP268     -0.2867
     78  CB       101.5080  155.7830   39.8090 C.3   268  TRP268      0.0550
     79  CG       102.2640  155.8950   41.0980 C.ar  268  TRP268      0.0003
     80  CD1      102.8230  157.0220   41.6260 C.ar  268  TRP268      0.0946
     81  CD2      102.5370  154.8390   42.0260 C.ar  268  TRP268      0.0152
     82  NE1      103.4280  156.7330   42.8250 N.ar  268  TRP268     -0.2442
     83  CE2      103.2670  155.3990   43.0930 C.ar  268  TRP268      0.0810
     84  CE3      102.2350  153.4740   42.0580 C.ar  268  TRP268      0.0012
     85  CZ2      103.6990  154.6430   44.1790 C.ar  268  TRP268      0.0191
     86  CZ3      102.6660  152.7250   43.1380 C.ar  268  TRP268      0.0001
     87  CH2      103.3900  153.3110   44.1830 C.ar  268  TRP268      0.0015
@<TRIPOS>BOND
     1    66    65    2
     2    65    64    1
     3    64    67    1
     4    64    63    1
     5    67    68    1
     6    58    57    2
     7    63    57   am
     8    57    56    1
     9    68    69   ar
    10    68    70   ar
    11    69    71   ar
    12    74    75    1
    13    70    72   ar
    14    56    55    1
    15    56    59    1
    16    71    73   ar
    17    62    60    1
    18    54    53    2
    19    78    75    1
    20    78    79    1
    21    72    73   ar
    22    75    76    1
    23    76    77    2
    24    59    60    1
    25    60    61    1
    26    53    52    1
    27    79    80   ar
    28    79    81   ar
    29    80    82   ar
    30    81    84   ar
    31    81    83   ar
    32    84    86   ar
    33    52    51    1
    34    43    42    2
    35    82    83   ar
    36    42    51   am
    37    42    41    1
    38    83    85   ar
    39    86    87   ar
    40    41    40    1
    41    41    44    1
    42    85    87   ar
    43    38    37    2
    44    44    45    1
    45    37    36    1
    46    46    45   ar
    47    46    48   ar
    48    45    47   ar
    49    48    50   ar
    50    31    30    2
    51    36    39    1
    52    36    35    1
    53    30    35   am
    54    30    29    1
    55    47    49   ar
    56    50    49   ar
    57    29    28    1
    58    29    32    1
    59    33    32    1
    60    32    34    1
    61    22    21    2
    62    12    11    2
    63    21    20    1
    64    18    16   ar
    65    18    17   ar
    66    16    14   ar
    67    11    10    1
    68    11    19   am
    69    10     9    1
    70    10    13    1
    71    17    15   ar
    72    20    19    1
    73    20    23    1
    74    14    15   ar
    75    14    13    1
    76    23    24    1
    77    24    25    1
    78     8     6    1
    79    26    25    2
    80    25    27   am
    81     6     7    1
    82     6     5    1
    83     4     3    2
    84     2     1    1
    85     2     5    1
    86     2     3    1
