@<TRIPOS>MOLECULE
tmp/5kafV18.pdb
 90 88 0 0 0
SMALL
GASTEIGER

@<TRIPOS>ATOM
      1  N         98.0350  206.0380   32.2520 N.3    38  LEU38      -0.1245
      2  CA        98.1470  205.2000   33.4420 C.3    38  LEU38       0.1561
      3  C         99.3990  205.5390   34.2420 C.2    38  LEU38       0.2260
      4  O         99.3660  205.5590   35.4780 O.2    38  LEU38      -0.2867
      5  CB        98.1440  203.7220   33.0510 C.3    38  LEU38       0.0270
      6  CG        96.8530  203.1570   32.4560 C.3    38  LEU38       0.0019
      7  CD1       97.0180  201.6830   32.1200 C.3    38  LEU38       0.0001
      8  CD2       95.6830  203.3650   33.4060 C.3    38  LEU38       0.0001
      9  N         88.1580  208.3660   39.2910 N.3    74  TRP74      -0.1227
     10  CA        87.3340  207.4420   40.0620 C.3    74  TRP74       0.1737
     11  C         87.6340  207.5010   41.5550 C.2    74  TRP74       0.2596
     12  O         86.7720  207.1340   42.3590 O.2    74  TRP74      -0.2718
     13  CB        87.5250  206.0130   39.5510 C.3    74  TRP74       0.0564
     14  CG        86.9110  205.7610   38.2090 C.ar   74  TRP74       0.0003
     15  CD1       85.9430  206.5020   37.5960 C.ar   74  TRP74       0.0946
     16  CD2       87.2220  204.6870   37.3140 C.ar   74  TRP74       0.0152
     17  NE1       85.6330  205.9570   36.3730 N.ar   74  TRP74      -0.2442
     18  CE2       86.4050  204.8410   36.1760 C.ar   74  TRP74       0.0810
     19  CE3       88.1120  203.6100   37.3640 C.ar   74  TRP74       0.0012
     20  CZ2       86.4520  203.9600   35.0990 C.ar   74  TRP74       0.0191
     21  CZ3       88.1570  202.7360   36.2930 C.ar   74  TRP74       0.0001
     22  CH2       87.3320  202.9160   35.1760 C.ar   74  TRP74       0.0015
     23  N         88.8270  207.9580   41.9430 N.am   75  SER75      -0.1952
     24  CA        89.2070  208.0000   43.3490 C.3    75  SER75       0.1924
     25  C         88.5830  209.1680   44.1010 C.2    75  SER75       0.2314
     26  O         88.6680  209.2040   45.3350 O.2    75  SER75      -0.2863
     27  CB        90.7310  208.0520   43.4790 C.3    75  SER75       0.2116
     28  OG        91.2560  209.1970   42.8360 O.3    75  SER75      -0.2180
     29  N         81.1580  212.9060   41.0570 N.3    86  ASP86      -0.1225
     30  CA        81.0140  211.6540   40.3240 C.3    86  ASP86       0.1790
     31  C         81.3460  211.9020   38.8620 C.2    86  ASP86       0.2440
     32  O         80.5890  212.6020   38.1710 O.2    86  ASP86      -0.2733
     33  CB        79.5950  211.0960   40.4640 C.3    86  ASP86       0.1423
     34  CG        79.4880  209.6430   40.0210 C.2    86  ASP86       0.3668
     35  OD1       80.2050  209.2420   39.0800 O.co2  86  ASP86      -0.2456
     36  OD2       78.6880  208.8940   40.6220 O.co2  86  ASP86      -0.2456
     37  N         82.4550  211.3690   38.3450 N.am   87  PRO87      -0.2718
     38  CA        82.7990  211.5970   36.9380 C.3    87  PRO87       0.1535
     39  C         82.1270  210.6430   35.9660 C.2    87  PRO87       0.2599
     40  O         82.2840  210.8170   34.7520 O.2    87  PRO87      -0.2715
     41  CB        84.3190  211.3990   36.9330 C.3    87  PRO87       0.0310
     42  CG        84.5420  210.3700   37.9840 C.3    87  PRO87       0.0237
     43  CD        83.5110  210.6270   39.0580 C.3    87  PRO87       0.0939
     44  N         81.3820  209.6570   36.4590 N.am   88  GLY88      -0.1941
     45  CA        80.8420  208.6360   35.5860 C.3    88  GLY88       0.2014
     46  C         81.9230  207.6550   35.1660 C.2    88  GLY88       0.2638
     47  O         82.8780  207.3910   35.8990 O.2    88  GLY88      -0.2714
     48  N         81.7650  207.1070   33.9610 N.am   89  PHE89      -0.1973
     49  CA        82.7940  206.2240   33.4250 C.3    89  PHE89       0.1639
     50  C         83.9260  207.0010   32.7700 C.2    89  PHE89       0.2290
     51  O         85.0850  206.5800   32.8470 O.2    89  PHE89      -0.2864
     52  CB        82.1920  205.2430   32.4170 C.3    89  PHE89       0.0560
     53  CG        83.2220  204.4510   31.6570 C.ar   89  PHE89      -0.0200
     54  CD1       83.9570  203.4590   32.2870 C.ar   89  PHE89      -0.0042
     55  CD2       83.4620  204.7040   30.3150 C.ar   89  PHE89      -0.0042
     56  CE1       84.9090  202.7320   31.5940 C.ar   89  PHE89      -0.0003
     57  CE2       84.4120  203.9810   29.6170 C.ar   89  PHE89      -0.0003
     58  CZ        85.1360  202.9930   30.2570 C.ar   89  PHE89      -0.0000
     59  N         90.7770  207.4300   34.2820 N.3    93  GLU93      -0.1245
     60  CA        90.9460  205.9880   34.1490 C.3    93  GLU93       0.1567
     61  C         90.0450  205.4210   33.0600 C.2    93  GLU93       0.2260
     62  O         90.4420  204.4980   32.3400 O.2    93  GLU93      -0.2867
     63  CB        90.6650  205.2980   35.4850 C.3    93  GLU93       0.0388
     64  CG        91.6650  205.6200   36.5890 C.3    93  GLU93       0.1160
     65  CD        91.4040  206.9590   37.2520 C.2    93  GLU93       0.3649
     66  OE1       90.3250  207.5430   37.0160 O.co2  93  GLU93      -0.2457
     67  OE2       92.2780  207.4270   38.0110 O.co2  93  GLU93      -0.2457
     68  N         91.4400  203.4760   29.8870 N.3    97  LEU97      -0.1245
     69  CA        90.9900  202.1060   29.6630 C.3    97  LEU97       0.1561
     70  C         90.4260  201.9320   28.2580 C.2    97  LEU97       0.2260
     71  O         90.6000  200.8750   27.6400 O.2    97  LEU97      -0.2867
     72  CB        89.9500  201.7190   30.7160 C.3    97  LEU97       0.0270
     73  CG        89.2630  200.3600   30.5640 C.3    97  LEU97       0.0019
     74  CD1       90.2840  199.2350   30.5340 C.3    97  LEU97       0.0001
     75  CD2       88.2570  200.1420   31.6830 C.3    97  LEU97       0.0001
     76  N         93.1660  201.5540   25.6620 N.3   100  ILE100     -0.1231
     77  CA        93.8330  200.2590   25.7660 C.3   100  ILE100      0.1692
     78  C         92.9940  199.1680   25.1130 C.2   100  ILE100      0.2591
     79  O         93.5070  198.3510   24.3390 O.2   100  ILE100     -0.2718
     80  CB        94.1400  199.9290   27.2390 C.3   100  ILE100      0.0266
     81  CG1       95.1950  200.8860   27.7960 C.3   100  ILE100      0.0019
     82  CG2       94.6040  198.4860   27.3780 C.3   100  ILE100      0.0020
     83  CD1       96.5690  200.6960   27.1930 C.3   100  ILE100      0.0001
     84  N         91.6940  199.1350   25.4180 N.am  101  VAL101     -0.1980
     85  CA        90.8080  198.1490   24.8030 C.3   101  VAL101      0.1595
     86  C         90.7420  198.3640   23.2960 C.2   101  VAL101      0.2287
     87  O         90.6960  197.4040   22.5170 O.2   101  VAL101     -0.2864
     88  CB        89.4120  198.2110   25.4510 C.3   101  VAL101      0.0276
     89  CG1       88.4430  197.2850   24.7300 C.3   101  VAL101      0.0022
     90  CG2       89.4970  197.8530   26.9270 C.3   101  VAL101      0.0022
@<TRIPOS>BOND
     1    87    86    2
     2    86    85    1
     3    79    78    2
     4    89    88    1
     5    85    84    1
     6    85    88    1
     7    78    84   am
     8    78    77    1
     9    88    90    1
    10    76    77    1
    11    77    80    1
    12    83    81    1
    13    80    82    1
    14    80    81    1
    15    71    70    2
    16    70    69    1
    17    57    58   ar
    18    57    55   ar
    19    69    68    1
    20    69    72    1
    21    58    56   ar
    22    55    53   ar
    23    74    73    1
    24    73    72    1
    25    73    75    1
    26    56    54   ar
    27    53    54   ar
    28    53    52    1
    29     7     6    1
    30     1     2    1
    31    62    61    2
    32    52    49    1
    33     6     5    1
    34     6     8    1
    35    50    51    2
    36    50    49    1
    37     5     2    1
    38    61    60    1
    39    49    48    1
    40     2     3    1
    41    48    46   am
    42    60    59    1
    43    60    63    1
    44     3     4    2
    45    40    39    2
    46    20    22   ar
    47    20    18   ar
    48    46    45    1
    49    46    47    2
    50    22    21   ar
    51    63    64    1
    52    45    44    1
    53    39    44   am
    54    39    38    1
    55    18    17   ar
    56    18    16   ar
    57    21    19   ar
    58    17    15   ar
    59    64    65    1
    60    41    38    1
    61    41    42    1
    62    38    37    1
    63    66    65   ar
    64    65    67   ar
    65    16    19   ar
    66    16    14   ar
    67    15    14   ar
    68    42    43    1
    69    32    31    2
    70    14    13    1
    71    37    31   am
    72    37    43    1
    73    31    30    1
    74    35    34   ar
    75     9    10    1
    76    13    10    1
    77    34    33    1
    78    34    36   ar
    79    10    11    1
    80    30    33    1
    81    30    29    1
    82    11    23   am
    83    11    12    2
    84    23    24    1
    85    28    27    1
    86    24    27    1
    87    24    25    1
    88    25    26    2
