@<TRIPOS>MOLECULE
tmp/5kafD11.pdb
 125 125 0 0 0
SMALL
GASTEIGER

@<TRIPOS>ATOM
      1  N        119.6350  150.4770   58.5140 N.3    37  TRP37      -0.1241
      2  CA       118.4550  151.2550   58.8730 C.3    37  TRP37       0.1605
      3  C        117.4150  150.3870   59.5700 C.2    37  TRP37       0.2264
      4  O        116.7480  150.8390   60.5080 O.2    37  TRP37      -0.2867
      5  CB       117.8600  151.9130   57.6290 C.3    37  TRP37       0.0550
      6  CG       116.6010  152.6770   57.9040 C.ar   37  TRP37       0.0003
      7  CD1      116.4980  153.9010   58.4960 C.ar   37  TRP37       0.0946
      8  CD2      115.2630  152.2660   57.5980 C.ar   37  TRP37       0.0152
      9  NE1      115.1800  154.2790   58.5770 N.ar   37  TRP37      -0.2442
     10  CE2      114.4010  153.2920   58.0330 C.ar   37  TRP37       0.0810
     11  CE3      114.7100  151.1300   56.9980 C.ar   37  TRP37       0.0012
     12  CZ2      113.0170  153.2170   57.8880 C.ar   37  TRP37       0.0191
     13  CZ3      113.3360  151.0570   56.8550 C.ar   37  TRP37       0.0001
     14  CH2      112.5050  152.0940   57.2980 C.ar   37  TRP37       0.0015
     15  N        105.9330  152.7490   63.1030 N.3    62  PHE62      -0.1227
     16  CA       106.6250  152.8840   61.8250 C.3    62  PHE62       0.1736
     17  C        106.8510  154.3440   61.4520 C.2    62  PHE62       0.2595
     18  O        107.8130  154.6610   60.7430 O.2    62  PHE62      -0.2718
     19  CB       105.8350  152.1700   60.7260 C.3    62  PHE62       0.0547
     20  CG       106.3050  152.4890   59.3350 C.ar   62  PHE62      -0.0202
     21  CD1      107.5300  152.0300   58.8790 C.ar   62  PHE62      -0.0042
     22  CD2      105.5210  153.2490   58.4830 C.ar   62  PHE62      -0.0042
     23  CE1      107.9640  152.3230   57.5990 C.ar   62  PHE62      -0.0003
     24  CE2      105.9490  153.5460   57.2020 C.ar   62  PHE62      -0.0003
     25  CZ       107.1720  153.0820   56.7600 C.ar   62  PHE62      -0.0000
     26  N        105.9890  155.2460   61.9240 N.am   63  LEU63      -0.1980
     27  CA       106.0960  156.6500   61.5490 C.3    63  LEU63       0.1596
     28  C        107.1150  157.4180   62.3800 C.2    63  LEU63       0.2287
     29  O        107.5800  158.4730   61.9360 O.2    63  LEU63      -0.2864
     30  CB       104.7300  157.3320   61.6650 C.3    63  LEU63       0.0297
     31  CG       103.6530  156.8900   60.6730 C.3    63  LEU63       0.0022
     32  CD1      102.3790  157.6970   60.8720 C.3    63  LEU63       0.0001
     33  CD2      104.1550  157.0190   59.2430 C.3    63  LEU63       0.0001
     34  N        120.7930  164.9930   44.7510 N.3   141  VAL141     -0.1231
     35  CA       120.0000  165.3620   45.9190 C.3   141  VAL141      0.1692
     36  C        120.5880  164.7430   47.1810 C.2   141  VAL141      0.2592
     37  O        120.7290  165.4100   48.2120 O.2   141  VAL141     -0.2718
     38  CB       118.5300  164.9510   45.7200 C.3   141  VAL141      0.0266
     39  CG1      117.7610  165.0730   47.0260 C.3   141  VAL141      0.0020
     40  CG2      117.8900  165.8080   44.6440 C.3   141  VAL141      0.0020
     41  N        120.9480  163.4580   47.1170 N.am  142  PHE142     -0.1976
     42  CA       121.4650  162.7770   48.3000 C.3   142  PHE142      0.1639
     43  C        122.8100  163.3490   48.7330 C.2   142  PHE142      0.2290
     44  O        123.0980  163.4290   49.9330 O.2   142  PHE142     -0.2864
     45  CB       121.5820  161.2760   48.0340 C.3   142  PHE142      0.0560
     46  CG       122.1610  160.5030   49.1840 C.ar  142  PHE142     -0.0200
     47  CD1      121.3600  160.1070   50.2410 C.ar  142  PHE142     -0.0042
     48  CD2      123.5070  160.1720   49.2100 C.ar  142  PHE142     -0.0042
     49  CE1      121.8890  159.3990   51.3040 C.ar  142  PHE142     -0.0003
     50  CE2      124.0410  159.4620   50.2690 C.ar  142  PHE142     -0.0003
     51  CZ       123.2310  159.0750   51.3160 C.ar  142  PHE142     -0.0000
     52  N        122.2470  167.0210   50.3270 N.3   145  VAL145     -0.1231
     53  CA       121.4200  167.0960   51.5280 C.3   145  VAL145      0.1692
     54  C        122.0430  166.3300   52.6880 C.2   145  VAL145      0.2592
     55  O        122.1490  166.8480   53.8030 O.2   145  VAL145     -0.2718
     56  CB       119.9940  166.5910   51.2180 C.3   145  VAL145      0.0266
     57  CG1      119.1700  166.5150   52.4890 C.3   145  VAL145      0.0020
     58  CG2      119.3210  167.5010   50.2040 C.3   145  VAL145      0.0020
     59  N        122.4670  165.0900   52.4520 N.am  146  PHE146     -0.1976
     60  CA       122.9940  164.2450   53.5160 C.3   146  PHE146      0.1639
     61  C        124.4880  164.4230   53.7530 C.2   146  PHE146      0.2290
     62  O        125.0030  163.9070   54.7510 O.2   146  PHE146     -0.2864
     63  CB       122.7070  162.7700   53.2120 C.3   146  PHE146      0.0560
     64  CG       121.2650  162.3850   53.3760 C.ar  146  PHE146     -0.0200
     65  CD1      120.3620  162.5680   52.3420 C.ar  146  PHE146     -0.0042
     66  CD2      120.8130  161.8370   54.5650 C.ar  146  PHE146     -0.0042
     67  CE1      119.0340  162.2120   52.4910 C.ar  146  PHE146     -0.0003
     68  CE2      119.4860  161.4790   54.7200 C.ar  146  PHE146     -0.0003
     69  CZ       118.5960  161.6680   53.6820 C.ar  146  PHE146     -0.0000
     70  N        117.4210  159.3990   59.5240 N.3   162  PHE162     -0.1241
     71  CA       116.7730  158.3510   58.7340 C.3   162  PHE162      0.1605
     72  C        115.4990  157.8910   59.4400 C.2   162  PHE162      0.2264
     73  O        115.4550  156.8590   60.1130 O.2   162  PHE162     -0.2867
     74  CB       117.7300  157.1880   58.5040 C.3   162  PHE162      0.0534
     75  CG       118.8690  157.5150   57.5840 C.ar  162  PHE162     -0.0203
     76  CD1      118.7240  157.3960   56.2110 C.ar  162  PHE162     -0.0042
     77  CD2      120.0860  157.9400   58.0900 C.ar  162  PHE162     -0.0042
     78  CE1      119.7700  157.6960   55.3610 C.ar  162  PHE162     -0.0003
     79  CE2      121.1370  158.2420   57.2440 C.ar  162  PHE162     -0.0003
     80  CZ       120.9790  158.1200   55.8780 C.ar  162  PHE162     -0.0000
     81  N        110.8180  158.6100   59.3480 N.3   164  VAL164     -0.1245
     82  CA       109.6560  159.2580   58.7440 C.3   164  VAL164      0.1561
     83  C        109.3590  160.5780   59.4470 C.2   164  VAL164      0.2260
     84  O        109.3700  161.6480   58.8290 O.2   164  VAL164     -0.2867
     85  CB       108.4370  158.3200   58.7700 C.3   164  VAL164      0.0252
     86  CG1      107.2080  159.0370   58.2330 C.3   164  VAL164      0.0019
     87  CG2      108.7200  157.0610   57.9650 C.3   164  VAL164      0.0019
     88  N        112.1860  163.1990   59.0600 N.3   167  ILE167     -0.1231
     89  CA       112.2240  163.9780   57.8260 C.3   167  ILE167      0.1692
     90  C        111.2190  165.1220   57.8880 C.2   167  ILE167      0.2592
     91  O        111.4930  166.2340   57.4200 O.2   167  ILE167     -0.2718
     92  CB       111.9780  163.0620   56.6120 C.3   167  ILE167      0.0266
     93  CG1      113.2230  162.2230   56.3160 C.3   167  ILE167      0.0019
     94  CG2      111.5810  163.8730   55.3860 C.3   167  ILE167      0.0020
     95  CD1      114.4260  163.0400   55.9010 C.3   167  ILE167      0.0001
     96  N        110.0450  164.8730   58.4760 N.am  168  PHE168     -0.1976
     97  CA       109.0620  165.9390   58.6400 C.3   168  PHE168      0.1639
     98  C        109.5870  167.0460   59.5460 C.2   168  PHE168      0.2290
     99  O        109.2410  168.2180   59.3580 O.2   168  PHE168     -0.2864
    100  CB       107.7550  165.3690   59.1910 C.3   168  PHE168      0.0560
    101  CG       107.0690  164.4140   58.2540 C.ar  168  PHE168     -0.0200
    102  CD1      107.2720  164.4980   56.8860 C.ar  168  PHE168     -0.0042
    103  CD2      106.2250  163.4310   58.7420 C.ar  168  PHE168     -0.0042
    104  CE1      106.6440  163.6210   56.0220 C.ar  168  PHE168     -0.0003
    105  CE2      105.5950  162.5500   57.8830 C.ar  168  PHE168     -0.0003
    106  CZ       105.8040  162.6460   56.5210 C.ar  168  PHE168     -0.0000
    107  N        112.7510  167.7990   59.5040 N.3   170  PHE170     -0.1227
    108  CA       113.7020  168.4550   58.6140 C.3   170  PHE170      0.1736
    109  C        113.0110  169.4600   57.7000 C.2   170  PHE170      0.2595
    110  O        113.6140  170.4720   57.3230 O.2   170  PHE170     -0.2718
    111  CB       114.4440  167.3980   57.7950 C.3   170  PHE170      0.0547
    112  CG       115.6750  167.9100   57.1060 C.ar  170  PHE170     -0.0202
    113  CD1      116.8460  168.1140   57.8170 C.ar  170  PHE170     -0.0042
    114  CD2      115.6690  168.1630   55.7450 C.ar  170  PHE170     -0.0042
    115  CE1      117.9820  168.5780   57.1860 C.ar  170  PHE170     -0.0003
    116  CE2      116.8030  168.6250   55.1080 C.ar  170  PHE170     -0.0003
    117  CZ       117.9620  168.8300   55.8290 C.ar  170  PHE170     -0.0000
    118  N        111.7510  169.2040   57.3390 N.am  171  LEU171     -0.1980
    119  CA       111.0090  170.1460   56.5070 C.3   171  LEU171      0.1596
    120  C        110.6560  171.4050   57.2890 C.2   171  LEU171      0.2287
    121  O        110.8710  172.5250   56.8130 O.2   171  LEU171     -0.2864
    122  CB       109.7420  169.4850   55.9640 C.3   171  LEU171      0.0297
    123  CG       109.9020  168.1950   55.1610 C.3   171  LEU171      0.0022
    124  CD1      108.5390  167.6240   54.8080 C.3   171  LEU171      0.0001
    125  CD2      110.7180  168.4510   53.9120 C.3   171  LEU171      0.0001
@<TRIPOS>BOND
     1    40    38    1
     2    34    35    1
     3    38    35    1
     4    38    39    1
     5    35    36    1
     6    41    36   am
     7    41    42    1
     8    36    37    2
     9    45    42    1
    10    45    46    1
    11    42    43    1
    12    43    44    2
    13    46    48   ar
    14    46    47   ar
    15    48    50   ar
    16    58    56    1
    17    47    49   ar
    18    50    51   ar
    19    52    53    1
    20    56    53    1
    21    56    57    1
    22    49    51   ar
    23    53    54    1
    24    65    67   ar
    25    65    64   ar
    26    59    54   am
    27    59    60    1
    28    67    69   ar
    29    54    55    2
    30    63    64    1
    31    63    60    1
    32    64    66   ar
    33    60    61    1
    34    69    68   ar
    35    61    62    2
    36   125   123    1
    37    66    68   ar
    38   124   123    1
    39   116   114   ar
    40   116   117   ar
    41   123   122    1
    42    78    80   ar
    43    78    76   ar
    44    94    92    1
    45   114   112   ar
    46   117   115   ar
    47    80    79   ar
    48    95    93    1
    49   122   119    1
    50   104   106   ar
    51   104   102   ar
    52    76    75   ar
    53    93    92    1
    54   119   120    1
    55   119   118    1
    56   106   105   ar
    57    92    89    1
    58    25    24   ar
    59    25    23   ar
    60   121   120    2
    61    13    11   ar
    62    13    14   ar
    63   102   101   ar
    64    11     8   ar
    65   112   111    1
    66   112   113   ar
    67   115   113   ar
    68    24    22   ar
    69    79    77   ar
    70    14    12   ar
    71   110   109    2
    72   118   109   am
    73    91    90    2
    74    75    77   ar
    75    75    74    1
    76     8     6   ar
    77     8    10   ar
    78    23    21   ar
    79     5     6    1
    80     5     2    1
    81   109   108    1
    82   111   108    1
    83    89    90    1
    84    89    88    1
    85   105   103   ar
    86    12    10   ar
    87    90    96   am
    88     6     7   ar
    89    87    85    1
    90    10     9   ar
    91    86    85    1
    92   101   103   ar
    93   101   100    1
    94    96    97    1
    95    22    20   ar
    96     7     9   ar
    97    74    71    1
    98     1     2    1
    99   108   107    1
   100    97   100    1
   101    97    98    1
   102    71    72    1
   103    71    70    1
   104    82    85    1
   105    82    81    1
   106    82    83    1
   107    84    83    2
   108     2     3    1
   109    21    20   ar
   110    33    31    1
   111    20    19    1
   112    99    98    2
   113    72    73    2
   114     3     4    2
   115    31    32    1
   116    31    30    1
   117    19    16    1
   118    18    17    2
   119    17    16    1
   120    17    26   am
   121    27    30    1
   122    27    26    1
   123    27    28    1
   124    16    15    1
   125    29    28    2
