@<TRIPOS>MOLECULE
tmp/5kafD07.pdb
 119 115 0 0 0
SMALL
GASTEIGER

@<TRIPOS>ATOM
      1  N        141.4770  137.1070   34.8960 N.3     4  PHE4       -0.1227
      2  CA       140.6530  138.3080   34.8200 C.3     4  PHE4        0.1736
      3  C        139.5120  138.1300   33.8270 C.2     4  PHE4        0.2595
      4  O        138.3720  138.5190   34.1060 O.2     4  PHE4       -0.2718
      5  CB       141.5180  139.5110   34.4410 C.3     4  PHE4        0.0547
      6  CG       140.7550  140.8010   34.3290 C.ar    4  PHE4       -0.0202
      7  CD1      140.4910  141.5640   35.4550 C.ar    4  PHE4       -0.0042
      8  CD2      140.3090  141.2570   33.0980 C.ar    4  PHE4       -0.0042
      9  CE1      139.7930  142.7530   35.3570 C.ar    4  PHE4       -0.0003
     10  CE2      139.6100  142.4450   32.9940 C.ar    4  PHE4       -0.0003
     11  CZ       139.3520  143.1930   34.1250 C.ar    4  PHE4       -0.0000
     12  N        139.7980  137.5420   32.6640 N.am    5  ASP5       -0.1974
     13  CA       138.7550  137.3070   31.6750 C.3     5  ASP5        0.1709
     14  C        137.8410  136.1520   32.0640 C.2     5  ASP5        0.2293
     15  O        136.7130  136.0780   31.5660 O.2     5  ASP5       -0.2864
     16  CB       139.3820  137.0480   30.3050 C.3     5  ASP5        0.1436
     17  CG       140.2360  138.2090   29.8300 C.2     5  ASP5        0.3671
     18  OD1      139.6650  139.2600   29.4690 O.co2   5  ASP5       -0.2456
     19  OD2      141.4770  138.0720   29.8180 O.co2   5  ASP5       -0.2456
     20  N        135.5250  137.8680   34.5790 N.3     8  ASP8       -0.1239
     21  CA       134.6300  138.7560   33.8460 C.3     8  ASP8        0.1674
     22  C        133.4910  137.9870   33.1890 C.2     8  ASP8        0.2266
     23  O        132.3770  138.5100   33.0760 O.2     8  ASP8       -0.2867
     24  CB       135.4170  139.5450   32.7990 C.3     8  ASP8        0.1410
     25  CG       134.5310  140.4380   31.9530 C.2     8  ASP8        0.3668
     26  OD1      134.2030  141.5540   32.4070 O.co2   8  ASP8       -0.2456
     27  OD2      134.1650  140.0250   30.8320 O.co2   8  ASP8       -0.2456
     28  N        129.3330  138.6270   34.3830 N.3    12  LYS12      -0.1245
     29  CA       128.3650  139.0170   33.3650 C.3    12  LYS12       0.1561
     30  C        127.5000  137.8530   32.8980 C.2    12  LYS12       0.2260
     31  O        127.0090  137.8670   31.7610 O.2    12  LYS12      -0.2867
     32  CB       129.0850  139.6610   32.1790 C.3    12  LYS12       0.0271
     33  CG       129.8500  140.9240   32.5400 C.3    12  LYS12       0.0035
     34  CD       130.5000  141.5530   31.3200 C.3    12  LYS12       0.0206
     35  CE       131.2260  142.8370   31.6870 C.3    12  LYS12       0.1093
     36  NZ       131.8680  143.4700   30.5040 N.3    12  LYS12      -0.1314
     37  N        130.5360  143.7020   37.3520 N.3    21  TRP21      -0.1227
     38  CA       131.6270  144.2800   38.1320 C.3    21  TRP21       0.1737
     39  C        131.1110  145.3190   39.1170 C.2    21  TRP21       0.2596
     40  O        131.6310  145.4420   40.2320 O.2    21  TRP21      -0.2718
     41  CB       132.6710  144.9000   37.2050 C.3    21  TRP21       0.0564
     42  CG       133.4990  143.8990   36.4640 C.ar   21  TRP21       0.0003
     43  CD1      133.2680  143.4090   35.2120 C.ar   21  TRP21       0.0946
     44  CD2      134.6990  143.2690   36.9270 C.ar   21  TRP21       0.0152
     45  NE1      134.2490  142.5100   34.8680 N.ar   21  TRP21      -0.2442
     46  CE2      135.1390  142.4060   35.9050 C.ar   21  TRP21       0.0810
     47  CE3      135.4420  143.3490   38.1100 C.ar   21  TRP21       0.0012
     48  CZ2      136.2890  141.6290   36.0270 C.ar   21  TRP21       0.0191
     49  CZ3      136.5840  142.5760   38.2290 C.ar   21  TRP21       0.0001
     50  CH2      136.9960  141.7280   37.1940 C.ar   21  TRP21       0.0015
     51  N        130.0860  146.0770   38.7230 N.am   22  SER22      -0.1952
     52  CA       129.4760  147.0320   39.6390 C.3    22  SER22       0.1924
     53  C        128.8090  146.3550   40.8300 C.2    22  SER22       0.2314
     54  O        128.5900  147.0090   41.8520 O.2    22  SER22      -0.2863
     55  CB       128.4580  147.8970   38.8970 C.3    22  SER22       0.2116
     56  OG       127.4360  147.1070   38.3120 O.3    22  SER22      -0.2180
     57  N        130.0690  144.1190   42.7360 N.3    24  ILE24      -0.1231
     58  CA       131.0340  143.9610   43.8160 C.3    24  ILE24       0.1692
     59  C        130.9680  145.1490   44.7630 C.2    24  ILE24       0.2591
     60  O        131.2170  145.0110   45.9670 O.2    24  ILE24      -0.2718
     61  CB       132.4520  143.7700   43.2450 C.3    24  ILE24       0.0266
     62  CG1      132.4670  142.6550   42.1980 C.3    24  ILE24       0.0019
     63  CG2      133.4370  143.4730   44.3620 C.3    24  ILE24       0.0020
     64  CD1      133.8210  142.4490   41.5550 C.3    24  ILE24       0.0001
     65  N        130.6140  146.3240   44.2460 N.am   25  LEU25      -0.1980
     66  CA       130.4540  147.5220   45.0600 C.3    25  LEU25       0.1596
     67  C        129.0030  147.8230   45.4030 C.2    25  LEU25       0.2287
     68  O        128.7340  148.3900   46.4670 O.2    25  LEU25      -0.2864
     69  CB       131.0640  148.7320   44.3400 C.3    25  LEU25       0.0297
     70  CG       130.9930  150.0940   45.0320 C.3    25  LEU25       0.0022
     71  CD1      131.6420  150.0330   46.4040 C.3    25  LEU25       0.0001
     72  CD2      131.6450  151.1660   44.1730 C.3    25  LEU25       0.0001
     73  N        126.7120  152.9100   38.3520 N.3   116  LEU116     -0.1245
     74  CA       127.6460  152.0970   37.5800 C.3   116  LEU116      0.1561
     75  C        126.9540  150.8760   36.9930 C.2   116  LEU116      0.2260
     76  O        127.2950  150.4380   35.8880 O.2   116  LEU116     -0.2867
     77  CB       128.8250  151.6710   38.4560 C.3   116  LEU116      0.0270
     78  CG       129.8280  152.7540   38.8580 C.3   116  LEU116      0.0019
     79  CD1      130.8210  152.2130   39.8750 C.3   116  LEU116      0.0001
     80  CD2      130.5520  153.2920   37.6350 C.3   116  LEU116      0.0001
     81  N        125.2750  151.9270   33.8520 N.3   119  PHE119     -0.1227
     82  CA       126.2230  152.0550   32.7490 C.3   119  PHE119      0.1736
     83  C        126.6170  150.6910   32.1960 C.2   119  PHE119      0.2595
     84  O        126.7090  150.5120   30.9750 O.2   119  PHE119     -0.2718
     85  CB       127.4670  152.8150   33.2120 C.3   119  PHE119      0.0547
     86  CG       127.3290  154.3090   33.1530 C.ar  119  PHE119     -0.0202
     87  CD1      126.6740  154.9180   32.0960 C.ar  119  PHE119     -0.0042
     88  CD2      127.8610  155.1060   34.1530 C.ar  119  PHE119     -0.0042
     89  CE1      126.5510  156.2940   32.0390 C.ar  119  PHE119     -0.0003
     90  CE2      127.7400  156.4820   34.1030 C.ar  119  PHE119     -0.0003
     91  CZ       127.0830  157.0760   33.0450 C.ar  119  PHE119     -0.0000
     92  N        126.8520  149.7180   33.0780 N.am  120  GLU120     -0.1979
     93  CA       127.3760  148.4280   32.6410 C.3   120  GLU120      0.1602
     94  C        126.3260  147.6220   31.8850 C.2   120  GLU120      0.2287
     95  O        126.6270  147.0260   30.8440 O.2   120  GLU120     -0.2864
     96  CB       127.8940  147.6440   33.8480 C.3   120  GLU120      0.0415
     97  CG       128.4870  146.2870   33.5110 C.3   120  GLU120      0.1163
     98  CD       129.1660  145.6390   34.7020 C.2   120  GLU120      0.3649
     99  OE1      130.1100  144.8480   34.4940 O.co2 120  GLU120     -0.2457
    100  OE2      128.7580  145.9240   35.8480 O.co2 120  GLU120     -0.2457
    101  N        125.5960  148.9740   28.3380 N.3   123  ARG123     -0.1231
    102  CA       126.6260  148.6880   27.3450 C.3   123  ARG123      0.1694
    103  C        126.5400  147.2500   26.8480 C.2   123  ARG123      0.2591
    104  O        126.7510  146.9880   25.6580 O.2   123  ARG123     -0.2718
    105  CB       128.0100  148.9700   27.9320 C.3   123  ARG123      0.0321
    106  CG       129.1780  148.6400   27.0100 C.3   123  ARG123      0.0489
    107  CD       129.4210  149.7190   25.9620 C.3   123  ARG123      0.2205
    108  NE       128.5160  149.6140   24.8210 N.pl3 123  ARG123     -0.0865
    109  CZ       128.6780  150.2750   23.6790 C.cat 123  ARG123      0.5346
    110  NH1      129.7140  151.0880   23.5240 N.pl3 123  ARG123      0.1354
    111  NH2      127.8070  150.1210   22.6920 N.pl3 123  ARG123      0.1354
    112  N        126.2290  146.3060   27.7410 N.am  124  LEU124     -0.1980
    113  CA       126.1160  144.9090   27.3320 C.3   124  LEU124      0.1596
    114  C        124.8870  144.6840   26.4600 C.2   124  LEU124      0.2287
    115  O        124.9340  143.9030   25.5020 O.2   124  LEU124     -0.2864
    116  CB       126.0740  144.0050   28.5630 C.3   124  LEU124      0.0297
    117  CG       127.2930  144.0570   29.4850 C.3   124  LEU124      0.0022
    118  CD1      127.1270  143.0940   30.6490 C.3   124  LEU124      0.0001
    119  CD2      128.5590  143.7450   28.7060 C.3   124  LEU124      0.0001
@<TRIPOS>BOND
     1   111   109    1
     2   110   109    1
     3   109   108    2
     4   108   107    1
     5   115   114    2
     6   104   103    2
     7   107   106    1
     8   114   113    1
     9   103   102    1
    10   103   112   am
    11   106   105    1
    12   113   112    1
    13   113   116    1
    14   102   105    1
    15   102   101    1
    16   116   117    1
    17   119   117    1
    18    18    17   ar
    19   117   118    1
    20    19    17   ar
    21    17    16    1
    22    16    13    1
    23    36    35    1
    24    27    25   ar
    25    95    94    2
    26    84    83    2
    27    34    35    1
    28    34    33    1
    29    15    14    2
    30    13    14    1
    31    13    12    1
    32    31    30    2
    33    94    93    1
    34    25    26   ar
    35    25    24    1
    36    89    87   ar
    37    89    91   ar
    38    87    86   ar
    39    32    33    1
    40    32    29    1
    41    83    82    1
    42    83    92   am
    43    93    92    1
    44    93    96    1
    45    12     3   am
    46    82    85    1
    47    82    81    1
    48    24    21    1
    49    30    29    1
    50    10     8   ar
    51    10    11   ar
    52    91    90   ar
    53    23    22    2
    54     8     6   ar
    55    86    85    1
    56    86    88   ar
    57    22    21    1
    58    29    28    1
    59    97    96    1
    60    97    98    1
    61     3     4    2
    62     3     2    1
    63    21    20    1
    64    90    88   ar
    65    11     9   ar
    66     6     5    1
    67     6     7   ar
    68     5     2    1
    69    99    98   ar
    70    98   100   ar
    71     2     1    1
    72    45    43   ar
    73    45    46   ar
    74    43    42   ar
    75     9     7   ar
    76    76    75    2
    77    46    48   ar
    78    46    44   ar
    79    48    50   ar
    80    42    44   ar
    81    42    41    1
    82    44    47   ar
    83    75    74    1
    84    50    49   ar
    85    41    38    1
    86    37    38    1
    87    74    73    1
    88    74    77    1
    89    80    78    1
    90    47    49   ar
    91    38    39    1
    92    56    55    1
    93    77    78    1
    94    51    39   am
    95    51    52    1
    96    78    79    1
    97    55    52    1
    98    39    40    2
    99    52    53    1
   100    53    54    2
   101    64    62    1
   102    62    61    1
   103    57    58    1
   104    61    58    1
   105    61    63    1
   106    58    59    1
   107    72    70    1
   108    65    59   am
   109    65    66    1
   110    69    70    1
   111    69    66    1
   112    59    60    2
   113    70    71    1
   114    66    67    1
   115    67    68    2
