@<TRIPOS>MOLECULE
tmp/5kaiV10.pdb
 105 101 0 0 0
SMALL
GASTEIGER

@<TRIPOS>ATOM
      1  N         96.9050  198.3730    4.6730 N.3    19  ILE19      -0.1245
      2  CA        95.8690  198.5790    5.6820 C.3    19  ILE19       0.1561
      3  C         96.2970  197.9670    7.0090 C.2    19  ILE19       0.2260
      4  O         96.1820  198.5930    8.0700 O.2    19  ILE19      -0.2867
      5  CB        94.5280  197.9900    5.2060 C.3    19  ILE19       0.0252
      6  CG1       94.0010  198.7660    4.0050 C.3    19  ILE19       0.0019
      7  CG2       93.5050  198.0130    6.3300 C.3    19  ILE19       0.0019
      8  CD1       93.7270  200.1940    4.3190 C.3    19  ILE19       0.0001
      9  N         96.8440  199.8970   10.3980 N.3    23  LEU23      -0.1245
     10  CA        96.1370  199.5190   11.6160 C.3    23  LEU23       0.1561
     11  C         97.1000  199.3290   12.7810 C.2    23  LEU23       0.2260
     12  O         96.7320  199.5750   13.9350 O.2    23  LEU23      -0.2867
     13  CB        95.3280  198.2420   11.3850 C.3    23  LEU23       0.0270
     14  CG        93.9900  198.3770   10.6560 C.3    23  LEU23       0.0019
     15  CD1       93.4860  197.0160   10.2090 C.3    23  LEU23       0.0001
     16  CD2       92.9650  199.0560   11.5500 C.3    23  LEU23       0.0001
     17  N         98.2530  202.7270   14.1210 N.3    26  THR26      -0.1218
     18  CA        97.1570  203.3030   14.8930 C.3    26  THR26       0.1862
     19  C         97.0350  202.6320   16.2560 C.2    26  THR26       0.2287
     20  O         96.7590  203.2990   17.2600 O.2    26  THR26      -0.2866
     21  CB        95.8450  203.1820   14.1200 C.3    26  THR26       0.1770
     22  OG1       96.0710  203.4940   12.7400 O.3    26  THR26      -0.2211
     23  CG2       94.8110  204.1450   14.6830 C.3    26  THR26       0.0375
     24  N         91.9120  196.0140   19.9590 N.3   105  LEU105     -0.1231
     25  CA        91.0400  195.6590   18.8440 C.3   105  LEU105      0.1693
     26  C         91.6670  196.0410   17.5080 C.2   105  LEU105      0.2591
     27  O         91.5260  195.3110   16.5200 O.2   105  LEU105     -0.2718
     28  CB        89.6760  196.3250   19.0140 C.3   105  LEU105      0.0284
     29  CG        88.9380  195.9850   20.3110 C.3   105  LEU105      0.0019
     30  CD1       87.6120  196.7250   20.3850 C.3   105  LEU105      0.0001
     31  CD2       88.7280  194.4830   20.4410 C.3   105  LEU105      0.0001
     32  N         92.3580  197.1830   17.4550 N.am  106  LEU106     -0.1980
     33  CA        93.0830  197.5480   16.2420 C.3   106  LEU106      0.1596
     34  C         94.2160  196.5700   15.9590 C.2   106  LEU106      0.2287
     35  O         94.5480  196.3260   14.7930 O.2   106  LEU106     -0.2864
     36  CB        93.6280  198.9720   16.3600 C.3   106  LEU106      0.0297
     37  CG        92.6040  200.1080   16.3690 C.3   106  LEU106      0.0022
     38  CD1       93.2910  201.4400   16.6230 C.3   106  LEU106      0.0001
     39  CD2       91.8290  200.1410   15.0620 C.3   106  LEU106      0.0001
     40  N         92.5020  193.6590   14.3350 N.3   109  ALA109     -0.1245
     41  CA        92.0960  194.0350   12.9860 C.3   109  ALA109      0.1562
     42  C         93.2730  194.0040   12.0210 C.2   109  ALA109      0.2260
     43  O         93.1040  193.6560   10.8470 O.2   109  ALA109     -0.2867
     44  CB        91.4530  195.4230   12.9960 C.3   109  ALA109      0.0290
     45  N         93.9370  190.3890   10.8450 N.3   112  TRP112     -0.1227
     46  CA        93.0050  189.8420    9.8640 C.3   112  TRP112      0.1737
     47  C         93.3090  190.3630    8.4660 C.2   112  TRP112      0.2595
     48  O         93.4340  189.5810    7.5150 O.2   112  TRP112     -0.2718
     49  CB        91.5650  190.1660   10.2580 C.3   112  TRP112      0.0564
     50  CG        90.5590  189.4390    9.4180 C.ar  112  TRP112      0.0003
     51  CD1       89.9690  188.2410    9.7000 C.ar  112  TRP112      0.0946
     52  CD2       90.0400  189.8520    8.1480 C.ar  112  TRP112      0.0152
     53  NE1       89.1080  187.8870    8.6900 N.ar  112  TRP112     -0.2442
     54  CE2       89.1320  188.8600    7.7250 C.ar  112  TRP112      0.0810
     55  CE3       90.2460  190.9690    7.3320 C.ar  112  TRP112      0.0012
     56  CZ2       88.4360  188.9490    6.5220 C.ar  112  TRP112      0.0191
     57  CZ3       89.5550  191.0540    6.1370 C.ar  112  TRP112      0.0001
     58  CH2       88.6610  190.0510    5.7430 C.ar  112  TRP112      0.0015
     59  N         93.4310  191.6850    8.3180 N.am  113  HIS113     -0.1975
     60  CA        93.7200  192.2600    7.0090 C.3   113  HIS113      0.1656
     61  C         95.1020  191.8680    6.4990 C.2   113  HIS113      0.2291
     62  O         95.3820  192.0390    5.3070 O.2   113  HIS113     -0.2864
     63  CB        93.5850  193.7860    7.0590 C.3   113  HIS113      0.0771
     64  CG        92.1700  194.2760    6.9680 C.ar  113  HIS113      0.0820
     65  ND1       91.4840  194.3460    5.7740 N.ar  113  HIS113     -0.2267
     66  CD2       91.3170  194.7290    7.9180 C.ar  113  HIS113      0.1154
     67  CE1       90.2680  194.8160    5.9930 C.ar  113  HIS113      0.1986
     68  NE2       90.1400  195.0570    7.2850 N.ar  113  HIS113     -0.2212
     69  N         91.7680  190.4190   -1.4440 N.3   119  LEU119     -0.1245
     70  CA        90.3350  190.6460   -1.5410 C.3   119  LEU119      0.1561
     71  C         89.9800  191.1730   -2.9250 C.2   119  LEU119      0.2260
     72  O         90.7820  191.8480   -3.5770 O.2   119  LEU119     -0.2867
     73  CB        89.8570  191.6360   -0.4730 C.3   119  LEU119      0.0270
     74  CG        90.1340  191.2810    0.9900 C.3   119  LEU119      0.0019
     75  CD1       89.5700  192.3510    1.9130 C.3   119  LEU119      0.0001
     76  CD2       89.5610  189.9140    1.3350 C.3   119  LEU119      0.0001
     77  N         87.9020  193.4650   -3.5060 N.3   121  LEU121     -0.1231
     78  CA        87.7130  194.9110   -3.4340 C.3   121  LEU121      0.1693
     79  C         88.9470  195.6710   -3.9040 C.2   121  LEU121      0.2592
     80  O         88.8230  196.7470   -4.5000 O.2   121  LEU121     -0.2718
     81  CB        87.3520  195.3140   -2.0040 C.3   121  LEU121      0.0284
     82  CG        87.1560  196.8040   -1.7240 C.3   121  LEU121      0.0019
     83  CD1       86.0280  197.3640   -2.5750 C.3   121  LEU121      0.0001
     84  CD2       86.8870  197.0370   -0.2460 C.3   121  LEU121      0.0001
     85  N         90.1390  195.1330   -3.6540 N.am  122  PHE122     -0.1976
     86  CA        91.3790  195.8010   -4.0310 C.3   122  PHE122      0.1639
     87  C         91.7850  195.5330   -5.4740 C.2   122  PHE122      0.2290
     88  O         92.7920  196.0860   -5.9290 O.2   122  PHE122     -0.2864
     89  CB        92.5080  195.3710   -3.0910 C.3   122  PHE122      0.0560
     90  CG        92.1760  195.5320   -1.6360 C.ar  122  PHE122     -0.0200
     91  CD1       91.4680  196.6370   -1.1900 C.ar  122  PHE122     -0.0042
     92  CD2       92.5590  194.5720   -0.7150 C.ar  122  PHE122     -0.0042
     93  CE1       91.1560  196.7850    0.1480 C.ar  122  PHE122     -0.0003
     94  CE2       92.2500  194.7140    0.6240 C.ar  122  PHE122     -0.0003
     95  CZ        91.5480  195.8220    1.0560 C.ar  122  PHE122     -0.0000
     96  N         87.0220  210.2460    2.1970 N.3   141  HIS141     -0.1241
     97  CA        87.6540  210.5120    3.4850 C.3   141  HIS141      0.1621
     98  C         87.5690  211.9890    3.8650 C.2   141  HIS141      0.2264
     99  O         87.5490  212.3170    5.0570 O.2   141  HIS141     -0.2867
    100  CB        89.1090  210.0340    3.4650 C.3   141  HIS141      0.0745
    101  CG        89.2590  208.5400    3.4450 C.ar  141  HIS141      0.0817
    102  ND1       90.4770  207.9180    3.2780 N.ar  141  HIS141     -0.2268
    103  CD2       88.3460  207.5470    3.5770 C.ar  141  HIS141      0.1154
    104  CE1       90.3100  206.6070    3.3040 C.ar  141  HIS141      0.1986
    105  NE2       89.0260  206.3540    3.4870 N.ar  141  HIS141     -0.2212
@<TRIPOS>BOND
     1    88    87    2
     2    87    86    1
     3    80    79    2
     4    86    85    1
     5    86    89    1
     6    79    85   am
     7    79    78    1
     8    72    71    2
     9    77    78    1
    10    78    81    1
    11    89    90    1
    12    71    70    1
    13    83    82    1
    14    81    82    1
    15    82    84    1
    16    90    91   ar
    17    90    92   ar
    18    70    69    1
    19    70    73    1
    20    91    93   ar
    21    92    94   ar
    22    73    74    1
    23    93    95   ar
    24    94    95   ar
    25    74    76    1
    26    74    75    1
    27    96    97    1
    28   102   104   ar
    29   102   101   ar
    30   104   105   ar
    31   101   100    1
    32   101   103   ar
    33   100    97    1
    34    97    98    1
    35   105   103   ar
    36    98    99    2
    37     6     8    1
    38     6     5    1
    39     1     2    1
    40     5     2    1
    41     5     7    1
    42    62    61    2
    43     2     3    1
    44    58    57   ar
    45    58    56   ar
    46    65    67   ar
    47    65    64   ar
    48    67    68   ar
    49    57    55   ar
    50    61    60    1
    51    56    54   ar
    52    64    63    1
    53    64    66   ar
    54     3     4    2
    55    60    63    1
    56    60    59    1
    57    68    66   ar
    58    55    52   ar
    59    48    47    2
    60    54    52   ar
    61    54    53   ar
    62    52    50   ar
    63    59    47   am
    64    47    46    1
    65    53    51   ar
    66    50    51   ar
    67    50    49    1
    68    46    49    1
    69    46    45    1
    70    15    14    1
    71     9    10    1
    72    14    13    1
    73    14    16    1
    74    43    42    2
    75    13    10    1
    76    10    11    1
    77    42    41    1
    78    22    21    1
    79    11    12    2
    80    41    44    1
    81    41    40    1
    82    21    23    1
    83    21    18    1
    84    17    18    1
    85    35    34    2
    86    18    19    1
    87    39    37    1
    88    34    33    1
    89    33    36    1
    90    33    32    1
    91    19    20    2
    92    36    37    1
    93    37    38    1
    94    27    26    2
    95    32    26   am
    96    26    25    1
    97    25    28    1
    98    25    24    1
    99    28    29    1
   100    29    30    1
   101    29    31    1
