@<TRIPOS>MOLECULE
tmp/5kaiW11.pdb
 87 87 0 0 0
SMALL
GASTEIGER

@<TRIPOS>ATOM
      1  N        187.8110  231.5850   18.1980 N.3   182  LEU182     -0.1231
      2  CA       188.0650  230.5140   17.2430 C.3   182  LEU182      0.1693
      3  C        188.0340  229.1320   17.8770 C.2   182  LEU182      0.2592
      4  O        188.2240  228.1360   17.1670 O.2   182  LEU182     -0.2718
      5  CB       189.4180  230.7240   16.5570 C.3   182  LEU182      0.0284
      6  CG       189.8470  232.1700   16.3140 C.3   182  LEU182      0.0019
      7  CD1      191.2880  232.2130   15.8630 C.3   182  LEU182      0.0001
      8  CD2      188.9560  232.8250   15.2910 C.3   182  LEU182      0.0001
      9  N        187.8150  229.0440   19.1810 N.am  183  ASP183     -0.1960
     10  CA       187.7890  227.7660   19.8770 C.3   183  ASP183      0.1825
     11  C        186.6850  226.8840   19.3020 C.2   183  ASP183      0.2464
     12  O        185.5050  227.2580   19.3740 O.2   183  ASP183     -0.2730
     13  CB       187.5720  227.9940   21.3720 C.3   183  ASP183      0.1450
     14  CG       187.8290  226.7500   22.2060 C.2   183  ASP183      0.3671
     15  OD1      187.5980  225.6270   21.7160 O.co2 183  ASP183     -0.2456
     16  OD2      188.2640  226.9010   23.3670 O.co2 183  ASP183     -0.2456
     17  N        187.0130  225.7240   18.7240 N.am  184  PRO184     -0.2715
     18  CA       185.9560  224.8550   18.1850 C.3   184  PRO184      0.1536
     19  C        185.0450  224.2750   19.2520 C.2   184  PRO184      0.2598
     20  O        183.9080  223.9090   18.9320 O.2   184  PRO184     -0.2715
     21  CB       186.7390  223.7540   17.4560 C.3   184  PRO184      0.0310
     22  CG       188.0750  223.7410   18.1170 C.3   184  PRO184      0.0237
     23  CD       188.3580  225.1650   18.5040 C.3   184  PRO184      0.0939
     24  N        185.4990  224.1800   20.5040 N.am  185  ARG185     -0.1978
     25  CA       184.6110  223.7490   21.5780 C.3   185  ARG185      0.1597
     26  C        183.5020  224.7570   21.8440 C.2   185  ARG185      0.2287
     27  O        182.4590  224.3840   22.3910 O.2   185  ARG185     -0.2864
     28  CB       185.4000  223.5140   22.8660 C.3   185  ARG185      0.0334
     29  CG       186.2950  222.2890   22.8610 C.3   185  ARG185      0.0492
     30  CD       187.0780  222.2330   24.1570 C.3   185  ARG185      0.2205
     31  NE       187.6760  223.5310   24.4530 N.pl3 185  ARG185     -0.0865
     32  CZ       188.9810  223.7430   24.5840 C.cat 185  ARG185      0.5346
     33  NH1      189.8340  222.7360   24.4640 N.pl3 185  ARG185      0.1354
     34  NH2      189.4320  224.9620   24.8460 N.pl3 185  ARG185      0.1354
     35  N        185.3130  230.6300   10.5530 N.3   217  TRP217     -0.1241
     36  CA       185.2750  229.1870   10.3390 C.3   217  TRP217      0.1605
     37  C        184.4270  228.8570    9.1180 C.2   217  TRP217      0.2264
     38  O        184.8280  228.0610    8.2620 O.2   217  TRP217     -0.2867
     39  CB       184.7310  228.4760   11.5810 C.3   217  TRP217      0.0550
     40  CG       185.7740  228.1220   12.6050 C.ar  217  TRP217      0.0003
     41  CD1      186.1860  228.8890   13.6560 C.ar  217  TRP217      0.0946
     42  CD2      186.5250  226.9010   12.6810 C.ar  217  TRP217      0.0152
     43  NE1      187.1500  228.2250   14.3780 N.ar  217  TRP217     -0.2442
     44  CE2      187.3760  227.0040   13.8000 C.ar  217  TRP217      0.0810
     45  CE3      186.5630  225.7350   11.9100 C.ar  217  TRP217      0.0012
     46  CZ2      188.2540  225.9850   14.1670 C.ar  217  TRP217      0.0191
     47  CZ3      187.4350  224.7240   12.2770 C.ar  217  TRP217      0.0001
     48  CH2      188.2690  224.8560   13.3940 C.ar  217  TRP217      0.0015
     49  N        186.3230  229.7160    5.7330 N.3   220  LEU220     -0.1231
     50  CA       187.3020  228.7710    5.2070 C.3   220  LEU220      0.1693
     51  C        186.6700  227.4350    4.8510 C.2   220  LEU220      0.2591
     52  O        187.1010  226.7860    3.8900 O.2   220  LEU220     -0.2718
     53  CB       188.4270  228.5500    6.2180 C.3   220  LEU220      0.0284
     54  CG       188.9490  229.7360    7.0290 C.3   220  LEU220      0.0019
     55  CD1      190.0590  229.2780    7.9720 C.3   220  LEU220      0.0001
     56  CD2      189.3780  230.8860    6.1180 C.3   220  LEU220      0.0001
     57  N        185.6650  227.0040    5.6180 N.am  221  ILE221     -0.1980
     58  CA       184.9860  225.7470    5.3210 C.3   221  ILE221      0.1595
     59  C        184.3680  225.7950    3.9300 C.2   221  ILE221      0.2287
     60  O        184.4380  224.8230    3.1680 O.2   221  ILE221     -0.2864
     61  CB       183.9370  225.4410    6.4080 C.3   221  ILE221      0.0276
     62  CG1      184.6250  225.0100    7.7050 C.3   221  ILE221      0.0022
     63  CG2      182.9670  224.3670    5.9390 C.3   221  ILE221      0.0022
     64  CD1      183.6770  224.8390    8.8720 C.3   221  ILE221      0.0001
     65  N        187.3870  225.5950    1.5160 N.3   224  ALA224     -0.1231
     66  CA       187.9320  224.2440    1.4310 C.3   224  ALA224      0.1694
     67  C        187.0000  223.3260    0.6500 C.2   224  ALA224      0.2592
     68  O        187.4250  222.6420   -0.2890 O.2   224  ALA224     -0.2718
     69  CB       188.1850  223.6910    2.8340 C.3   224  ALA224      0.0304
     70  N        185.7200  223.2980    1.0250 N.am  225  GLY225     -0.1957
     71  CA       184.7580  222.5010    0.2860 C.3   225  GLY225      0.1869
     72  C        184.5380  222.9960   -1.1280 C.2   225  GLY225      0.2309
     73  O        184.1980  222.2110   -2.0170 O.2   225  GLY225     -0.2863
     74  N        187.3310  221.5350   -2.8570 N.3   228  TRP228     -0.1241
     75  CA       187.1000  220.0940   -2.8140 C.3   228  TRP228      0.1605
     76  C        186.1500  219.6550   -3.9220 C.2   228  TRP228      0.2264
     77  O        186.4510  218.7270   -4.6820 O.2   228  TRP228     -0.2867
     78  CB       186.5550  219.6940   -1.4410 C.3   228  TRP228      0.0550
     79  CG       185.8610  218.3640   -1.4260 C.ar  228  TRP228      0.0003
     80  CD1      184.5270  218.1340   -1.6040 C.ar  228  TRP228      0.0946
     81  CD2      186.4640  217.0810   -1.2180 C.ar  228  TRP228      0.0152
     82  NE1      184.2630  216.7880   -1.5230 N.ar  228  TRP228     -0.2442
     83  CE2      185.4350  216.1200   -1.2860 C.ar  228  TRP228      0.0810
     84  CE3      187.7740  216.6510   -0.9810 C.ar  228  TRP228      0.0012
     85  CZ2      185.6750  214.7560   -1.1270 C.ar  228  TRP228      0.0191
     86  CZ3      188.0090  215.2960   -0.8230 C.ar  228  TRP228      0.0001
     87  CH2      186.9650  214.3650   -0.8960 C.ar  228  TRP228      0.0015
@<TRIPOS>BOND
     1    77    76    2
     2    76    75    1
     3    74    75    1
     4    75    78    1
     5    73    72    2
     6    80    82   ar
     7    80    79   ar
     8    82    83   ar
     9    78    79    1
    10    79    81   ar
    11    83    81   ar
    12    83    85   ar
    13    81    84   ar
    14    72    71    1
    15    85    87   ar
    16    84    86   ar
    17    87    86   ar
    18    68    67    2
    19    71    70    1
    20    67    70   am
    21    67    66    1
    22    66    65    1
    23    66    69    1
    24    60    59    2
    25    52    51    2
    26    59    58    1
    27    51    50    1
    28    51    57   am
    29    50    49    1
    30    50    53    1
    31    58    57    1
    32    58    61    1
    33    63    61    1
    34    56    54    1
    35    53    54    1
    36    61    62    1
    37    54    55    1
    38    62    64    1
    39    38    37    2
    40    37    36    1
    41    36    35    1
    42    36    39    1
    43    39    40    1
    44    45    47   ar
    45    45    42   ar
    46    47    48   ar
    47    40    42   ar
    48    40    41   ar
    49    42    44   ar
    50    48    46   ar
    51    41    43   ar
    52    44    46   ar
    53    44    43   ar
    54     8     6    1
    55     7     6    1
    56     6     5    1
    57     5     2    1
    58     4     3    2
    59     2     3    1
    60     2     1    1
    61    21    22    1
    62    21    18    1
    63     3     9   am
    64    22    23    1
    65    18    17    1
    66    18    19    1
    67    23    17    1
    68    17    11   am
    69    20    19    2
    70     9    10    1
    71    19    24   am
    72    11    12    2
    73    11    10    1
    74    10    13    1
    75    24    25    1
    76    13    14    1
    77    25    26    1
    78    25    28    1
    79    15    14   ar
    80    26    27    2
    81    14    16   ar
    82    29    28    1
    83    29    30    1
    84    30    31    1
    85    31    32    2
    86    33    32    1
    87    32    34    1
