@<TRIPOS>MOLECULE
tmp/5kaoB00.pdb
 107 98 0 0 0
SMALL
GASTEIGER

@<TRIPOS>ATOM
      1  N          6.1890  -12.1740  -15.4770 N.3     8  ARG8       -0.1245
      2  CA         6.9020  -10.9640  -15.8830 C.3     8  ARG8        0.1563
      3  C          7.8660  -11.2960  -17.0240 C.2     8  ARG8        0.2260
      4  O          8.5850  -12.2880  -16.9480 O.2     8  ARG8       -0.2867
      5  CB         7.6500  -10.3620  -14.6960 C.3     8  ARG8        0.0307
      6  CG         6.7180   -9.7630  -13.6460 C.3     8  ARG8        0.0489
      7  CD         7.5140   -9.2090  -12.4620 C.3     8  ARG8        0.2205
      8  NE         6.6180   -8.5600  -11.5140 N.pl3   8  ARG8       -0.0865
      9  CZ         6.9960   -7.9900  -10.3760 C.cat   8  ARG8        0.5346
     10  NH1        8.2790   -7.9770  -10.0250 N.pl3   8  ARG8        0.1354
     11  NH2        6.0830   -7.4310   -9.5880 N.pl3   8  ARG8        0.1354
     12  N         13.0060   -6.3200  -17.0820 N.3    23  LEU23      -0.1245
     13  CA        11.6630   -6.3540  -17.6620 C.3    23  LEU23       0.1561
     14  C         11.5610   -5.7070  -19.0230 C.2    23  LEU23       0.2260
     15  O         11.9050   -4.5260  -19.1570 O.2    23  LEU23      -0.2867
     16  CB        10.6850   -5.6070  -16.7530 C.3    23  LEU23       0.0270
     17  CG        10.0290   -6.2470  -15.5480 C.3    23  LEU23       0.0019
     18  CD1        9.1460   -5.1930  -14.9240 C.3    23  LEU23       0.0001
     19  CD2        9.2040   -7.4260  -16.0040 C.3    23  LEU23       0.0001
     20  N          9.4460   -3.7680  -21.2000 N.3    25  ASP25      -0.1239
     21  CA         8.3270   -2.9640  -20.7190 C.3    25  ASP25       0.1674
     22  C          7.7930   -1.9620  -21.7330 C.2    25  ASP25       0.2266
     23  O          8.3490   -0.8730  -21.9200 O.2    25  ASP25      -0.2867
     24  CB         8.7340   -2.2150  -19.4500 C.3    25  ASP25       0.1410
     25  CG         7.5520   -1.6170  -18.7310 C.2    25  ASP25       0.3668
     26  OD1        7.7490   -1.0780  -17.6260 O.co2  25  ASP25      -0.2456
     27  OD2        6.4210   -1.7070  -19.2600 O.co2  25  ASP25      -0.2456
     28  N          5.2170   -0.1810  -21.4740 N.3    27  GLY27      -0.1210
     29  CA         4.6460    0.9790  -20.8100 C.3    27  GLY27       0.1956
     30  C          5.6760    1.9960  -20.3190 C.2    27  GLY27       0.2612
     31  O          5.3140    3.0360  -19.7780 O.2    27  GLY27      -0.2717
     32  N          6.9560    1.7050  -20.5230 N.am   28  ALA28      -0.1965
     33  CA         8.0380    2.6150  -20.1410 C.3    28  ALA28       0.1728
     34  C          8.5930    3.3680  -21.3450 C.2    28  ALA28       0.2616
     35  O          9.0850    2.7390  -22.2720 O.2    28  ALA28      -0.2715
     36  CB         9.1640    1.8270  -19.4650 C.3    28  ALA28       0.0334
     37  N          8.5510    4.7000  -21.3430 N.am   29  ASP29      -0.1957
     38  CA         9.1640    5.4370  -22.4620 C.3    29  ASP29       0.1840
     39  C         10.6690    5.2260  -22.5170 C.2    29  ASP29       0.2622
     40  O         11.2610    5.0690  -23.6010 O.2    29  ASP29      -0.2715
     41  CB         8.8860    6.9360  -22.3590 C.3    29  ASP29       0.1450
     42  CG         7.4150    7.2470  -22.3190 C.2    29  ASP29       0.3671
     43  OD1        7.0380    8.2360  -21.6590 O.co2  29  ASP29      -0.2456
     44  OD2        6.6420    6.4950  -22.9510 O.co2  29  ASP29      -0.2456
     45  N         11.2710    5.2300  -21.3300 N.am   30  ASP30      -0.1971
     46  CA        12.7100    5.1770  -21.1840 C.3    30  ASP30       0.1709
     47  C         13.1130    3.9340  -20.4080 C.2    30  ASP30       0.2293
     48  O         12.2760    3.2840  -19.7640 O.2    30  ASP30      -0.2864
     49  CB        13.2260    6.4280  -20.4660 C.3    30  ASP30       0.1436
     50  CG        12.8950    7.7120  -21.2010 C.2    30  ASP30       0.3671
     51  OD1       12.6140    7.6580  -22.4160 O.co2  30  ASP30      -0.2456
     52  OD2       12.9490    8.7840  -20.5600 O.co2  30  ASP30      -0.2456
     53  N         15.1490    2.2070  -17.4090 N.3    32  VAL32      -0.1245
     54  CA        15.5600    2.5920  -16.0610 C.3    32  VAL32       0.1561
     55  C         16.2550    1.4210  -15.3880 C.2    32  VAL32       0.2260
     56  O         15.6960    0.3340  -15.3120 O.2    32  VAL32      -0.2867
     57  CB        14.3620    3.0380  -15.2030 C.3    32  VAL32       0.0252
     58  CG1       14.8400    3.6580  -13.8630 C.3    32  VAL32       0.0019
     59  CG2       13.5110    4.0270  -15.9880 C.3    32  VAL32       0.0019
     60  N         17.5620   13.8850  -13.7080 N.3    45  LYS45      -0.1245
     61  CA        16.2440   13.7390  -14.2920 C.3    45  LYS45       0.1561
     62  C         15.2870   13.2440  -13.2210 C.2    45  LYS45       0.2260
     63  O         15.6870   12.5640  -12.2710 O.2    45  LYS45      -0.2867
     64  CB        16.2670   12.7640  -15.4870 C.3    45  LYS45       0.0271
     65  CG        15.0080   12.8250  -16.3810 C.3    45  LYS45       0.0035
     66  CD        15.1040   11.8720  -17.5790 C.3    45  LYS45       0.0206
     67  CE        13.9860   12.1160  -18.5890 C.3    45  LYS45       0.1093
     68  NZ        14.1400   13.4300  -19.2680 N.3    45  LYS45      -0.1314
     69  N         11.6130   11.0630  -13.0580 N.3    47  ILE47      -0.1231
     70  CA        10.6240   10.3180  -13.8250 C.3    47  ILE47       0.1692
     71  C          9.5050    9.8310  -12.9180 C.2    47  ILE47       0.2593
     72  O          9.7230    9.5070  -11.7380 O.2    47  ILE47      -0.2718
     73  CB        11.2420    9.1290  -14.5750 C.3    47  ILE47       0.0266
     74  CG1       11.9980    8.2170  -13.6050 C.3    47  ILE47       0.0019
     75  CG2       12.1440    9.6240  -15.7020 C.3    47  ILE47       0.0020
     76  CD1       12.4210    6.8970  -14.2350 C.3    47  ILE47       0.0001
     77  N          8.3010    9.8080  -13.4740 N.am   48  GLY48      -0.1942
     78  CA         7.1230    9.5560  -12.6670 C.3    48  GLY48       0.2014
     79  C          6.3670    8.3050  -13.0440 C.2    48  GLY48       0.2639
     80  O          6.2100    7.9750  -14.2210 O.2    48  GLY48      -0.2714
     81  N          5.8750    7.6160  -12.0260 N.am   49  GLY49      -0.1939
     82  CA         5.0180    6.4620  -12.2190 C.3    49  GLY49       0.2014
     83  C          3.9820    6.3910  -11.1120 C.2    49  GLY49       0.2638
     84  O          3.6560    7.3990  -10.4930 O.2    49  GLY49      -0.2714
     85  N          3.4690    5.1970  -10.8510 N.am   50  ILE50      -0.1977
     86  CA         2.3430    5.0540   -9.9330 C.3    50  ILE50       0.1596
     87  C          2.5310    5.6670   -8.5210 C.2    50  ILE50       0.2287
     88  O          1.6030    6.2580   -7.9890 O.2    50  ILE50      -0.2864
     89  CB         1.9500    3.5650   -9.8370 C.3    50  ILE50       0.0276
     90  CG1        0.8770    3.3040  -10.9020 C.3    50  ILE50       0.0022
     91  CG2        1.3880    3.2090   -8.4540 C.3    50  ILE50       0.0022
     92  CD1        0.5840    1.8340  -11.1710 C.3    50  ILE50       0.0001
     93  N         13.4750   -2.8210   -9.8730 N.3    82  VAL82      -0.1245
     94  CA        13.7300   -3.7160  -10.9850 C.3    82  VAL82       0.1561
     95  C         14.3570   -2.9530  -12.1330 C.2    82  VAL82       0.2260
     96  O         14.1460   -1.7560  -12.2640 O.2    82  VAL82      -0.2867
     97  CB        12.4360   -4.3770  -11.4910 C.3    82  VAL82       0.0252
     98  CG1       11.9420   -5.4240  -10.5060 C.3    82  VAL82       0.0019
     99  CG2       11.3820   -3.3130  -11.7280 C.3    82  VAL82       0.0019
    100  N         14.3810   -2.0150  -15.9460 N.3    84  ILE84      -0.1245
    101  CA        13.2720   -1.8460  -16.8850 C.3    84  ILE84       0.1561
    102  C         13.7810   -1.4760  -18.2650 C.2    84  ILE84       0.2260
    103  O         14.4360   -0.4550  -18.4170 O.2    84  ILE84      -0.2867
    104  CB        12.3080   -0.7400  -16.4100 C.3    84  ILE84       0.0252
    105  CG1       11.6050   -1.1520  -15.1160 C.3    84  ILE84       0.0019
    106  CG2       11.3170   -0.3630  -17.5340 C.3    84  ILE84       0.0019
    107  CD1       10.8350   -0.0110  -14.4450 C.3    84  ILE84       0.0001
@<TRIPOS>BOND
     1    40    39    2
     2    44    42   ar
     3    39    38    1
     4    39    45   am
     5    38    41    1
     6    38    37    1
     7    51    50   ar
     8    41    42    1
     9    42    43   ar
    10    35    34    2
    11    23    22    2
    12    22    21    1
    13    28    29    1
    14    34    37   am
    15    34    33    1
    16    45    46    1
    17    50    52   ar
    18    50    49    1
    19    20    21    1
    20    46    49    1
    21    46    47    1
    22    29    30    1
    23    21    24    1
    24    32    30   am
    25    32    33    1
    26    47    48    2
    27    30    31    2
    28    33    36    1
    29    24    25    1
    30    68    67    1
    31    27    25   ar
    32    15    14    2
    33    14    13    1
    34    25    26   ar
    35    67    66    1
    36   103   102    2
    37   102   101    1
    38    13    12    1
    39    13    16    1
    40    66    65    1
    41   106   104    1
    42    53    54    1
    43     3     4    2
    44     3     2    1
    45   101   104    1
    46   101   100    1
    47    16    17    1
    48   104   105    1
    49    65    64    1
    50    54    55    1
    51    54    57    1
    52    19    17    1
    53    59    57    1
    54     2     1    1
    55     2     5    1
    56    75    73    1
    57    17    18    1
    58    64    61    1
    59    55    56    2
    60    57    58    1
    61   105   107    1
    62     5     6    1
    63    73    70    1
    64    73    74    1
    65    61    60    1
    66    61    62    1
    67    76    74    1
    68    80    79    2
    69    70    69    1
    70    70    71    1
    71     6     7    1
    72    77    71   am
    73    77    78    1
    74    62    63    2
    75    79    78    1
    76    79    81   am
    77    71    72    2
    78     7     8    1
    79    96    95    2
    80    82    81    1
    81    82    83    1
    82    95    94    1
    83    99    97    1
    84     8     9    2
    85    97    94    1
    86    97    98    1
    87    92    90    1
    88    83    85   am
    89    83    84    2
    90    94    93    1
    91    90    89    1
    92    85    86    1
    93     9    10    1
    94     9    11    1
    95    86    89    1
    96    86    87    1
    97    89    91    1
    98    87    88    2
