@<TRIPOS>MOLECULE
tmp/5kasA03.pdb
 142 143 0 0 0
SMALL
GASTEIGER

@<TRIPOS>ATOM
      1  N         -4.8950   16.7420   22.0770 N.3    11  HIS11      -0.1241
      2  CA        -5.6720   17.9440   22.3770 C.3    11  HIS11       0.1621
      3  C         -7.0720   17.9270   21.7740 C.2    11  HIS11       0.2264
      4  O         -7.3230   18.6270   20.7920 O.2    11  HIS11      -0.2867
      5  CB        -4.9550   19.2000   21.8810 C.3    11  HIS11       0.0745
      6  CG        -3.6980   19.5450   22.6290 C.ar   11  HIS11       0.0817
      7  ND1       -3.7000   20.0560   23.9140 N.ar   11  HIS11      -0.2268
      8  CD2       -2.4000   19.4780   22.2530 C.ar   11  HIS11       0.1154
      9  CE1       -2.4510   20.2810   24.2920 C.ar   11  HIS11       0.1986
     10  NE2       -1.6460   19.9410   23.3000 N.ar   11  HIS11      -0.2212
     11  N         -1.1660   15.5060   26.9050 N.3    74  ASP74      -0.1239
     12  CA        -1.7680   16.7570   26.4120 C.3    74  ASP74       0.1674
     13  C         -3.0440   16.4590   25.6280 C.2    74  ASP74       0.2266
     14  O         -3.0600   16.4600   24.3930 O.2    74  ASP74      -0.2867
     15  CB        -0.7680   17.5810   25.5770 C.3    74  ASP74       0.1410
     16  CG        -0.2340   18.8280   26.3220 C.2    74  ASP74       0.3668
     17  OD1       -0.4470   18.9610   27.5510 O.co2  74  ASP74      -0.2456
     18  OD2        0.4200   19.6780   25.6770 O.co2  74  ASP74      -0.2456
     19  N         -6.8220   24.0900   24.2400 N.3    78  HIS78      -0.1241
     20  CA        -6.1790   25.3380   24.6380 C.3    78  HIS78       0.1621
     21  C         -7.2750   26.3720   24.8320 C.2    78  HIS78       0.2264
     22  O         -7.6100   27.1360   23.9250 O.2    78  HIS78      -0.2867
     23  CB        -5.1700   25.7900   23.5940 C.3    78  HIS78       0.0745
     24  CG        -4.0520   24.8210   23.3830 C.ar   78  HIS78       0.0817
     25  ND1       -4.1530   23.7510   22.5220 N.ar   78  HIS78      -0.2268
     26  CD2       -2.8150   24.7510   23.9310 C.ar   78  HIS78       0.1154
     27  CE1       -3.0230   23.0680   22.5370 C.ar   78  HIS78       0.1986
     28  NE2       -2.1960   23.6490   23.3880 N.ar   78  HIS78      -0.2212
     29  N          0.9900   18.7240   30.2490 N.3   115  ASN115     -0.1225
     30  CA         0.7580   19.8510   31.1450 C.3   115  ASN115      0.1785
     31  C         -0.6830   20.3450   31.1020 C.2   115  ASN115      0.2597
     32  O         -1.1390   20.9590   32.0740 O.2   115  ASN115     -0.2718
     33  CB         1.7430   20.9880   30.8350 C.3   115  ASN115      0.1169
     34  CG         1.7040   21.4340   29.3980 C.2   115  ASN115      0.2627
     35  OD1        2.0710   20.6880   28.4870 O.2   115  ASN115     -0.2716
     36  ND2        1.2700   22.6750   29.1790 N.am  115  ASN115     -0.0877
     37  N         -1.4200   20.0680   30.0270 N.am  116  HIS116     -0.1975
     38  CA        -2.8370   20.4050   29.9450 C.3   116  HIS116      0.1656
     39  C         -3.7420   19.3550   30.5750 C.2   116  HIS116      0.2291
     40  O         -4.9570   19.5690   30.6430 O.2   116  HIS116     -0.2864
     41  CB        -3.2450   20.6210   28.4790 C.3   116  HIS116      0.0771
     42  CG        -2.8150   21.9480   27.9410 C.ar  116  HIS116      0.0820
     43  ND1       -3.6140   23.0690   28.0130 N.ar  116  HIS116     -0.2267
     44  CD2       -1.6550   22.3470   27.3670 C.ar  116  HIS116      0.1154
     45  CE1       -2.9720   24.0970   27.4860 C.ar  116  HIS116      0.1986
     46  NE2       -1.7780   23.6870   27.0930 N.ar  116  HIS116     -0.2212
     47  N          7.9880   22.6280   34.7420 N.3   179  TYR179     -0.1241
     48  CA         7.5560   23.7480   33.9180 C.3   179  TYR179      0.1605
     49  C          7.6390   25.0460   34.7150 C.2   179  TYR179      0.2264
     50  O          7.2160   25.1080   35.8700 O.2   179  TYR179     -0.2867
     51  CB         6.1230   23.4990   33.4430 C.3   179  TYR179      0.0534
     52  CG         5.6620   24.2680   32.2290 C.ar  179  TYR179     -0.0201
     53  CD1        6.4410   25.2640   31.6530 C.ar  179  TYR179     -0.0009
     54  CD2        4.4190   24.0080   31.6670 C.ar  179  TYR179     -0.0009
     55  CE1        6.0020   25.9650   30.5490 C.ar  179  TYR179      0.0417
     56  CE2        3.9750   24.7060   30.5600 C.ar  179  TYR179      0.0417
     57  CZ         4.7690   25.6790   30.0050 C.ar  179  TYR179      0.1957
     58  OH         4.3280   26.3740   28.9000 O.3   179  TYR179     -0.2866
     59  N         12.7590   25.7600   22.6130 N.3   223  PHE223     -0.1241
     60  CA        11.7840   25.5490   21.5540 C.3   223  PHE223      0.1605
     61  C         12.3490   26.0650   20.2340 C.2   223  PHE223      0.2264
     62  O         12.6530   27.2560   20.1120 O.2   223  PHE223     -0.2867
     63  CB        10.4900   26.2660   21.9190 C.3   223  PHE223      0.0534
     64  CG         9.3550   26.0250   20.9590 C.ar  223  PHE223     -0.0203
     65  CD1        9.2550   24.8490   20.2260 C.ar  223  PHE223     -0.0042
     66  CD2        8.3780   26.9850   20.8070 C.ar  223  PHE223     -0.0042
     67  CE1        8.1930   24.6520   19.3530 C.ar  223  PHE223     -0.0003
     68  CE2        7.3280   26.7920   19.9400 C.ar  223  PHE223     -0.0003
     69  CZ         7.2380   25.6180   19.2120 C.ar  223  PHE223     -0.0000
     70  N         11.1480   25.5450   28.6360 N.3   231  TRP231     -0.1241
     71  CA        10.0190   25.2220   29.5020 C.3   231  TRP231      0.1605
     72  C         10.4450   24.9860   30.9450 C.2   231  TRP231      0.2264
     73  O          9.7700   25.4540   31.8700 O.2   231  TRP231     -0.2867
     74  CB         9.2850   23.9880   28.9720 C.3   231  TRP231      0.0550
     75  CG         9.1770   24.0010   27.5020 C.ar  231  TRP231      0.0003
     76  CD1        9.8770   23.2340   26.6330 C.ar  231  TRP231      0.0946
     77  CD2        8.3380   24.8540   26.7060 C.ar  231  TRP231      0.0152
     78  NE1        9.5250   23.5410   25.3430 N.ar  231  TRP231     -0.2442
     79  CE2        8.5870   24.5380   25.3590 C.ar  231  TRP231      0.0810
     80  CE3        7.4010   25.8500   27.0040 C.ar  231  TRP231      0.0012
     81  CZ2        7.9260   25.1760   24.3040 C.ar  231  TRP231      0.0191
     82  CZ3        6.7470   26.4800   25.9560 C.ar  231  TRP231      0.0001
     83  CH2        7.0170   26.1430   24.6260 C.ar  231  TRP231      0.0015
     84  N          5.0150   17.8890   23.4700 N.3   258  HIS258     -0.1226
     85  CA         4.7880   19.2540   23.9300 C.3   258  HIS258      0.1752
     86  C          4.9940   20.3100   22.8450 C.2   258  HIS258      0.2596
     87  O          4.2720   21.3100   22.8330 O.2   258  HIS258     -0.2718
     88  CB         5.6680   19.5670   25.1480 C.3   258  HIS258      0.0759
     89  CG         5.4210   20.9170   25.7420 C.ar  258  HIS258      0.0818
     90  ND1        4.2210   21.2750   26.3220 N.ar  258  HIS258     -0.2268
     91  CD2        6.2380   21.9910   25.8690 C.ar  258  HIS258      0.1154
     92  CE1        4.3010   22.5240   26.7490 C.ar  258  HIS258      0.1986
     93  NE2        5.5170   22.9770   26.4940 N.ar  258  HIS258     -0.2212
     94  N          5.9460   20.1150   21.9220 N.am  259  HIS259     -0.1961
     95  CA         6.2250   21.1450   20.9190 C.3   259  HIS259      0.1787
     96  C          5.2350   21.1310   19.7650 C.2   259  HIS259      0.2620
     97  O          5.0150   22.1740   19.1450 O.2   259  HIS259     -0.2715
     98  CB         7.6160   20.9720   20.3340 C.3   259  HIS259      0.0785
     99  CG         8.7110   21.3640   21.2550 C.ar  259  HIS259      0.0821
    100  ND1       10.0330   21.1780   20.9380 N.ar  259  HIS259     -0.2267
    101  CD2        8.6890   21.9370   22.4800 C.ar  259  HIS259      0.1154
    102  CE1       10.7850   21.6140   21.9310 C.ar  259  HIS259      0.1986
    103  NE2        9.9930   22.0760   22.8810 N.ar  259  HIS259     -0.2212
    104  N          4.6680   19.9630   19.4560 N.am  260  HIS260     -0.1973
    105  CA         3.7530   19.7290   18.3420 C.3   260  HIS260      0.1656
    106  C          4.4870   19.6910   17.0110 C.2   260  HIS260      0.2291
    107  O          3.8860   19.3920   15.9760 O.2   260  HIS260     -0.2864
    108  CB         2.6510   20.7820   18.2750 C.3   260  HIS260      0.0771
    109  CG         1.8040   20.8490   19.5050 C.ar  260  HIS260      0.0820
    110  ND1        0.6500   21.5960   19.5630 N.ar  260  HIS260     -0.2267
    111  CD2        1.9360   20.2610   20.7190 C.ar  260  HIS260      0.1154
    112  CE1        0.1080   21.4710   20.7610 C.ar  260  HIS260      0.1986
    113  NE2        0.8700   20.6680   21.4840 N.ar  260  HIS260     -0.2212
    114  N         -3.3310   22.7780   15.7770 N.3   287  TRP287     -0.1241
    115  CA        -3.6000   24.0780   16.3750 C.3   287  TRP287      0.1605
    116  C         -2.4550   25.0680   16.2150 C.2   287  TRP287      0.2264
    117  O         -1.3300   24.8310   16.6780 O.2   287  TRP287     -0.2867
    118  CB        -3.9110   23.8490   17.8570 C.3   287  TRP287      0.0550
    119  CG        -4.1610   25.0680   18.6740 C.ar  287  TRP287      0.0003
    120  CD1       -5.3030   25.8130   18.7250 C.ar  287  TRP287      0.0946
    121  CD2       -3.2550   25.6580   19.6060 C.ar  287  TRP287      0.0152
    122  NE1       -5.1570   26.8420   19.6250 N.ar  287  TRP287     -0.2442
    123  CE2       -3.9050   26.7710   20.1760 C.ar  287  TRP287      0.0810
    124  CE3       -1.9510   25.3610   20.0060 C.ar  287  TRP287      0.0012
    125  CZ2       -3.2940   27.5850   21.1280 C.ar  287  TRP287      0.0191
    126  CZ3       -1.3480   26.1720   20.9580 C.ar  287  TRP287      0.0001
    127  CH2       -2.0190   27.2680   21.4990 C.ar  287  TRP287      0.0015
    128  N         -0.1740   27.8350   17.1220 N.3   289  THR289     -0.1218
    129  CA         0.1840   28.2570   18.4630 C.3   289  THR289      0.1862
    130  C         -0.0260   29.7530   18.6430 C.2   289  THR289      0.2287
    131  O          0.1470   30.5500   17.7150 O.2   289  THR289     -0.2866
    132  CB         1.6340   27.9050   18.7810 C.3   289  THR289      0.1770
    133  OG1        1.8990   28.2450   20.1440 O.3   289  THR289     -0.2211
    134  CG2        2.5940   28.6630   17.8730 C.3   289  THR289      0.0375
    135  N          1.7710   31.2810   20.9820 N.3   291  LEU291     -0.1245
    136  CA         3.0050   31.7230   21.6130 C.3   291  LEU291      0.1561
    137  C          3.4890   33.0090   20.9480 C.2   291  LEU291      0.2260
    138  O          3.6750   33.0250   19.7220 O.2   291  LEU291     -0.2867
    139  CB         4.0730   30.6360   21.5070 C.3   291  LEU291      0.0270
    140  CG         5.3660   30.8640   22.2960 C.3   291  LEU291      0.0019
    141  CD1        5.0960   30.9000   23.7920 C.3   291  LEU291      0.0001
    142  CD2        6.3850   29.7840   21.9650 C.3   291  LEU291      0.0001
@<TRIPOS>BOND
     1   114   115    1
     2   107   106    2
     3   116   115    1
     4   116   117    2
     5   115   118    1
     6   106   105    1
     7   128   129    1
     8   131   130    2
     9   118   119    1
    10   134   132    1
    11   108   105    1
    12   108   109    1
    13   105   104    1
    14   129   130    1
    15   129   132    1
    16   119   120   ar
    17   119   121   ar
    18   120   122   ar
    19   132   133    1
    20    97    96    2
    21    69    67   ar
    22    69    68   ar
    23    67    65   ar
    24   104    96   am
    25   109   110   ar
    26   109   111   ar
    27   110   112   ar
    28   121   124   ar
    29   121   123   ar
    30   122   123   ar
    31   138   137    2
    32    96    95    1
    33    68    66   ar
    34   124   126   ar
    35    62    61    2
    36   123   125   ar
    37    65    64   ar
    38    61    60    1
    39    98    95    1
    40    98    99    1
    41   111   113   ar
    42   112   113   ar
    43     4     3    2
    44    66    64   ar
    45    95    94    1
    46   100    99   ar
    47   100   102   ar
    48   137   136    1
    49   126   127   ar
    50    64    63    1
    51   135   136    1
    52   125   127   ar
    53    99   101   ar
    54   139   136    1
    55   139   140    1
    56    60    63    1
    57    60    59    1
    58     3     2    1
    59     5     2    1
    60     5     6    1
    61    94    86   am
    62   102   103   ar
    63   142   140    1
    64     1     2    1
    65     8     6   ar
    66     8    10   ar
    67   140   141    1
    68   101   103   ar
    69    25    27   ar
    70    25    24   ar
    71    27    28   ar
    72     6     7   ar
    73    87    86    2
    74    86    85    1
    75    10     9   ar
    76    24    23    1
    77    24    26   ar
    78    28    26   ar
    79    84    85    1
    80    23    20    1
    81     7     9   ar
    82    22    21    2
    83    85    88    1
    84    19    20    1
    85    81    83   ar
    86    81    79   ar
    87    14    13    2
    88    83    82   ar
    89    20    21    1
    90    88    89    1
    91    78    79   ar
    92    78    76   ar
    93    79    77   ar
    94    15    16    1
    95    15    12    1
    96    13    12    1
    97    18    16   ar
    98    89    91   ar
    99    89    90   ar
   100    91    93   ar
   101    82    80   ar
   102    16    17   ar
   103    90    92   ar
   104    12    11    1
   105    93    92   ar
   106    76    75   ar
   107    77    80   ar
   108    77    75   ar
   109    46    44   ar
   110    46    45   ar
   111    44    42   ar
   112    45    43   ar
   113    75    74    1
   114    42    43   ar
   115    42    41    1
   116    41    38    1
   117    35    34    2
   118    70    71    1
   119    58    57    1
   120    74    71    1
   121    36    34   am
   122    34    33    1
   123    71    72    1
   124    38    37    1
   125    38    39    1
   126    57    55   ar
   127    57    56   ar
   128    37    31   am
   129    29    30    1
   130    55    53   ar
   131    56    54   ar
   132    39    40    2
   133    33    30    1
   134    72    73    2
   135    31    30    1
   136    31    32    2
   137    53    52   ar
   138    54    52   ar
   139    52    51    1
   140    51    48    1
   141    48    49    1
   142    48    47    1
   143    49    50    2
