@<TRIPOS>MOLECULE
tmp/5katA00.pdb
 106 102 0 0 0
SMALL
GASTEIGER

@<TRIPOS>ATOM
      1  N         -9.2870  -19.3110   -4.5900 N.3    63  PRO63      -0.2116
      2  CA        -9.6320  -18.7780   -3.2690 C.3    63  PRO63       0.1372
      3  C         -9.1880  -19.7250   -2.1610 C.2    63  PRO63       0.2244
      4  O         -9.3030  -20.9380   -2.3270 O.2    63  PRO63      -0.2868
      5  CB       -11.1610  -18.6600   -3.3260 C.3    63  PRO63       0.0268
      6  CG       -11.5790  -19.7320   -4.2710 C.3    63  PRO63       0.0207
      7  CD       -10.4710  -19.8380   -5.2970 C.3    63  PRO63       0.0892
      8  N        -11.0770   -7.7910  -17.5090 N.3   113  MET113     -0.1245
      9  CA       -11.4130   -8.3210  -16.1870 C.3   113  MET113      0.1570
     10  C        -12.3750   -7.3980  -15.4440 C.2   113  MET113      0.2261
     11  O        -13.3210   -7.8610  -14.8070 O.2   113  MET113     -0.2867
     12  CB       -10.1490   -8.5230  -15.3520 C.3   113  MET113      0.0387
     13  CG        -9.5350   -9.9050  -15.4780 C.3   113  MET113      0.0595
     14  SD       -10.5480  -11.2090  -14.7400 S.3   113  MET113     -0.1393
     15  CE        -9.3770  -12.5630  -14.7160 C.3   113  MET113      0.0692
     16  N        -16.0450   -8.3920  -14.4300 N.3   117  HIS117     -0.1241
     17  CA       -16.3950   -8.2350  -13.0250 C.3   117  HIS117      0.1621
     18  C        -17.7550   -7.5660  -12.8840 C.2   117  HIS117      0.2264
     19  O        -18.6410   -8.0670  -12.1890 O.2   117  HIS117     -0.2867
     20  CB       -15.3160   -7.4180  -12.3100 C.3   117  HIS117      0.0745
     21  CG       -15.5570   -7.2360  -10.8450 C.ar  117  HIS117      0.0817
     22  ND1      -15.2720   -8.2140   -9.9170 N.ar  117  HIS117     -0.2268
     23  CD2      -16.0420   -6.1830  -10.1450 C.ar  117  HIS117      0.1154
     24  CE1      -15.5790   -7.7750   -8.7100 C.ar  117  HIS117      0.1986
     25  NE2      -16.0490   -6.5450   -8.8200 N.ar  117  HIS117     -0.2212
     26  N        -20.7630   -9.9470  -14.4260 N.3   120  ILE120     -0.1231
     27  CA       -21.2330  -11.1320  -13.7090 C.3   120  ILE120      0.1692
     28  C        -21.9070  -10.7910  -12.3790 C.2   120  ILE120      0.2592
     29  O        -22.3920  -11.6810  -11.6810 O.2   120  ILE120     -0.2718
     30  CB       -20.0820  -12.1200  -13.4420 C.3   120  ILE120      0.0266
     31  CG1      -18.9990  -11.4610  -12.5840 C.3   120  ILE120      0.0019
     32  CG2      -19.5290  -12.6380  -14.7620 C.3   120  ILE120      0.0020
     33  CD1      -17.7840  -12.3210  -12.3690 C.3   120  ILE120      0.0001
     34  N        -21.9300   -9.5060  -12.0320 N.am  121  HIS121     -0.1976
     35  CA       -22.6800   -9.0250  -10.8710 C.3   121  HIS121      0.1656
     36  C        -24.1480   -9.4210  -10.9490 C.2   121  HIS121      0.2291
     37  O        -24.8220   -9.5500   -9.9280 O.2   121  HIS121     -0.2864
     38  CB       -22.5980   -7.5000  -10.7620 C.3   121  HIS121      0.0771
     39  CG       -21.6310   -7.0050   -9.7350 C.ar  121  HIS121      0.0820
     40  ND1      -21.9960   -6.7720   -8.4270 N.ar  121  HIS121     -0.2267
     41  CD2      -20.3230   -6.6690   -9.8270 C.ar  121  HIS121      0.1154
     42  CE1      -20.9510   -6.3250   -7.7550 C.ar  121  HIS121      0.1986
     43  NE2      -19.9220   -6.2570   -8.5800 N.ar  121  HIS121     -0.2212
     44  N        -25.4980  -13.5910   -9.7610 N.3   124  GLN124     -0.1245
     45  CA       -25.0710  -13.9730   -8.4150 C.3   124  GLN124      0.1566
     46  C        -25.3080  -15.4530   -8.0970 C.2   124  GLN124      0.2260
     47  O        -24.4770  -16.0950   -7.4570 O.2   124  GLN124     -0.2867
     48  CB       -25.7860  -13.1180   -7.3650 C.3   124  GLN124      0.0367
     49  CG       -25.6460  -11.6160   -7.5690 C.3   124  GLN124      0.0905
     50  CD       -26.8340  -11.0110   -8.2970 C.2   124  GLN124      0.2608
     51  OE1      -27.3670  -11.6000   -9.2390 O.2   124  GLN124     -0.2717
     52  NE2      -27.2560   -9.8290   -7.8590 N.am  124  GLN124     -0.0878
     53  N        -22.6620  -17.7910  -10.6590 N.3   127  THR127     -0.1203
     54  CA       -21.2110  -17.8300  -10.5250 C.3   127  THR127      0.1994
     55  C        -20.8310  -18.7480   -9.3610 C.2   127  THR127      0.2618
     56  O        -21.6740  -19.0740   -8.5260 O.2   127  THR127     -0.2717
     57  CB       -20.6170  -16.4230  -10.3200 C.3   127  THR127      0.1784
     58  OG1      -21.3910  -15.6900   -9.3660 O.3   127  THR127     -0.2211
     59  CG2      -20.6000  -15.6620  -11.6410 C.3   127  THR127      0.0376
     60  N        -19.5770  -19.1910   -9.3350 N.am  128  VAL128     -0.1965
     61  CA       -19.0960  -20.1060   -8.2970 C.3   128  VAL128      0.1727
     62  C        -17.8520  -19.5290   -7.6230 C.2   128  VAL128      0.2616
     63  O        -16.7230  -19.7280   -8.0810 O.2   128  VAL128     -0.2715
     64  CB       -18.7810  -21.4980   -8.8710 C.3   128  VAL128      0.0290
     65  CG1      -18.6010  -22.5040   -7.7420 C.3   128  VAL128      0.0023
     66  CG2      -19.8900  -21.9540   -9.8120 C.3   128  VAL128      0.0023
     67  N        -18.0860  -18.8210   -6.5230 N.am  129  LYS129     -0.1977
     68  CA       -17.0620  -18.0360   -5.8440 C.3   129  LYS129      0.1596
     69  C        -15.9510  -18.8770   -5.2280 C.2   129  LYS129      0.2287
     70  O        -14.8640  -18.3700   -4.9490 O.2   129  LYS129     -0.2864
     71  CB       -17.7110  -17.1930   -4.7470 C.3   129  LYS129      0.0298
     72  CG       -18.4280  -15.9410   -5.2460 C.3   129  LYS129      0.0038
     73  CD       -19.4570  -15.4260   -4.2350 C.3   129  LYS129      0.0206
     74  CE       -18.8990  -15.3420   -2.8140 C.3   129  LYS129      0.1093
     75  NZ       -19.0810  -16.6020   -2.0280 N.3   129  LYS129     -0.1314
     76  N        -14.8100  -21.6930   -6.6750 N.3   131  ALA131     -0.1245
     77  CA       -14.1110  -22.3880   -7.7510 C.3   131  ALA131      0.1562
     78  C        -13.0960  -21.4660   -8.4220 C.2   131  ALA131      0.2260
     79  O        -13.3470  -20.2740   -8.5610 O.2   131  ALA131     -0.2867
     80  CB       -15.1000  -22.9030   -8.7720 C.3   131  ALA131      0.0290
     81  N        -11.1270  -19.3360  -11.1450 N.3   133  PHE133     -0.1241
     82  CA       -11.2780  -18.7820  -12.4870 C.3   133  PHE133      0.1605
     83  C         -9.8760  -18.5390  -13.0150 C.2   133  PHE133      0.2264
     84  O         -8.9320  -18.4290  -12.2270 O.2   133  PHE133     -0.2867
     85  CB       -12.1180  -17.4930  -12.4930 C.3   133  PHE133      0.0534
     86  CG       -11.4990  -16.3330  -11.7470 C.ar  133  PHE133     -0.0203
     87  CD1      -10.5480  -15.5240  -12.3510 C.ar  133  PHE133     -0.0042
     88  CD2      -11.9070  -16.0250  -10.4570 C.ar  133  PHE133     -0.0042
     89  CE1       -9.9920  -14.4530  -11.6710 C.ar  133  PHE133     -0.0003
     90  CE2      -11.3550  -14.9540   -9.7750 C.ar  133  PHE133     -0.0003
     91  CZ       -10.4010  -14.1660  -10.3850 C.ar  133  PHE133     -0.0000
     92  N        -14.6260  -18.0590  -16.4530 N.3   153  MET153     -0.1231
     93  CA       -15.3670  -17.8980  -15.2020 C.3   153  MET153      0.1687
     94  C        -16.3340  -19.0670  -15.0060 C.2   153  MET153      0.2434
     95  O        -17.2220  -19.2760  -15.8290 O.2   153  MET153     -0.2733
     96  CB       -16.1420  -16.5770  -15.2020 C.3   153  MET153      0.0400
     97  CG       -15.2600  -15.3390  -15.2740 C.3   153  MET153      0.0596
     98  SD       -14.3850  -15.0110  -13.7270 S.3   153  MET153     -0.1393
     99  CE       -13.0700  -13.9360  -14.2830 C.3   153  MET153      0.0692
    100  N        -16.1730  -19.8300  -13.9120 N.am  154  PRO154     -0.2729
    101  CA       -17.0360  -21.0030  -13.7270 C.3   154  PRO154      0.1401
    102  C        -18.4720  -20.6390  -13.3600 C.2   154  PRO154      0.2269
    103  O        -18.6960  -19.6510  -12.6620 O.2   154  PRO154     -0.2865
    104  CB       -16.3560  -21.7610  -12.5840 C.3   154  PRO154      0.0296
    105  CG       -15.6290  -20.7240  -11.8180 C.3   154  PRO154      0.0237
    106  CD       -15.1920  -19.6910  -12.8200 C.3   154  PRO154      0.0939
@<TRIPOS>BOND
     1     8     9    1
     2    92    93    1
     3     9    10    1
     4     9    12    1
     5    95    94    2
     6    13    12    1
     7    13    14    1
     8    10    11    2
     9    97    96    1
    10    97    98    1
    11    93    96    1
    12    93    94    1
    13    94   100   am
    14    32    30    1
    15    14    15    1
    16    16    17    1
    17    26    27    1
    18    99    98    1
    19   100   101    1
    20   100   106    1
    21   101   102    1
    22   101   104    1
    23    27    30    1
    24    27    28    1
    25    30    31    1
    26   102   103    2
    27    17    18    1
    28    17    20    1
    29    83    82    1
    30    83    84    2
    31    18    19    2
    32   106   105    1
    33    31    33    1
    34   104   105    1
    35    85    82    1
    36    85    86    1
    37    82    81    1
    38    28    34   am
    39    28    29    2
    40    87    86   ar
    41    87    89   ar
    42    20    21    1
    43    34    35    1
    44    86    88   ar
    45    89    91   ar
    46    59    57    1
    47    36    35    1
    48    36    37    2
    49    35    38    1
    50    21    23   ar
    51    21    22   ar
    52    38    39    1
    53    53    54    1
    54    54    57    1
    55    54    55    1
    56    88    90   ar
    57    91    90   ar
    58    57    58    1
    59    23    25   ar
    60    22    24   ar
    61    41    39   ar
    62    41    43   ar
    63    66    64    1
    64    44    45    1
    65    39    40   ar
    66    55    60   am
    67    55    56    2
    68    60    61    1
    69    51    50    2
    70    64    61    1
    71    64    65    1
    72    25    24   ar
    73    80    77    1
    74    43    42   ar
    75    79    78    2
    76    40    42   ar
    77    78    77    1
    78    45    46    1
    79    45    48    1
    80    61    62    1
    81    50    52   am
    82    50    49    1
    83    46    47    2
    84    63    62    2
    85    77    76    1
    86    62    67   am
    87    49    48    1
    88    67    68    1
    89    68    69    1
    90    68    71    1
    91     7     1    1
    92     7     6    1
    93    72    71    1
    94    72    73    1
    95    69    70    2
    96     1     2    1
    97     6     5    1
    98    73    74    1
    99     5     2    1
   100     2     3    1
   101    74    75    1
   102     4     3    2
