@<TRIPOS>MOLECULE
tmp/5kawA00.pdb
 180 173 0 0 0
SMALL
GASTEIGER

@<TRIPOS>ATOM
      1  N         -2.4070   -7.6190   -7.6810 N.3    27  GLN27      -0.1245
      2  CA        -2.1010   -7.4110   -9.0870 C.3    27  GLN27       0.1566
      3  C         -0.6200   -7.0810   -9.2630 C.2    27  GLN27       0.2260
      4  O          0.0110   -7.5150  -10.2310 O.2    27  GLN27      -0.2867
      5  CB        -2.9760   -6.2940   -9.6640 C.3    27  GLN27       0.0367
      6  CG        -3.1060   -6.3120  -11.1860 C.3    27  GLN27       0.0905
      7  CD        -3.8110   -7.5540  -11.7360 C.2    27  GLN27       0.2608
      8  OE1       -3.5950   -7.9330  -12.8870 O.2    27  GLN27      -0.2717
      9  NE2       -4.6620   -8.1800  -10.9250 N.am   27  GLN27      -0.0878
     10  N          1.1150  -10.3350   -8.5220 N.3    30  ILE30      -0.1231
     11  CA         0.9030  -11.2810   -9.6100 C.3    30  ILE30       0.1692
     12  C          1.8540  -10.9570  -10.7510 C.2    30  ILE30       0.2591
     13  O          2.4460  -11.8610  -11.3400 O.2    30  ILE30      -0.2718
     14  CB        -0.5710  -11.2680  -10.0840 C.3    30  ILE30       0.0266
     15  CG1       -1.4300  -11.9920   -9.0480 C.3    30  ILE30       0.0019
     16  CG2       -0.7260  -11.9360  -11.4460 C.3    30  ILE30       0.0020
     17  CD1       -2.9140  -11.8150   -9.2460 C.3    30  ILE30       0.0001
     18  N          2.0050   -9.6700  -11.0550 N.am   31  ALA31      -0.1980
     19  CA         2.9960   -9.2220  -12.0300 C.3    31  ALA31       0.1597
     20  C          4.3850   -9.7510  -11.6850 C.2    31  ALA31       0.2287
     21  O          5.0930  -10.2830  -12.5410 O.2    31  ALA31      -0.2864
     22  CB         3.0330   -7.6960  -12.1000 C.3    31  ALA31       0.0319
     23  N          4.6180  -13.5800  -12.2410 N.3    34  TRP34      -0.1227
     24  CA         4.8470  -13.8940  -13.6470 C.3    34  TRP34       0.1737
     25  C          6.3010  -13.6250  -14.0170 C.2    34  TRP34       0.2595
     26  O          6.9560  -14.4500  -14.6650 O.2    34  TRP34      -0.2718
     27  CB         3.9290  -13.0740  -14.5640 C.3    34  TRP34       0.0564
     28  CG         2.5670  -13.6680  -14.7750 C.ar   34  TRP34       0.0003
     29  CD1        1.3960  -13.2600  -14.2000 C.ar   34  TRP34       0.0946
     30  CD2        2.2310  -14.7740  -15.6260 C.ar   34  TRP34       0.0152
     31  NE1        0.3520  -14.0430  -14.6410 N.ar   34  TRP34      -0.2442
     32  CE2        0.8400  -14.9840  -15.5110 C.ar   34  TRP34       0.0810
     33  CE3        2.9730  -15.6080  -16.4730 C.ar   34  TRP34       0.0012
     34  CZ2        0.1740  -15.9940  -16.2110 C.ar   34  TRP34       0.0191
     35  CZ3        2.3150  -16.6080  -17.1640 C.ar   34  TRP34       0.0001
     36  CH2        0.9280  -16.7960  -17.0280 C.ar   34  TRP34       0.0015
     37  N          6.8020  -12.4630  -13.6190 N.am   35  GLN35      -0.1979
     38  CA         8.1560  -12.0730  -13.9890 C.3    35  GLN35       0.1601
     39  C          9.1620  -13.0790  -13.4330 C.2    35  GLN35       0.2287
     40  O         10.1040  -13.4710  -14.1200 O.2    35  GLN35      -0.2864
     41  CB         8.4600  -10.6610  -13.4950 C.3    35  GLN35       0.0394
     42  CG         9.7760  -10.0900  -14.0020 C.3    35  GLN35       0.0908
     43  CD        10.9550  -10.4380  -13.1120 C.2    35  GLN35       0.2608
     44  OE1       10.8230  -10.5340  -11.8900 O.2    35  GLN35      -0.2717
     45  NE2       12.1200  -10.6200  -13.7220 N.am   35  GLN35      -0.0878
     46  N          9.0430  -16.4200  -15.3470 N.3    38  TYR38      -0.1241
     47  CA         9.7320  -16.3050  -16.6200 C.3    38  TYR38       0.1605
     48  C         11.2240  -16.2930  -16.3690 C.2    38  TYR38       0.2264
     49  O         11.9690  -17.0570  -16.9850 O.2    38  TYR38      -0.2867
     50  CB         9.3040  -15.0520  -17.3770 C.3    38  TYR38       0.0534
     51  CG         8.1380  -15.2910  -18.3130 C.ar   38  TYR38      -0.0201
     52  CD1        8.2990  -16.0410  -19.4690 C.ar   38  TYR38      -0.0009
     53  CD2        6.8870  -14.7670  -18.0460 C.ar   38  TYR38      -0.0009
     54  CE1        7.2400  -16.2680  -20.3370 C.ar   38  TYR38       0.0417
     55  CE2        5.8160  -14.9870  -18.9110 C.ar   38  TYR38       0.0417
     56  CZ         6.0040  -15.7360  -20.0530 C.ar   38  TYR38       0.1957
     57  OH         4.9510  -15.9610  -20.9130 O.3    38  TYR38      -0.2866
     58  N          5.9610  -25.3060  -20.0270 N.3    47  GLN47      -0.1245
     59  CA         5.5410  -25.4180  -21.4220 C.3    47  GLN47       0.1566
     60  C          5.8380  -26.8240  -21.9510 C.2    47  GLN47       0.2260
     61  O          5.0250  -27.4000  -22.6750 O.2    47  GLN47      -0.2867
     62  CB         6.2220  -24.3500  -22.2980 C.3    47  GLN47       0.0367
     63  CG         5.5800  -22.9500  -22.2070 C.3    47  GLN47       0.0905
     64  CD         6.3780  -21.8450  -22.9270 C.2    47  GLN47       0.2608
     65  OE1        7.6140  -21.8140  -22.8920 O.2    47  GLN47      -0.2717
     66  NE2        5.6610  -20.9300  -23.5780 N.am   47  GLN47      -0.0878
     67  N         -1.1180  -21.3850  -21.3770 N.3    57  ILE57      -0.1245
     68  CA        -0.7440  -21.3050  -19.9680 C.3    57  ILE57       0.1561
     69  C         -1.8870  -20.6940  -19.1640 C.2    57  ILE57       0.2260
     70  O         -2.5200  -19.7300  -19.6110 O.2    57  ILE57      -0.2867
     71  CB         0.5300  -20.4680  -19.7700 C.3    57  ILE57       0.0252
     72  CG1        1.6550  -21.0250  -20.6350 C.3    57  ILE57       0.0019
     73  CG2        0.9430  -20.4810  -18.3010 C.3    57  ILE57       0.0019
     74  CD1        2.8990  -20.1820  -20.6210 C.3    57  ILE57       0.0001
     75  N         -2.8260  -17.4080   -6.4710 N.3    71  TYR71      -0.1241
     76  CA        -2.7120  -17.3510   -7.9100 C.3    71  TYR71       0.1605
     77  C         -1.7800  -18.4660   -8.3120 C.2    71  TYR71       0.2264
     78  O         -0.7050  -18.6260   -7.7220 O.2    71  TYR71      -0.2867
     79  CB        -2.1940  -15.9970   -8.3600 C.3    71  TYR71       0.0534
     80  CG        -2.2710  -15.7250   -9.8520 C.ar   71  TYR71      -0.0201
     81  CD1       -3.4000  -15.1410  -10.4130 C.ar   71  TYR71      -0.0009
     82  CD2       -1.1960  -15.9990  -10.6890 C.ar   71  TYR71      -0.0009
     83  CE1       -3.4670  -14.8620  -11.7720 C.ar   71  TYR71       0.0417
     84  CE2       -1.2570  -15.7230  -12.0530 C.ar   71  TYR71       0.0417
     85  CZ        -2.3990  -15.1520  -12.5840 C.ar   71  TYR71       0.1957
     86  OH        -2.4590  -14.8610  -13.9330 O.3    71  TYR71      -0.2866
     87  N         -1.3060   -7.6440  -23.3140 N.3   105  VAL105     -0.1231
     88  CA        -1.3360   -8.0820  -21.9280 C.3   105  VAL105      0.1678
     89  C         -0.4240   -7.1430  -21.1400 C.2   105  VAL105      0.2434
     90  O          0.5740   -6.6740  -21.6830 O.2   105  VAL105     -0.2733
     91  CB        -0.8660   -9.5510  -21.8250 C.3   105  VAL105      0.0265
     92  CG1       -0.8540  -10.0490  -20.3980 C.3   105  VAL105      0.0020
     93  CG2       -1.7420  -10.4490  -22.7040 C.3   105  VAL105      0.0020
     94  N         -0.7600   -6.8440  -19.8730 N.am  106  PRO106     -0.2729
     95  CA        -1.9150   -7.2730  -19.0810 C.3   106  PRO106      0.1401
     96  C         -3.1040   -6.3160  -19.1520 C.2   106  PRO106      0.2269
     97  O         -4.1730   -6.6690  -18.6710 O.2   106  PRO106     -0.2865
     98  CB        -1.3470   -7.3060  -17.6620 C.3   106  PRO106      0.0296
     99  CG        -0.3950   -6.1730  -17.6500 C.3   106  PRO106      0.0237
    100  CD         0.1630   -6.0410  -19.0510 C.3   106  PRO106      0.0939
    101  N         -6.4640   -7.4990  -20.4380 N.3   109  VAL109     -0.1231
    102  CA        -6.9980   -8.5220  -19.5400 C.3   109  VAL109      0.1692
    103  C         -7.6170   -7.8840  -18.2970 C.2   109  VAL109      0.2591
    104  O         -8.7190   -8.2410  -17.8770 O.2   109  VAL109     -0.2718
    105  CB        -5.8990   -9.5190  -19.1130 C.3   109  VAL109      0.0266
    106  CG1       -6.4810  -10.6380  -18.2580 C.3   109  VAL109      0.0020
    107  CG2       -5.2240  -10.1030  -20.3310 C.3   109  VAL109      0.0020
    108  N         -6.8970   -6.9410  -17.7060 N.am  110  GLN110     -0.1979
    109  CA        -7.3950   -6.2120  -16.5450 C.3   110  GLN110      0.1601
    110  C         -8.6940   -5.4720  -16.8620 C.2   110  GLN110      0.2287
    111  O         -9.6550   -5.5420  -16.1000 O.2   110  GLN110     -0.2864
    112  CB        -6.3340   -5.2310  -16.0460 C.3   110  GLN110      0.0394
    113  CG        -5.1620   -5.9130  -15.3270 C.3   110  GLN110      0.0908
    114  CD        -3.8880   -5.0730  -15.3080 C.2   110  GLN110      0.2608
    115  OE1       -3.8160   -4.0120  -15.9280 O.2   110  GLN110     -0.2717
    116  NE2       -2.8710   -5.5590  -14.6020 N.am  110  GLN110     -0.0878
    117  N        -11.4350   -7.9650  -17.2900 N.3   113  MET113     -0.1245
    118  CA       -11.7790   -8.5310  -15.9760 C.3   113  MET113      0.1570
    119  C        -12.7400   -7.6150  -15.2240 C.2   113  MET113      0.2261
    120  O        -13.6670   -8.0790  -14.5590 O.2   113  MET113     -0.2867
    121  CB       -10.5300   -8.7570  -15.1290 C.3   113  MET113      0.0387
    122  CG        -9.9030  -10.1280  -15.2830 C.3   113  MET113      0.0595
    123  SD       -10.8670  -11.4550  -14.5210 S.3   113  MET113     -0.1393
    124  CE        -9.7130  -12.8100  -14.7110 C.3   113  MET113      0.0692
    125  N         -7.3590  -17.0970  -16.2520 N.3   135  GLU135     -0.1245
    126  CA        -6.9080  -16.5510  -17.5210 C.3   135  GLU135      0.1567
    127  C         -6.2510  -17.6730  -18.3020 C.2   135  GLU135      0.2260
    128  O         -5.5230  -18.4920  -17.7330 O.2   135  GLU135     -0.2867
    129  CB        -5.9180  -15.3930  -17.2990 C.3   135  GLU135      0.0388
    130  CG        -6.4320  -14.2800  -16.3910 C.3   135  GLU135      0.1160
    131  CD        -5.3780  -13.7970  -15.3930 C.2   135  GLU135      0.3649
    132  OE1       -4.2020  -13.6610  -15.7780 O.co2 135  GLU135     -0.2457
    133  OE2       -5.7300  -13.5450  -14.2260 O.co2 135  GLU135     -0.2457
    134  N         -3.7790  -18.1330  -21.5960 N.3   137  TYR137     -0.1227
    135  CA        -2.8770  -17.4850  -22.5510 C.3   137  TYR137      0.1736
    136  C         -2.3720  -18.4940  -23.5730 C.2   137  TYR137      0.2595
    137  O         -1.4430  -19.2600  -23.2980 O.2   137  TYR137     -0.2718
    138  CB        -1.6830  -16.8430  -21.8240 C.3   137  TYR137      0.0548
    139  CG        -2.0900  -15.7860  -20.8190 C.ar  137  TYR137     -0.0200
    140  CD1       -2.2760  -14.4710  -21.2130 C.ar  137  TYR137     -0.0009
    141  CD2       -2.3000  -16.1090  -19.4830 C.ar  137  TYR137     -0.0009
    142  CE1       -2.6570  -13.5050  -20.3160 C.ar  137  TYR137      0.0417
    143  CE2       -2.6800  -15.1430  -18.5670 C.ar  137  TYR137      0.0417
    144  CZ        -2.8640  -13.8390  -18.9940 C.ar  137  TYR137      0.1957
    145  OH        -3.2470  -12.8490  -18.1130 O.3   137  TYR137     -0.2866
    146  N         -2.9890  -18.5010  -24.7490 N.am  138  GLN138     -0.1979
    147  CA        -2.6000  -19.4310  -25.8010 C.3   138  GLN138      0.1601
    148  C         -1.4020  -18.8490  -26.5620 C.2   138  GLN138      0.2287
    149  O         -0.9350  -17.7540  -26.2500 O.2   138  GLN138     -0.2864
    150  CB        -3.7950  -19.7180  -26.7240 C.3   138  GLN138      0.0394
    151  CG        -5.0740  -20.1130  -25.9420 C.3   138  GLN138      0.0908
    152  CD        -6.3050  -20.3110  -26.8150 C.2   138  GLN138      0.2608
    153  OE1       -7.1980  -19.4620  -26.8500 O.2   138  GLN138     -0.2717
    154  NE2       -6.3700  -21.4450  -27.5010 N.am  138  GLN138     -0.0878
    155  N          1.8380  -11.6260  -27.0680 N.3   142  THR142     -0.1203
    156  CA         1.0140  -10.9900  -26.0410 C.3   142  THR142      0.1994
    157  C          1.1270   -9.4610  -26.0230 C.2   142  THR142      0.2618
    158  O          0.4390   -8.8030  -25.2420 O.2   142  THR142     -0.2717
    159  CB         1.3770  -11.5150  -24.6390 C.3   142  THR142      0.1784
    160  OG1        2.7730  -11.3150  -24.4060 O.3   142  THR142     -0.2211
    161  CG2        1.0460  -12.9940  -24.5120 C.3   142  THR142      0.0376
    162  N          1.9900   -8.8970  -26.8710 N.am  143  THR143     -0.1952
    163  CA         2.1020   -7.4410  -26.9880 C.3   143  THR143      0.1897
    164  C          1.3050   -6.9360  -28.1850 C.2   143  THR143      0.2313
    165  O          1.1740   -5.7290  -28.3910 O.2   143  THR143     -0.2863
    166  CB         3.5680   -6.9650  -27.1450 C.3   143  THR143      0.1794
    167  OG1        4.0620   -7.3240  -28.4430 O.3   143  THR143     -0.2208
    168  CG2        4.4630   -7.5650  -26.0750 C.3   143  THR143      0.0378
    169  N         -3.9090   -9.7660  -29.8490 N.3   147  TYR147     -0.1241
    170  CA        -3.8060  -10.9370  -28.9820 C.3   147  TYR147      0.1605
    171  C         -5.0570  -11.1410  -28.1370 C.2   147  TYR147      0.2264
    172  O         -5.6180  -10.1840  -27.6060 O.2   147  TYR147     -0.2867
    173  CB        -2.5980  -10.8340  -28.0600 C.3   147  TYR147      0.0534
    174  CG        -2.4180  -12.0800  -27.2270 C.ar  147  TYR147     -0.0201
    175  CD1       -1.7970  -13.2070  -27.7540 C.ar  147  TYR147     -0.0009
    176  CD2       -2.8870  -12.1390  -25.9250 C.ar  147  TYR147     -0.0009
    177  CE1       -1.6370  -14.3560  -27.0000 C.ar  147  TYR147      0.0417
    178  CE2       -2.7330  -13.2830  -25.1590 C.ar  147  TYR147      0.0417
    179  CZ        -2.1070  -14.3910  -25.7030 C.ar  147  TYR147      0.1957
    180  OH        -1.9540  -15.5370  -24.9490 O.3   147  TYR147     -0.2866
@<TRIPOS>BOND
     1   169   170    1
     2   170   171    1
     3   170   173    1
     4   167   166    1
     5   165   164    2
     6   164   163    1
     7   171   172    2
     8   173   174    1
     9   175   174   ar
    10   175   177   ar
    11   154   152   am
    12   174   176   ar
    13   166   163    1
    14   166   168    1
    15   155   156    1
    16   177   179   ar
    17   163   162    1
    18   162   157   am
    19   153   152    2
    20   152   151    1
    21   150   151    1
    22   150   147    1
    23   148   149    2
    24   148   147    1
    25   156   157    1
    26   156   159    1
    27   157   158    2
    28   176   178   ar
    29   147   146    1
    30   179   178   ar
    31   179   180    1
    32   146   136   am
    33   159   161    1
    34   159   160    1
    35    66    64   am
    36   136   137    2
    37   136   135    1
    38    87    88    1
    39    64    65    2
    40    64    63    1
    41    93    91    1
    42    61    60    2
    43   135   138    1
    44   135   134    1
    45    62    63    1
    46    62    59    1
    47    60    59    1
    48    88    91    1
    49    88    89    1
    50    91    92    1
    51   138   139    1
    52    90    89    2
    53    59    58    1
    54    67    68    1
    55   140   139   ar
    56   140   142   ar
    57    89    94   am
    58    57    56    1
    59   139   141   ar
    60    72    74    1
    61    72    71    1
    62   101   102    1
    63    54    56   ar
    64    54    52   ar
    65   107   105    1
    66   142   144   ar
    67    56    55   ar
    68    68    71    1
    69    68    69    1
    70    94    95    1
    71    94   100    1
    72    71    73    1
    73    70    69    2
    74   102   105    1
    75   102   103    1
    76   141   143   ar
    77    52    51   ar
    78    96    95    1
    79    96    97    2
    80   105   106    1
    81    95    98    1
    82   100    99    1
    83   144   143   ar
    84   144   145    1
    85    55    53   ar
    86    51    53   ar
    87    51    50    1
    88   127   128    2
    89   127   126    1
    90   103   104    2
    91   103   108   am
    92   108   109    1
    93    98    99    1
    94   126   129    1
    95   126   125    1
    96    50    47    1
    97   129   130    1
    98   117   118    1
    99    35    36   ar
   100    35    33   ar
   101    36    34   ar
   102    49    48    2
   103   110   109    1
   104   110   111    2
   105    47    48    1
   106    47    46    1
   107   109   112    1
   108    33    30   ar
   109   130   131    1
   110    34    32   ar
   111   112   113    1
   112   118   119    1
   113   118   121    1
   114   115   114    2
   115   132   131   ar
   116    30    32   ar
   117    30    28   ar
   118    32    31   ar
   119   131   133   ar
   120   113   114    1
   121   114   116   am
   122   122   121    1
   123   122   123    1
   124   119   120    2
   125    28    27    1
   126    28    29   ar
   127   124   123    1
   128    26    25    2
   129    31    29   ar
   130    27    24    1
   131    40    39    2
   132    25    24    1
   133    25    37   am
   134    42    41    1
   135    42    43    1
   136    38    37    1
   137    38    41    1
   138    38    39    1
   139    86    85    1
   140    45    43   am
   141    24    23    1
   142    43    44    2
   143     8     7    2
   144    85    84   ar
   145    85    83   ar
   146    21    20    2
   147    22    19    1
   148    84    82   ar
   149    19    20    1
   150    19    18    1
   151    83    81   ar
   152     7     6    1
   153     7     9   am
   154    16    14    1
   155    13    12    2
   156     6     5    1
   157    18    12   am
   158    12    11    1
   159    82    80   ar
   160    81    80   ar
   161     4     3    2
   162    14    11    1
   163    14    15    1
   164    80    79    1
   165     5     2    1
   166    11    10    1
   167     3     2    1
   168    17    15    1
   169     2     1    1
   170    79    76    1
   171    77    76    1
   172    77    78    2
   173    76    75    1
