@<TRIPOS>MOLECULE
tmp/5kaxA00.pdb
 168 168 0 0 0
SMALL
GASTEIGER

@<TRIPOS>ATOM
      1  N         -2.4100   36.1550  -11.9120 N.3    31  LEU31      -0.1231
      2  CA        -3.2080   35.0240  -11.4020 C.3    31  LEU31       0.1693
      3  C         -2.5020   33.6780  -11.5040 C.2    31  LEU31       0.2592
      4  O         -2.5490   32.8800  -10.5710 O.2    31  LEU31      -0.2718
      5  CB        -4.5530   34.9260  -12.1350 C.3    31  LEU31       0.0284
      6  CG        -5.5140   33.7930  -11.7350 C.3    31  LEU31       0.0019
      7  CD1       -6.1460   34.0650  -10.4340 C.3    31  LEU31       0.0001
      8  CD2       -6.6130   33.6100  -12.7630 C.3    31  LEU31       0.0001
      9  N         -1.8750   33.4220  -12.6450 N.am   32  GLY32      -0.1957
     10  CA        -1.0690   32.2300  -12.8240 C.3    32  GLY32       0.1869
     11  C          0.1080   32.1410  -11.8740 C.2    32  GLY32       0.2309
     12  O          0.3760   31.0990  -11.3060 O.2    32  GLY32      -0.2863
     13  N         -1.2890   31.4130   -8.3610 N.3    35  PHE35      -0.1227
     14  CA        -1.7400   30.0370   -8.1920 C.3    35  PHE35       0.1736
     15  C         -0.5950   29.0730   -8.0580 C.2    35  PHE35       0.2595
     16  O         -0.5930   28.2600   -7.1460 O.2    35  PHE35      -0.2718
     17  CB        -2.6250   29.6060   -9.3580 C.3    35  PHE35       0.0547
     18  CG        -4.0460   30.0740   -9.2490 C.ar   35  PHE35      -0.0202
     19  CD1       -4.4300   30.9750   -8.2780 C.ar   35  PHE35      -0.0042
     20  CD2       -4.9960   29.6080  -10.1100 C.ar   35  PHE35      -0.0042
     21  CE1       -5.7310   31.3990   -8.1850 C.ar   35  PHE35      -0.0003
     22  CE2       -6.3010   30.0350  -10.0160 C.ar   35  PHE35      -0.0003
     23  CZ        -6.6620   30.9230   -9.0560 C.ar   35  PHE35      -0.0000
     24  N          0.3650   29.1560   -8.9700 N.am   36  GLU36      -0.1979
     25  CA         1.5450   28.3030   -8.9220 C.3    36  GLU36       0.1602
     26  C          2.2920   28.4280   -7.5930 C.2    36  GLU36       0.2287
     27  O          2.7100   27.4330   -6.9980 O.2    36  GLU36      -0.2864
     28  CB         2.4900   28.6400  -10.0550 C.3    36  GLU36       0.0415
     29  CG         1.9930   28.3000  -11.4360 C.3    36  GLU36       0.1163
     30  CD         3.0120   28.6520  -12.5220 C.2    36  GLU36       0.3649
     31  OE1        2.5960   29.1400  -13.6020 O.co2  36  GLU36      -0.2457
     32  OE2        4.2300   28.4460  -12.2940 O.co2  36  GLU36      -0.2457
     33  N         -0.5170   27.3450   -4.5410 N.3    39  TYR39      -0.1227
     34  CA        -0.8570   25.9390   -4.5740 C.3    39  TYR39       0.1736
     35  C          0.3530   25.1160   -4.1180 C.2    39  TYR39       0.2595
     36  O          0.2340   24.1420   -3.3870 O.2    39  TYR39      -0.2718
     37  CB        -1.3290   25.5270   -5.9770 C.3    39  TYR39       0.0548
     38  CG        -2.7890   25.8320   -6.3250 C.ar   39  TYR39      -0.0200
     39  CD1       -3.8160   25.6650   -5.3990 C.ar   39  TYR39      -0.0009
     40  CD2       -3.1370   26.2590   -7.5950 C.ar   39  TYR39      -0.0009
     41  CE1       -5.1250   25.9200   -5.7280 C.ar   39  TYR39       0.0417
     42  CE2       -4.4540   26.5210   -7.9340 C.ar   39  TYR39       0.0417
     43  CZ        -5.4400   26.3510   -7.0020 C.ar   39  TYR39       0.1957
     44  OH        -6.7390   26.6100   -7.3780 O.3    39  TYR39      -0.2866
     45  N          1.5350   25.5310   -4.5250 N.am   40  HIS40      -0.1975
     46  CA         2.7370   24.8680   -4.0890 C.3    40  HIS40       0.1656
     47  C          3.0010   25.0260   -2.5890 C.2    40  HIS40       0.2291
     48  O          3.3570   24.0800   -1.9270 O.2    40  HIS40      -0.2864
     49  CB         3.9020   25.3990   -4.8840 C.3    40  HIS40       0.0771
     50  CG         5.2240   24.8620   -4.4380 C.ar   40  HIS40       0.0820
     51  ND1        5.8230   23.7720   -5.0300 N.ar   40  HIS40      -0.2267
     52  CD2        6.0620   25.2670   -3.4500 C.ar   40  HIS40       0.1154
     53  CE1        6.9790   23.5350   -4.4340 C.ar   40  HIS40       0.1986
     54  NE2        7.1480   24.4280   -3.4740 N.ar   40  HIS40      -0.2212
     55  N          0.4970   22.6530   -0.6360 N.3    43  LEU43      -0.1245
     56  CA         1.0290   21.3130   -0.7290 C.3    43  LEU43       0.1561
     57  C          2.2090   21.1270    0.2020 C.2    43  LEU43       0.2260
     58  O          2.2780   20.1530    0.9220 O.2    43  LEU43      -0.2867
     59  CB         1.4450   21.0250   -2.1590 C.3    43  LEU43       0.0270
     60  CG         0.3350   20.8670   -3.1900 C.3    43  LEU43       0.0019
     61  CD1        0.9210   20.7330   -4.5820 C.3    43  LEU43       0.0001
     62  CD2       -0.5240   19.6670   -2.8580 C.3    43  LEU43       0.0001
     63  N         -8.7930   17.5410   -5.9920 N.3    56  PRO56      -0.2103
     64  CA        -8.0920   18.4980   -6.8310 C.3    56  PRO56       0.1489
     65  C         -8.2890   19.9160   -6.3420 C.2    56  PRO56       0.2417
     66  O         -9.1780   20.2000   -5.5400 O.2    56  PRO56      -0.2734
     67  CB        -8.7160   18.2790   -8.2030 C.3    56  PRO56       0.0282
     68  CG       -10.0000   17.7500   -7.9460 C.3    56  PRO56       0.0208
     69  CD        -9.9020   16.9140   -6.7220 C.3    56  PRO56       0.0893
     70  N         -7.4370   20.8170   -6.8100 N.am   57  PRO57      -0.2729
     71  CA        -7.4920   22.1950   -6.3670 C.3    57  PRO57       0.1401
     72  C         -8.6710   22.9520   -6.9500 C.2    57  PRO57       0.2269
     73  O         -9.2160   22.5670   -7.9750 O.2    57  PRO57      -0.2865
     74  CB        -6.1710   22.7610   -6.8750 C.3    57  PRO57       0.0296
     75  CG        -5.8210   21.9480   -8.0040 C.3    57  PRO57       0.0237
     76  CD        -6.3220   20.5870   -7.7340 C.3    57  PRO57       0.0939
     77  N        -14.1900   32.9850   -7.1790 N.3    61  TYR61      -0.1241
     78  CA       -14.0820   34.3110   -7.7400 C.3    61  TYR61       0.1605
     79  C        -15.3520   35.0960   -7.5030 C.2    61  TYR61       0.2264
     80  O        -16.4030   34.5360   -7.2650 O.2    61  TYR61      -0.2867
     81  CB       -13.8350   34.2670   -9.2340 C.3    61  TYR61       0.0534
     82  CG       -12.6970   33.4200   -9.6600 C.ar   61  TYR61      -0.0201
     83  CD1      -11.4070   33.8500   -9.4850 C.ar   61  TYR61      -0.0009
     84  CD2      -12.9050   32.2090  -10.2910 C.ar   61  TYR61      -0.0009
     85  CE1      -10.3480   33.0930   -9.8940 C.ar   61  TYR61       0.0417
     86  CE2      -11.8440   31.4400  -10.7010 C.ar   61  TYR61       0.0417
     87  CZ       -10.5640   31.8960  -10.4970 C.ar   61  TYR61       0.1957
     88  OH        -9.4810   31.1700  -10.8950 O.3    61  TYR61      -0.2866
     89  N         -7.1180   23.5700   -1.7460 N.3    75  PHE75      -0.1241
     90  CA        -7.3420   22.1510   -1.8760 C.3    75  PHE75       0.1605
     91  C         -8.2550   21.7280   -0.7640 C.2    75  PHE75       0.2264
     92  O         -8.1270   22.2370    0.3490 O.2    75  PHE75      -0.2867
     93  CB        -6.0560   21.3300   -1.7410 C.3    75  PHE75       0.0534
     94  CG        -5.0750   21.4810   -2.8590 C.ar   75  PHE75      -0.0203
     95  CD1       -5.1480   20.6710   -3.9560 C.ar   75  PHE75      -0.0042
     96  CD2       -4.0300   22.3790   -2.7750 C.ar   75  PHE75      -0.0042
     97  CE1       -4.2320   20.7880   -4.9650 C.ar   75  PHE75      -0.0003
     98  CE2       -3.1250   22.4900   -3.7860 C.ar   75  PHE75      -0.0003
     99  CZ        -3.2300   21.6910   -4.8730 C.ar   75  PHE75      -0.0000
    100  N         -8.0440   27.0890  -20.7330 N.3   106  TYR106     -0.1241
    101  CA        -8.6900   28.0670  -19.8510 C.3   106  TYR106      0.1605
    102  C         -9.0690   29.3380  -20.6040 C.2   106  TYR106      0.2264
    103  O         -9.9420   30.0800  -20.1700 O.2   106  TYR106     -0.2867
    104  CB        -7.7800   28.4600  -18.6720 C.3   106  TYR106      0.0534
    105  CG        -7.4010   27.3450  -17.7340 C.ar  106  TYR106     -0.0201
    106  CD1       -8.3190   26.3940  -17.3480 C.ar  106  TYR106     -0.0009
    107  CD2       -6.1170   27.2500  -17.2300 C.ar  106  TYR106     -0.0009
    108  CE1       -7.9680   25.3830  -16.4980 C.ar  106  TYR106      0.0417
    109  CE2       -5.7660   26.2390  -16.3810 C.ar  106  TYR106      0.0417
    110  CZ        -6.7020   25.3150  -16.0220 C.ar  106  TYR106      0.1957
    111  OH        -6.3870   24.2980  -15.1840 O.3   106  TYR106     -0.2866
    112  N        -14.4030   27.2720   -9.6180 N.3   133  GLU133     -0.1245
    113  CA       -13.7080   26.4230  -10.5830 C.3   133  GLU133      0.1567
    114  C        -12.8580   25.3490   -9.9120 C.2   133  GLU133      0.2260
    115  O        -12.1320   25.6060   -8.9730 O.2   133  GLU133     -0.2867
    116  CB       -12.8210   27.2580  -11.4950 C.3   133  GLU133      0.0388
    117  CG       -13.4860   28.4530  -12.1280 C.3   133  GLU133      0.1160
    118  CD       -12.5900   29.1560  -13.1040 C.2   133  GLU133      0.3649
    119  OE1      -11.3640   28.9500  -13.0580 O.co2 133  GLU133     -0.2457
    120  OE2      -13.1090   29.9240  -13.9240 O.co2 133  GLU133     -0.2457
    121  N         -9.9520   22.5850  -10.7620 N.3   135  TYR135     -0.1227
    122  CA        -8.9060   22.2950  -11.7190 C.3   135  TYR135      0.1736
    123  C         -8.5230   20.8310  -11.5590 C.2   135  TYR135      0.2595
    124  O         -7.7590   20.4550  -10.6900 O.2   135  TYR135     -0.2718
    125  CB        -7.7500   23.2630  -11.5040 C.3   135  TYR135      0.0548
    126  CG        -8.2460   24.6820  -11.5400 C.ar  135  TYR135     -0.0200
    127  CD1       -8.8710   25.1800  -12.6680 C.ar  135  TYR135     -0.0009
    128  CD2       -8.1350   25.5050  -10.4370 C.ar  135  TYR135     -0.0009
    129  CE1       -9.3480   26.4620  -12.7080 C.ar  135  TYR135      0.0417
    130  CE2       -8.6130   26.7870  -10.4630 C.ar  135  TYR135      0.0417
    131  CZ        -9.2170   27.2620  -11.6000 C.ar  135  TYR135      0.1957
    132  OH        -9.6890   28.5430  -11.6270 O.3   135  TYR135     -0.2866
    133  N         -9.1380   20.0050  -12.3890 N.am  136  LEU136     -0.1966
    134  CA        -9.0870   18.5610  -12.2440 C.3   136  LEU136      0.1728
    135  C         -7.7620   18.0340  -12.7210 C.2   136  LEU136      0.2616
    136  O         -7.2620   17.0030  -12.2670 O.2   136  LEU136     -0.2715
    137  CB       -10.2200   17.9050  -13.0340 C.3   136  LEU136      0.0311
    138  CG       -11.6590   18.1880  -12.5890 C.3   136  LEU136      0.0022
    139  CD1      -12.6180   17.4460  -13.4630 C.3   136  LEU136      0.0001
    140  CD2      -11.8970   17.8110  -11.1640 C.3   136  LEU136      0.0001
    141  N         -7.2020   18.7870  -13.6490 N.am  137  ASP137     -0.1957
    142  CA        -5.9160   18.4840  -14.2310 C.3   137  ASP137      0.1840
    143  C         -4.9760   19.6440  -13.9900 C.2   137  ASP137      0.2622
    144  O         -5.3860   20.8090  -13.9490 O.2   137  ASP137     -0.2715
    145  CB        -6.0320   18.2260  -15.7410 C.3   137  ASP137      0.1450
    146  CG        -6.8260   16.9770  -16.0900 C.2   137  ASP137      0.3671
    147  OD1       -6.5750   15.8870  -15.5390 O.co2 137  ASP137     -0.2456
    148  OD2       -7.6890   17.0970  -16.9640 O.co2 137  ASP137     -0.2456
    149  N         -3.7130   19.2870  -13.8320 N.am  138  ASN138     -0.1959
    150  CA        -2.6080   20.2260  -13.7570 C.3   138  ASN138      0.1804
    151  C         -2.3120   20.6570  -15.1760 C.2   138  ASN138      0.2463
    152  O         -1.9850   19.8110  -15.9960 O.2   138  ASN138     -0.2730
    153  CB        -1.4000   19.5490  -13.0940 C.3   138  ASN138      0.1195
    154  CG        -0.1840   20.4410  -12.9980 C.2   138  ASN138      0.2630
    155  OD1       -0.0570   21.4290  -13.6940 O.2   138  ASN138     -0.2716
    156  ND2        0.7320   20.0700  -12.1300 N.am  138  ASN138     -0.0877
    157  N         -2.4680   21.9540  -15.4870 N.am  139  PRO139     -0.2716
    158  CA        -2.3440   22.3880  -16.8820 C.3   139  PRO139      0.1536
    159  C         -0.9310   22.2290  -17.4570 C.2   139  PRO139      0.2598
    160  O         -0.7550   22.0040  -18.6510 O.2   139  PRO139     -0.2715
    161  CB        -2.7550   23.8630  -16.8210 C.3   139  PRO139      0.0310
    162  CG        -2.5290   24.2640  -15.4470 C.3   139  PRO139      0.0237
    163  CD        -2.8360   23.0750  -14.6120 C.3   139  PRO139      0.0939
    164  N          0.0650   22.3310  -16.5940 N.am  140  ALA140     -0.1978
    165  CA         1.4430   22.1410  -16.9840 C.3   140  ALA140      0.1597
    166  C          1.6790   20.7760  -17.6240 C.2   140  ALA140      0.2287
    167  O          2.4690   20.6460  -18.5660 O.2   140  ALA140     -0.2864
    168  CB         2.3460   22.3130  -15.7680 C.3   140  ALA140      0.0319
@<TRIPOS>BOND
     1   100   101    1
     2   102   103    2
     3   102   101    1
     4   101   104    1
     5   104   105    1
     6   160   159    2
     7   167   166    2
     8   105   106   ar
     9   105   107   ar
    10   166   165    1
    11   159   158    1
    12   159   164   am
    13   106   108   ar
    14   107   109   ar
    15   165   164    1
    16   165   168    1
    17   148   146   ar
    18   158   161    1
    19   158   157    1
    20   161   162    1
    21   108   110   ar
    22   109   110   ar
    23   146   145    1
    24   146   147   ar
    25   110   111    1
    26   152   151    2
    27   145   142    1
    28   157   151   am
    29   157   163    1
    30   162   163    1
    31   151   150    1
    32   142   143    1
    33   142   141    1
    34   143   144    2
    35   143   149   am
    36   120   118   ar
    37   149   150    1
    38   150   153    1
    39   155   154    2
    40   141   135   am
    41    31    30   ar
    42   139   138    1
    43   118   119   ar
    44   118   117    1
    45   153   154    1
    46   137   138    1
    47   137   134    1
    48   154   156   am
    49    10     9    1
    50    10    11    1
    51     8     6    1
    52   135   136    2
    53   135   134    1
    54   129   127   ar
    55   129   131   ar
    56   127   126   ar
    57     9     3   am
    58   138   140    1
    59    30    32   ar
    60    30    29    1
    61   133   134    1
    62   133   123   am
    63     5     6    1
    64     5     2    1
    65   117   116    1
    66     1     2    1
    67    11    12    2
    68     6     7    1
    69   122   123    1
    70   122   125    1
    71   122   121    1
    72   132   131    1
    73   131   130   ar
    74   123   124    2
    75   126   125    1
    76   126   128   ar
    77     3     2    1
    78     3     4    2
    79   116   113    1
    80    29    28    1
    81    88    87    1
    82    86    87   ar
    83    86    84   ar
    84   113   114    1
    85   113   112    1
    86    87    85   ar
    87   130   128   ar
    88    84    82   ar
    89    20    22   ar
    90    20    18   ar
    91    28    25    1
    92    22    23   ar
    93   114   115    2
    94    85    83   ar
    95    82    83   ar
    96    82    81    1
    97    17    18    1
    98    17    14    1
    99    18    19   ar
   100    81    78    1
   101    23    21   ar
   102    24    25    1
   103    24    15   am
   104    25    26    1
   105    13    14    1
   106    19    21   ar
   107    67    68    1
   108    67    64    1
   109    14    15    1
   110    15    16    2
   111    75    76    1
   112    75    74    1
   113    73    72    2
   114    68    69    1
   115    42    40   ar
   116    42    43   ar
   117    78    79    1
   118    78    77    1
   119    76    70    1
   120    40    38   ar
   121    26    27    2
   122    79    80    2
   123    44    43    1
   124    43    41   ar
   125    72    71    1
   126    74    71    1
   127    64    65    1
   128    64    63    1
   129    70    71    1
   130    70    65   am
   131    69    63    1
   132    65    66    2
   133    38    37    1
   134    38    39   ar
   135    37    34    1
   136    41    39   ar
   137    51    50   ar
   138    51    53   ar
   139    97    99   ar
   140    97    95   ar
   141    49    50    1
   142    49    46    1
   143    99    98   ar
   144    61    60    1
   145    34    33    1
   146    34    35    1
   147    45    35   am
   148    45    46    1
   149    50    52   ar
   150    53    54   ar
   151    35    36    2
   152    46    47    1
   153    95    94   ar
   154    98    96   ar
   155    54    52   ar
   156    60    62    1
   157    60    59    1
   158    94    96   ar
   159    94    93    1
   160    47    48    2
   161    59    56    1
   162    90    89    1
   163    90    93    1
   164    90    91    1
   165    91    92    2
   166    56    55    1
   167    56    57    1
   168    57    58    2
