@<TRIPOS>MOLECULE
tmp/5kb3A00.pdb
 155 147 0 0 0
SMALL
GASTEIGER

@<TRIPOS>ATOM
      1  N         62.6510   41.3550    9.3010 N.3     9  ALA9       -0.1231
      2  CA        63.4860   41.1950   10.4880 C.3     9  ALA9        0.1694
      3  C         64.8080   41.9350   10.3560 C.2     9  ALA9        0.2591
      4  O         65.2620   42.5780   11.3110 O.2     9  ALA9       -0.2718
      5  CB        63.7620   39.7150   10.7490 C.3     9  ALA9        0.0304
      6  N         65.4490   41.8330    9.1970 N.am   10  MET10      -0.1979
      7  CA        66.7510   42.4270    8.9520 C.3    10  MET10       0.1605
      8  C         66.5900   43.6320    8.0420 C.2    10  MET10       0.2287
      9  O         65.6430   43.7080    7.2560 O.2    10  MET10      -0.2864
     10  CB        67.6790   41.4220    8.2670 C.3    10  MET10       0.0413
     11  CG        67.8800   40.1450    9.0530 C.3    10  MET10       0.0598
     12  SD        68.8270   38.9440    8.1080 S.3    10  MET10      -0.1393
     13  CE        70.4240   39.7500    8.0600 C.3    10  MET10       0.0692
     14  N         65.9740   42.8720    4.5220 N.3    13  GLU13      -0.1245
     15  CA        64.6460   42.4730    4.0850 C.3    13  GLU13       0.1567
     16  C         63.7390   43.6560    3.7870 C.2    13  GLU13       0.2260
     17  O         62.7880   43.5020    3.0130 O.2    13  GLU13      -0.2867
     18  CB        64.0100   41.5300    5.1060 C.3    13  GLU13       0.0388
     19  CG        64.7070   40.1770    5.1430 C.3    13  GLU13       0.1160
     20  CD        64.3740   39.3480    6.3600 C.2    13  GLU13       0.3649
     21  OE1       64.1800   39.9300    7.4460 O.co2  13  GLU13      -0.2457
     22  OE2       64.3130   38.1080    6.2240 O.co2  13  GLU13      -0.2457
     23  N         66.5990   40.7790   14.6080 N.3    52  ILE52      -0.1245
     24  CA        66.3960   39.3360   14.5150 C.3    52  ILE52       0.1561
     25  C         65.7520   38.7730   15.7810 C.2    52  ILE52       0.2260
     26  O         66.0780   39.1750   16.9060 O.2    52  ILE52      -0.2867
     27  CB        67.7580   38.6730   14.2410 C.3    52  ILE52       0.0252
     28  CG1       68.2580   39.0550   12.8410 C.3    52  ILE52       0.0019
     29  CG2       67.6990   37.1620   14.4200 C.3    52  ILE52       0.0019
     30  CD1       69.7420   38.7710   12.6180 C.3    52  ILE52       0.0001
     31  N         62.9730   36.2940    4.4040 N.3    78  VAL78      -0.1231
     32  CA        63.5150   35.0380    3.9160 C.3    78  VAL78       0.1692
     33  C         63.3410   33.9390    4.9650 C.2    78  VAL78       0.2592
     34  O         63.0340   34.1950    6.1320 O.2    78  VAL78      -0.2718
     35  CB        64.9760   35.1760    3.4330 C.3    78  VAL78       0.0266
     36  CG1       65.0740   36.3000    2.4070 C.3    78  VAL78       0.0020
     37  CG2       65.9230   35.4410    4.5980 C.3    78  VAL78       0.0020
     38  N         63.5210   32.6920    4.5300 N.am   79  ALA79      -0.1966
     39  CA        63.3290   31.5690    5.4360 C.3    79  ALA79       0.1728
     40  C         64.1140   30.3630    4.9480 C.2    79  ALA79       0.2616
     41  O         64.5170   30.2870    3.7810 O.2    79  ALA79      -0.2715
     42  CB        61.8420   31.2020    5.5730 C.3    79  ALA79       0.0334
     43  N         64.3090   29.4050    5.8520 N.am   80  GLY80      -0.1955
     44  CA        64.9140   28.1340    5.4860 C.3    80  GLY80       0.1869
     45  C         63.8530   27.1120    5.1080 C.2    80  GLY80       0.2309
     46  O         62.8200   26.9990    5.7640 O.2    80  GLY80      -0.2863
     47  N         66.8110   30.3090   17.2250 N.3   152  GLN152     -0.1231
     48  CA        68.0390   29.6990   16.7450 C.3   152  GLN152      0.1698
     49  C         67.9970   29.6720   15.2300 C.2   152  GLN152      0.2592
     50  O         66.9420   29.4320   14.6320 O.2   152  GLN152     -0.2718
     51  CB        68.1990   28.2680   17.2700 C.3   152  GLN152      0.0381
     52  CG        67.9580   28.1090   18.7730 C.3   152  GLN152      0.0905
     53  CD        66.4790   28.0960   19.1290 C.2   152  GLN152      0.2608
     54  OE1       65.6680   27.4950   18.4180 O.2   152  GLN152     -0.2717
     55  NE2       66.1200   28.7640   20.2270 N.am  152  GLN152     -0.0878
     56  N         69.1430   29.9140   14.6130 N.am  153  PHE153     -0.1962
     57  CA        69.2640   29.6670   13.1820 C.3   153  PHE153      0.1771
     58  C         69.4490   28.1690   12.9980 C.2   153  PHE153      0.2619
     59  O         70.3540   27.5780   13.5940 O.2   153  PHE153     -0.2715
     60  CB        70.4460   30.4430   12.6050 C.3   153  PHE153      0.0574
     61  CG        70.5820   30.3250   11.1090 C.ar  153  PHE153     -0.0200
     62  CD1       69.8460   31.1390   10.2640 C.ar  153  PHE153     -0.0042
     63  CD2       71.4490   29.4040   10.5550 C.ar  153  PHE153     -0.0042
     64  CE1       69.9740   31.0400    8.8830 C.ar  153  PHE153     -0.0003
     65  CE2       71.5940   29.3020    9.1760 C.ar  153  PHE153     -0.0003
     66  CZ        70.8500   30.1170    8.3410 C.ar  153  PHE153     -0.0000
     67  N         68.5700   27.5510   12.2180 N.am  154  VAL154     -0.1977
     68  CA        68.5520   26.0990   12.0820 C.3   154  VAL154      0.1596
     69  C         69.4860   25.6910   10.9480 C.2   154  VAL154      0.2287
     70  O         69.3890   26.1990    9.8230 O.2   154  VAL154     -0.2864
     71  CB        67.1190   25.5870   11.8600 C.3   154  VAL154      0.0276
     72  CG1       67.1170   24.0790   11.6120 C.3   154  VAL154      0.0022
     73  CG2       66.2600   25.9290   13.0680 C.3   154  VAL154      0.0022
     74  N         61.3360   27.4390    8.1570 N.3   172  VAL172     -0.1231
     75  CA        61.7770   27.8560    9.4810 C.3   172  VAL172      0.1692
     76  C         62.3440   29.2670    9.4030 C.2   172  VAL172      0.2592
     77  O         63.0270   29.6270    8.4380 O.2   172  VAL172     -0.2718
     78  CB        62.7950   26.8590   10.0840 C.3   172  VAL172      0.0266
     79  CG1       64.0520   26.7590    9.2330 C.3   172  VAL172      0.0020
     80  CG2       63.1410   27.2410   11.5010 C.3   172  VAL172      0.0020
     81  N         62.0390   30.0730   10.4120 N.am  173  GLU173     -0.1966
     82  CA        62.5850   31.4260   10.5230 C.3   173  GLU173      0.1733
     83  C         62.5870   31.7940   12.0030 C.2   173  GLU173      0.2616
     84  O         62.5070   30.9140   12.8630 O.2   173  GLU173     -0.2715
     85  CB        61.9030   32.4020    9.5450 C.3   173  GLU173      0.0429
     86  CG        60.4420   32.1160    9.2710 C.3   173  GLU173      0.1163
     87  CD        59.5240   32.8440   10.2250 C.2   173  GLU173      0.3649
     88  OE1       58.5350   33.4590    9.7690 O.co2 173  GLU173     -0.2457
     89  OE2       59.8020   32.8110   11.4350 O.co2 173  GLU173     -0.2457
     90  N         62.7200   33.0820   12.3170 N.am  174  MET174     -0.1963
     91  CA        62.9340   33.4770   13.7040 C.3   174  MET174      0.1736
     92  C         61.9770   34.5560   14.1940 C.2   174  MET174      0.2616
     93  O         62.1910   35.1020   15.2850 O.2   174  MET174     -0.2715
     94  CB        64.3970   33.8930   13.9180 C.3   174  MET174      0.0427
     95  CG        65.3780   32.7740   13.5470 C.3   174  MET174      0.0599
     96  SD        67.1230   33.1980   13.6730 S.3   174  MET174     -0.1393
     97  CE        67.2740   33.4710   15.4350 C.3   174  MET174      0.0692
     98  N         60.9270   34.8740   13.4320 N.am  175  GLU175     -0.1977
     99  CA        60.0970   36.0360   13.7370 C.3   175  GLU175      0.1602
    100  C         58.6160   35.8570   13.4220 C.2   175  GLU175      0.2287
    101  O         57.7810   36.5680   13.9860 O.2   175  GLU175     -0.2864
    102  CB        60.5820   37.2690   12.9690 C.3   175  GLU175      0.0415
    103  CG        61.9980   37.7090   13.2640 C.3   175  GLU175      0.1163
    104  CD        63.0520   36.9660   12.4570 C.2   175  GLU175      0.3649
    105  OE1       62.7340   36.2580   11.4650 O.co2 175  GLU175     -0.2457
    106  OE2       64.2240   37.1000   12.8370 O.co2 175  GLU175     -0.2457
    107  N         57.3450   34.5250    3.0370 N.3   194  ARG194     -0.1245
    108  CA        58.7790   34.2730    3.0690 C.3   194  ARG194      0.1563
    109  C         59.2440   33.7030    1.7370 C.2   194  ARG194      0.2260
    110  O         58.5280   32.9370    1.0870 O.2   194  ARG194     -0.2867
    111  CB        59.1730   33.2930    4.1860 C.3   194  ARG194      0.0307
    112  CG        58.8290   33.7450    5.6100 C.3   194  ARG194      0.0489
    113  CD        59.8000   34.8020    6.1200 C.3   194  ARG194      0.2205
    114  NE        59.7110   34.9740    7.5770 N.pl3 194  ARG194     -0.0865
    115  CZ        60.6650   35.5290    8.3280 C.cat 194  ARG194      0.5346
    116  NH1       61.7860   35.9620    7.7600 N.pl3 194  ARG194      0.1354
    117  NH2       60.4960   35.6810    9.6410 N.pl3 194  ARG194      0.1354
    118  N         65.7930   31.1230    1.3740 N.3   197  SER197     -0.1202
    119  CA        67.1920   31.5130    1.2290 C.3   197  SER197      0.2020
    120  C         68.1660   30.3600    1.4100 C.2   197  SER197      0.2618
    121  O         69.3360   30.5040    1.0470 O.2   197  SER197     -0.2717
    122  CB        67.5520   32.6020    2.2570 C.3   197  SER197      0.2103
    123  OG        67.2340   32.1780    3.5720 O.3   197  SER197     -0.2182
    124  N         67.7360   29.2760    1.9830 N.am  198  ASP198     -0.1973
    125  CA        68.6000   28.1630    2.3230 C.3   198  ASP198      0.1709
    126  C         67.7600   26.9340    2.6990 C.2   198  ASP198      0.2293
    127  O         66.5700   27.0080    2.7850 O.2   198  ASP198     -0.2864
    128  CB        69.5330   28.5260    3.5090 C.3   198  ASP198      0.1436
    129  CG        68.7410   28.9370    4.7730 C.2   198  ASP198      0.3671
    130  OD1       68.4450   28.0500    5.5080 O.co2 198  ASP198     -0.2456
    131  OD2       68.4410   30.0920    4.9380 O.co2 198  ASP198     -0.2456
    132  N         68.2560   25.1200    5.5840 N.3   200  ALA200     -0.1245
    133  CA        68.2370   24.9070    7.0350 C.3   200  ALA200      0.1562
    134  C         69.1060   23.7270    7.4620 C.2   200  ALA200      0.2260
    135  O         68.8790   23.1220    8.5130 O.2   200  ALA200     -0.2867
    136  CB        66.8070   24.7620    7.5670 C.3   200  ALA200      0.0290
    137  N         72.4890   31.0600    2.8280 N.3   208  PHE208     -0.1227
    138  CA        71.8700   32.3050    3.2630 C.3   208  PHE208      0.1736
    139  C         72.6690   33.5150    2.7920 C.2   208  PHE208      0.2595
    140  O         72.1030   34.4780    2.2610 O.2   208  PHE208     -0.2718
    141  CB        71.7300   32.3050    4.7880 C.3   208  PHE208      0.0547
    142  CG        71.1900   33.5860    5.3380 C.ar  208  PHE208     -0.0202
    143  CD1       69.8250   33.7710    5.4730 C.ar  208  PHE208     -0.0042
    144  CD2       72.0470   34.6130    5.7110 C.ar  208  PHE208     -0.0042
    145  CE1       69.3270   34.9600    5.9520 C.ar  208  PHE208     -0.0003
    146  CE2       71.5510   35.8020    6.1960 C.ar  208  PHE208     -0.0003
    147  CZ        70.1870   35.9720    6.3300 C.ar  208  PHE208     -0.0000
    148  N         73.9900   33.4930    2.9890 N.am  209  ASP209     -0.1974
    149  CA        74.8050   34.6270    2.5620 C.3   209  ASP209      0.1709
    150  C         74.6920   34.8590    1.0610 C.2   209  ASP209      0.2293
    151  O         74.6430   36.0070    0.6040 O.2   209  ASP209     -0.2864
    152  CB        76.2640   34.4120    2.9600 C.3   209  ASP209      0.1436
    153  CG        76.5040   34.6350    4.4350 C.2   209  ASP209      0.3671
    154  OD1       75.6390   35.2510    5.0950 O.co2 209  ASP209     -0.2456
    155  OD2       77.5690   34.2110    4.9260 O.co2 209  ASP209     -0.2456
@<TRIPOS>BOND
     1   151   150    2
     2   121   120    2
     3   150   149    1
     4   110   109    2
     5   119   118    1
     6   119   120    1
     7   119   122    1
     8   120   124   am
     9   109   108    1
    10   124   125    1
    11   122   123    1
    12   140   139    2
    13   125   126    1
    14   125   128    1
    15    36    35    1
    16   149   152    1
    17   149   148    1
    18   126   127    2
    19   139   148   am
    20   139   138    1
    21   137   138    1
    22   152   153    1
    23    17    16    2
    24   107   108    1
    25   108   111    1
    26   138   141    1
    27    35    32    1
    28    35    37    1
    29   128   129    1
    30    41    40    2
    31    16    15    1
    32    32    31    1
    33    32    33    1
    34    15    14    1
    35    15    18    1
    36   111   112    1
    37   153   155   ar
    38   153   154   ar
    39    38    33   am
    40    38    39    1
    41   129   131   ar
    42   129   130   ar
    43   141   142    1
    44    40    39    1
    45    40    43   am
    46    33    34    2
    47    18    19    1
    48    45    44    1
    49    45    46    2
    50    19    20    1
    51   142   143   ar
    52   142   144   ar
    53    39    42    1
    54   143   145   ar
    55    44    43    1
    56   132   133    1
    57   112   113    1
    58   144   146   ar
    59   145   147   ar
    60   113   114    1
    61   146   147   ar
    62    22    20   ar
    63    20    21   ar
    64   133   134    1
    65   133   136    1
    66     9     8    2
    67   134   135    2
    68   114   115    2
    69   116   115    1
    70     8     7    1
    71    13    12    1
    72    12    11    1
    73    74    75    1
    74    10     7    1
    75    10    11    1
    76   115   117    1
    77    66    64   ar
    78    66    65   ar
    79    77    76    2
    80    64    62   ar
    81     7     6    1
    82    65    63   ar
    83     6     3   am
    84    79    78    1
    85    86    85    1
    86    86    87    1
    87     1     2    1
    88    76    75    1
    89    76    81   am
    90    75    78    1
    91    85    82    1
    92    88    87   ar
    93    70    69    2
    94    78    80    1
    95    87    89   ar
    96    62    61   ar
    97     3     2    1
    98     3     4    2
    99    81    82    1
   100     2     5    1
   101    82    83    1
   102    63    61   ar
   103    69    68    1
   104    61    60    1
   105   105   104   ar
   106    72    71    1
   107    71    68    1
   108    71    73    1
   109    83    90   am
   110    83    84    2
   111    68    67    1
   112    67    58   am
   113    90    91    1
   114   104   106   ar
   115   104   103    1
   116    60    57    1
   117    30    28    1
   118    28    27    1
   119   102   103    1
   120   102    99    1
   121    58    57    1
   122    58    59    2
   123    57    56    1
   124   100    99    1
   125   100   101    2
   126    98    99    1
   127    98    92   am
   128    95    96    1
   129    95    94    1
   130    96    97    1
   131    91    94    1
   132    91    92    1
   133    92    93    2
   134    27    29    1
   135    27    24    1
   136    24    23    1
   137    24    25    1
   138    56    49   am
   139    50    49    2
   140    49    48    1
   141    25    26    2
   142    48    47    1
   143    48    51    1
   144    51    52    1
   145    54    53    2
   146    52    53    1
   147    53    55   am
