@<TRIPOS>MOLECULE
tmp/5kb5A02.pdb
 99 98 0 0 0
SMALL
GASTEIGER

@<TRIPOS>ATOM
      1  N        153.1710  144.3000  192.8990 N.3    72  TRP72      -0.1241
      2  CA       153.5940  143.0870  192.2050 C.3    72  TRP72       0.1605
      3  C        154.6560  142.2970  192.9590 C.2    72  TRP72       0.2264
      4  O        154.6190  141.0680  193.0290 O.2    72  TRP72      -0.2867
      5  CB       154.0520  143.4710  190.7970 C.3    72  TRP72       0.0550
      6  CG       154.6330  142.3870  189.9870 C.ar   72  TRP72       0.0003
      7  CD1      154.0230  141.2730  189.5050 C.ar   72  TRP72       0.0946
      8  CD2      155.9510  142.3590  189.5160 C.ar   72  TRP72       0.0152
      9  NE1      154.8960  140.5630  188.7400 N.ar   72  TRP72      -0.2442
     10  CE2      156.0960  141.2230  188.7330 C.ar   72  TRP72       0.0810
     11  CE3      157.0330  143.2530  189.6230 C.ar   72  TRP72       0.0012
     12  CZ2      157.2820  140.9220  188.1110 C.ar   72  TRP72       0.0191
     13  CZ3      158.1970  142.9470  189.0280 C.ar   72  TRP72       0.0001
     14  CH2      158.3390  141.7890  188.2930 C.ar   72  TRP72       0.0015
     15  N        153.1930  141.0680  196.3730 N.3    75  GLN75      -0.1245
     16  CA       152.2670  140.0010  196.0820 C.3    75  GLN75       0.1566
     17  C        151.0920  139.9120  197.0580 C.2    75  GLN75       0.2260
     18  O        149.9950  140.0080  196.5990 O.2    75  GLN75      -0.2867
     19  CB       152.9080  138.5990  195.8860 C.3    75  GLN75       0.0367
     20  CG       153.5120  138.3670  194.5000 C.3    75  GLN75       0.0905
     21  CD       152.4830  138.3430  193.3250 C.2    75  GLN75       0.2608
     22  OE1      151.6230  137.4610  193.2770 O.2    75  GLN75      -0.2717
     23  NE2      152.6040  139.2830  192.3610 N.am   75  GLN75      -0.0878
     24  N        146.9110  141.5260  198.8190 N.3    78  HIS78      -0.1226
     25  CA       146.3220  142.4210  197.8210 C.3    78  HIS78       0.1752
     26  C        146.0380  143.7610  198.4790 C.2    78  HIS78       0.2595
     27  O        145.7060  143.7960  199.6490 O.2    78  HIS78      -0.2718
     28  CB       145.0360  141.8340  197.2380 C.3    78  HIS78       0.0759
     29  CG       145.2560  140.5840  196.3900 C.ar   78  HIS78       0.0818
     30  ND1      146.5140  140.0740  196.0870 N.ar   78  HIS78      -0.2268
     31  CD2      144.3790  139.8100  195.7200 C.ar   78  HIS78       0.1154
     32  CE1      146.3890  139.0100  195.2960 C.ar   78  HIS78       0.1986
     33  NE2      145.1010  138.8070  195.0970 N.ar   78  HIS78      -0.2212
     34  N        146.1360  144.8540  197.7340 N.am   79  LYS79      -0.1980
     35  CA       145.7900  146.1870  198.2530 C.3    79  LYS79       0.1596
     36  C        146.7490  146.6960  199.2860 C.2    79  LYS79       0.2287
     37  O        146.4000  147.5580  200.1140 O.2    79  LYS79      -0.2864
     38  CB       144.3620  146.2170  198.8110 C.3    79  LYS79       0.0298
     39  CG       143.3190  145.9260  197.7190 C.3    79  LYS79       0.0038
     40  CD       141.9380  145.9560  198.3320 C.3    79  LYS79       0.0206
     41  CE       140.9200  146.2610  197.2550 C.3    79  LYS79       0.1093
     42  NZ       139.5940  146.1920  197.9310 N.3    79  LYS79      -0.1314
     43  N        142.8020  147.0990  189.0900 N.3   101  ALA101     -0.1231
     44  CA       142.2180  145.9670  189.7690 C.3   101  ALA101      0.1694
     45  C        143.0720  144.7220  189.4980 C.2   101  ALA101      0.2592
     46  O        143.3160  143.9180  190.4180 O.2   101  ALA101     -0.2718
     47  CB       140.8410  145.7570  189.2770 C.3   101  ALA101      0.0304
     48  N        143.4920  144.5650  188.2330 N.am  102  ASP102     -0.1960
     49  CA       144.3010  143.3910  187.8030 C.3   102  ASP102      0.1840
     50  C        145.6050  143.3720  188.5290 C.2   102  ASP102      0.2622
     51  O        146.1730  142.2830  188.8160 O.2   102  ASP102     -0.2715
     52  CB       144.6450  143.4000  186.3260 C.3   102  ASP102      0.1450
     53  CG       143.4610  143.0950  185.4140 C.2   102  ASP102      0.3671
     54  OD1      142.3810  142.6920  185.8730 O.co2 102  ASP102     -0.2456
     55  OD2      143.5900  143.3180  184.1790 O.co2 102  ASP102     -0.2456
     56  N        146.1100  144.5740  188.8540 N.am  103  ALA103     -0.1963
     57  CA       147.3750  144.7130  189.5390 C.3   103  ALA103      0.1728
     58  C        147.2220  144.6420  191.0950 C.2   103  ALA103      0.2616
     59  O        148.2210  144.7020  191.7960 O.2   103  ALA103     -0.2715
     60  CB       148.0010  146.0410  189.1410 C.3   103  ALA103      0.0334
     61  N        145.9900  144.4680  191.5910 N.am  104  HIS104     -0.1973
     62  CA       145.6720  144.3770  193.0220 C.3   104  HIS104      0.1656
     63  C        146.1300  145.5870  193.8380 C.2   104  HIS104      0.2291
     64  O        146.4060  145.4870  195.0480 O.2   104  HIS104     -0.2864
     65  CB       146.2260  143.1140  193.6820 C.3   104  HIS104      0.0771
     66  CG       146.0320  141.8990  192.8770 C.ar  104  HIS104      0.0820
     67  ND1      144.7850  141.4750  192.4780 N.ar  104  HIS104     -0.2267
     68  CD2      146.9140  141.0270  192.3600 C.ar  104  HIS104      0.1154
     69  CE1      144.9050  140.3670  191.7650 C.ar  104  HIS104      0.1986
     70  NE2      146.1790  140.0650  191.6990 N.ar  104  HIS104     -0.2212
     71  N        154.5100  143.9680  183.2920 N.3   335  PHE335     -0.1241
     72  CA       155.2190  142.9060  183.9380 C.3   335  PHE335      0.1605
     73  C        154.4080  141.5900  183.8250 C.2   335  PHE335      0.2264
     74  O        153.2160  141.5950  183.5930 O.2   335  PHE335     -0.2867
     75  CB       155.5490  143.2930  185.4050 C.3   335  PHE335      0.0534
     76  CG       154.4130  143.9640  186.1220 C.ar  335  PHE335     -0.0203
     77  CD1      153.4160  143.2100  186.7220 C.ar  335  PHE335     -0.0042
     78  CD2      154.3130  145.3540  186.1780 C.ar  335  PHE335     -0.0042
     79  CE1      152.3400  143.7870  187.3830 C.ar  335  PHE335     -0.0003
     80  CE2      153.2620  145.9370  186.8460 C.ar  335  PHE335     -0.0003
     81  CZ       152.2660  145.1660  187.4430 C.ar  335  PHE335     -0.0000
     82  N        152.8940  137.9980  185.4700 N.3   337  GLU337     -0.1231
     83  CA       152.0030  137.9520  186.6130 C.3   337  GLU337      0.1699
     84  C        152.7390  137.8800  187.9430 C.2   337  GLU337      0.2592
     85  O        152.1730  138.3180  188.9670 O.2   337  GLU337     -0.2718
     86  CB       151.0600  136.7750  186.4870 C.3   337  GLU337      0.0402
     87  CG       149.9820  137.0090  185.4330 C.3   337  GLU337      0.1161
     88  CD       149.2550  135.7620  185.0910 C.2   337  GLU337      0.3649
     89  OE1      148.0500  135.8450  184.8630 O.co2 337  GLU337     -0.2457
     90  OE2      149.8660  134.6740  185.0140 O.co2 337  GLU337     -0.2457
     91  N        153.9380  137.2770  187.9360 N.am  338  LYS338     -0.1980
     92  CA       154.6750  137.0070  189.1640 C.3   338  LYS338      0.1596
     93  C        156.0870  137.4610  189.0350 C.2   338  LYS338      0.2287
     94  O        156.6750  137.3800  187.9420 O.2   338  LYS338     -0.2864
     95  CB       154.7230  135.5180  189.5390 C.3   338  LYS338      0.0298
     96  CG       153.4400  134.7650  189.3820 C.3   338  LYS338      0.0038
     97  CD       152.3920  135.2190  190.3690 C.3   338  LYS338      0.0206
     98  CE       151.1560  134.4680  189.9680 C.3   338  LYS338      0.1093
     99  NZ       150.1370  134.6160  190.9890 N.3   338  LYS338     -0.1314
@<TRIPOS>BOND
     1    71    72    1
     2    74    73    2
     3    73    72    1
     4    72    75    1
     5    55    53   ar
     6    89    88   ar
     7    90    88   ar
     8    88    87    1
     9    75    76    1
    10    53    54   ar
    11    53    52    1
    12    87    86    1
    13    82    83    1
    14    76    78   ar
    15    76    77   ar
    16    78    80   ar
    17    52    49    1
    18    86    83    1
    19    83    84    1
    20    77    79   ar
    21    80    81   ar
    22    79    81   ar
    23    49    48    1
    24    49    50    1
    25    91    84   am
    26    91    92    1
    27    94    93    2
    28    84    85    2
    29    12    14   ar
    30    12    10   ar
    31    48    45   am
    32    14    13   ar
    33    50    51    2
    34    50    56   am
    35    10     9   ar
    36    10     8   ar
    37     9     7   ar
    38    56    57    1
    39    13    11   ar
    40    93    92    1
    41    43    44    1
    42    60    57    1
    43    92    95    1
    44    47    44    1
    45    96    95    1
    46    96    97    1
    47    45    44    1
    48    45    46    2
    49     7     6   ar
    50     8    11   ar
    51     8     6   ar
    52    57    58    1
    53    98    97    1
    54    98    99    1
    55     6     5    1
    56     5     2    1
    57    58    61   am
    58    58    59    2
    59    61    62    1
    60    70    69   ar
    61    70    68   ar
    62    69    67   ar
    63     2     1    1
    64     2     3    1
    65    68    66   ar
    66    23    21   am
    67    67    66   ar
    68    66    65    1
    69     3     4    2
    70    62    65    1
    71    62    63    1
    72    22    21    2
    73    21    20    1
    74    63    64    2
    75    20    19    1
    76    33    32   ar
    77    33    31   ar
    78    32    30   ar
    79    31    29   ar
    80    19    16    1
    81    16    15    1
    82    16    17    1
    83    30    29   ar
    84    29    28    1
    85    18    17    2
    86    28    25    1
    87    41    42    1
    88    41    40    1
    89    39    40    1
    90    39    38    1
    91    34    35    1
    92    34    26   am
    93    25    26    1
    94    25    24    1
    95    35    38    1
    96    35    36    1
    97    26    27    2
    98    36    37    2
