@<TRIPOS>MOLECULE
tmp/5kb5A01.pdb
 200 186 0 0 0
SMALL
GASTEIGER

@<TRIPOS>ATOM
      1  N        165.1520  160.9850  173.9780 N.3    33  ASN33      -0.1240
      2  CA       164.9050  160.6020  175.3870 C.3    33  ASN33       0.1653
      3  C        164.4940  161.8560  176.1710 C.2    33  ASN33       0.2266
      4  O        165.3290  162.6860  176.5090 O.2    33  ASN33      -0.2867
      5  CB       166.1310  159.8780  175.9530 C.3    33  ASN33       0.1155
      6  CG       165.7400  158.8280  176.9830 C.2    33  ASN33       0.2627
      7  OD1      165.1490  157.7850  176.6550 O.2    33  ASN33      -0.2716
      8  ND2      166.1090  159.0870  178.2680 N.am   33  ASN33      -0.0877
      9  N        167.0430  152.2860  172.4410 N.3   127  GLY127     -0.1225
     10  CA       167.0360  152.3360  173.9050 C.3   127  GLY127      0.1811
     11  C        166.4040  153.5890  174.4880 C.2   127  GLY127      0.2280
     12  O        166.6230  153.8480  175.6510 O.2   127  GLY127     -0.2866
     13  N        163.1240  156.6310  174.9160 N.3   129  ARG129     -0.1245
     14  CA       161.6780  156.8090  175.0170 C.3   129  ARG129      0.1563
     15  C        161.3820  158.2740  175.1090 C.2   129  ARG129      0.2260
     16  O        161.9830  158.9810  175.9190 O.2   129  ARG129     -0.2867
     17  CB       161.1030  156.0040  176.1880 C.3   129  ARG129      0.0307
     18  CG       161.7430  156.3260  177.5090 C.3   129  ARG129      0.0489
     19  CD       160.7960  157.0730  178.3970 C.3   129  ARG129      0.2205
     20  NE       161.5230  157.4370  179.6620 N.pl3 129  ARG129     -0.0865
     21  CZ       162.4600  158.4260  179.7370 C.cat 129  ARG129      0.5346
     22  NH1      163.0280  158.7390  180.9060 N.pl3 129  ARG129      0.1354
     23  NH2      162.6730  159.2640  178.7090 N.pl3 129  ARG129      0.1354
     24  N        165.4470  159.9770  191.2350 N.3   219  GLY219     -0.1210
     25  CA       165.5200  160.6720  189.9480 C.3   219  GLY219      0.1956
     26  C        166.5250  159.9550  189.0400 C.2   219  GLY219      0.2612
     27  O        167.2080  159.0620  189.4650 O.2   219  GLY219     -0.2717
     28  N        166.6200  160.3890  187.7970 N.am  220  ASN220     -0.1960
     29  CA       167.6950  159.9250  186.9150 C.3   220  ASN220      0.1819
     30  C        168.7850  161.0080  186.7890 C.2   220  ASN220      0.2621
     31  O        168.6390  162.1280  187.3210 O.2   220  ASN220     -0.2715
     32  CB       167.1840  159.3740  185.5700 C.3   220  ASN220      0.1195
     33  CG       166.7040  160.4400  184.6070 C.2   220  ASN220      0.2630
     34  OD1      167.0440  161.6050  184.6940 O.2   220  ASN220     -0.2716
     35  ND2      165.9720  159.9950  183.5730 N.am  220  ASN220     -0.0877
     36  N        169.8440  160.6610  186.0660 N.am  221  GLU221     -0.1977
     37  CA       171.0220  161.4930  185.9350 C.3   221  GLU221      0.1602
     38  C        170.7470  162.8930  185.2860 C.2   221  GLU221      0.2287
     39  O        171.3220  163.9050  185.6840 O.2   221  GLU221     -0.2864
     40  CB       172.1270  160.7240  185.1760 C.3   221  GLU221      0.0415
     41  CG       171.9050  160.3560  183.6890 C.3   221  GLU221      0.1163
     42  CD       170.5470  159.7600  183.2660 C.2   221  GLU221      0.3649
     43  OE1      170.1970  158.5710  183.6220 O.co2 221  GLU221     -0.2457
     44  OE2      169.7960  160.5050  182.5270 O.co2 221  GLU221     -0.2457
     45  N        167.7210  164.3690  185.1090 N.3   223  GLU223     -0.1245
     46  CA       166.9270  165.0940  186.0910 C.3   223  GLU223      0.1567
     47  C        167.8130  165.6970  187.1980 C.2   223  GLU223      0.2260
     48  O        167.6240  166.8360  187.5990 O.2   223  GLU223     -0.2867
     49  CB       165.8430  164.2260  186.7100 C.3   223  GLU223      0.0388
     50  CG       164.6830  163.9590  185.7510 C.3   223  GLU223      0.1160
     51  CD       164.1360  162.5640  185.7220 C.2   223  GLU223      0.3649
     52  OE1      164.2680  161.8440  186.7210 O.co2 223  GLU223     -0.2457
     53  OE2      163.5860  162.2250  184.6260 O.co2 223  GLU223     -0.2457
     54  N        169.3550  157.0710  189.3970 N.3   262  THR262     -0.1203
     55  CA       169.6820  156.0230  188.4310 C.3   262  THR262      0.1994
     56  C        170.3360  156.6780  187.2280 C.2   262  THR262      0.2618
     57  O        170.1500  157.8930  186.9400 O.2   262  THR262     -0.2717
     58  CB       168.4330  155.2570  188.0060 C.3   262  THR262      0.1784
     59  OG1      167.4860  156.1180  187.3870 O.3   262  THR262     -0.2211
     60  CG2      167.7840  154.6280  189.1360 C.3   262  THR262      0.0376
     61  N        171.0620  155.8700  186.4350 N.am  263  GLN263     -0.1965
     62  CA       171.8610  156.3950  185.3280 C.3   263  GLN263      0.1733
     63  C        171.8290  155.4070  184.1440 C.2   263  GLN263      0.2617
     64  O        172.8340  155.2200  183.4750 O.2   263  GLN263     -0.2715
     65  CB       173.3200  156.5980  185.7240 C.3   263  GLN263      0.0408
     66  CG       173.5530  157.5240  186.9130 C.3   263  GLN263      0.0908
     67  CD       174.9680  157.9770  187.0040 C.2   263  GLN263      0.2608
     68  OE1      175.2830  159.0870  186.5930 O.2   263  GLN263     -0.2717
     69  NE2      175.8410  157.1310  187.4840 N.am  263  GLN263     -0.0878
     70  N        170.6330  154.8590  183.9350 N.am  264  GLY264     -0.1940
     71  CA       170.3590  153.9210  182.8470 C.3   264  GLY264      0.2014
     72  C        171.2060  152.6920  183.0230 C.2   264  GLY264      0.2638
     73  O        171.0940  152.0050  184.0350 O.2   264  GLY264     -0.2714
     74  N        172.0290  152.3570  182.0370 N.am  265  ARG265     -0.1977
     75  CA       172.9790  151.2460  182.2340 C.3   265  ARG265      0.1597
     76  C        174.1560  151.5350  183.1670 C.2   265  ARG265      0.2287
     77  O        174.8230  150.5930  183.5590 O.2   265  ARG265     -0.2864
     78  CB       173.4730  150.6810  180.9170 C.3   265  ARG265      0.0334
     79  CG       174.4280  151.5460  180.1990 C.3   265  ARG265      0.0492
     80  CD       174.5540  151.0510  178.7490 C.3   265  ARG265      0.2205
     81  NE       175.1750  149.7170  178.7220 N.pl3 265  ARG265     -0.0865
     82  CZ       175.5810  149.0920  177.6220 C.cat 265  ARG265      0.5346
     83  NH1      175.4060  149.6490  176.4280 N.pl3 265  ARG265      0.1354
     84  NH2      176.1670  147.8900  177.7210 N.pl3 265  ARG265      0.1354
     85  N        173.8010  153.0030  189.8070 N.3   268  THR268     -0.1218
     86  CA       172.8390  153.7500  190.5590 C.3   268  THR268      0.1862
     87  C        173.6280  154.4300  191.7000 C.2   268  THR268      0.2287
     88  O        174.4100  153.7780  192.3990 O.2   268  THR268     -0.2866
     89  CB       171.7050  152.8400  191.0610 C.3   268  THR268      0.1770
     90  OG1      170.9530  152.3790  189.9200 O.3   268  THR268     -0.2211
     91  CG2      170.7430  153.5660  192.0650 C.3   268  THR268      0.0375
     92  N        174.6230  148.3270  187.7420 N.3   281  VAL281     -0.1245
     93  CA       173.5430  147.6060  187.0550 C.3   281  VAL281      0.1561
     94  C        174.1670  146.3630  186.4160 C.2   281  VAL281      0.2260
     95  O        174.9530  146.4860  185.4790 O.2   281  VAL281     -0.2867
     96  CB       172.9090  148.5230  186.0220 C.3   281  VAL281      0.0252
     97  CG1      171.9070  147.7420  185.1890 C.3   281  VAL281      0.0019
     98  CG2      172.2040  149.7070  186.6700 C.3   281  VAL281      0.0019
     99  N        172.6830  143.7740  185.0540 N.3   283  ASP283     -0.1225
    100  CA       171.9930  143.3270  183.7950 C.3   283  ASP283      0.1805
    101  C        172.4450  144.2340  182.6460 C.2   283  ASP283      0.2598
    102  O        172.0310  145.4190  182.5540 O.2   283  ASP283     -0.2718
    103  CB       170.4600  143.5130  183.9210 C.3   283  ASP283      0.1424
    104  CG       169.7400  143.3950  182.5540 C.2   283  ASP283      0.3668
    105  OD1      170.2580  142.6780  181.7000 O.co2 283  ASP283     -0.2456
    106  OD2      168.6690  144.0050  182.3270 O.co2 283  ASP283     -0.2456
    107  N        173.3690  143.7490  181.8430 N.am  284  GLN284     -0.1965
    108  CA       173.8800  144.5760  180.7580 C.3   284  GLN284      0.1733
    109  C        173.5700  144.0200  179.3460 C.2   284  GLN284      0.2616
    110  O        174.2180  144.4250  178.3930 O.2   284  GLN284     -0.2715
    111  CB       175.3910  144.7380  180.9260 C.3   284  GLN284      0.0408
    112  CG       175.7660  145.6260  182.0990 C.3   284  GLN284      0.0908
    113  CD       175.4370  147.0960  181.8780 C.2   284  GLN284      0.2608
    114  OE1      175.4240  147.6060  180.7270 O.2   284  GLN284     -0.2717
    115  NE2      175.1690  147.7950  182.9880 N.am  284  GLN284     -0.0878
    116  N        172.6360  143.0920  179.2040 N.am  285  ASN285     -0.1958
    117  CA       172.3390  142.5490  177.8710 C.3   285  ASN285      0.1819
    118  C        171.4110  143.4520  177.0580 C.2   285  ASN285      0.2621
    119  O        170.1910  143.4680  177.2210 O.2   285  ASN285     -0.2715
    120  CB       171.8700  141.1160  177.9530 C.3   285  ASN285      0.1195
    121  CG       173.0340  140.1870  178.0620 C.2   285  ASN285      0.2630
    122  OD1      173.5740  139.9950  179.1570 O.2   285  ASN285     -0.2716
    123  ND2      173.5110  139.6680  176.9150 N.am  285  ASN285     -0.0877
    124  N        172.0230  144.2610  176.2190 N.am  286  GLN286     -0.1977
    125  CA       171.2930  145.2890  175.5180 C.3   286  GLN286      0.1601
    126  C        170.3940  144.6930  174.4310 C.2   286  GLN286      0.2287
    127  O        169.3390  145.2620  174.1230 O.2   286  GLN286     -0.2864
    128  CB       172.2540  146.3430  174.9760 C.3   286  GLN286      0.0394
    129  CG       173.0770  147.0310  176.0360 C.3   286  GLN286      0.0908
    130  CD       172.2010  147.7500  177.0620 C.2   286  GLN286      0.2608
    131  OE1      171.3550  148.5740  176.6780 O.2   286  GLN286     -0.2717
    132  NE2      172.3810  147.4400  178.3750 N.am  286  GLN286     -0.0878
    133  N        166.6300  144.2420  175.2760 N.3   289  ILE289     -0.1245
    134  CA       165.8060  145.4170  175.5640 C.3   289  ILE289      0.1561
    135  C        164.7550  145.5900  174.4910 C.2   289  ILE289      0.2260
    136  O        165.0160  145.3580  173.2690 O.2   289  ILE289     -0.2867
    137  CB       166.6360  146.6620  175.7900 C.3   289  ILE289      0.0252
    138  CG1      167.3420  146.5120  177.1340 C.3   289  ILE289      0.0019
    139  CG2      165.7560  147.9270  175.8960 C.3   289  ILE289      0.0019
    140  CD1      168.4010  147.5450  177.4020 C.3   289  ILE289      0.0001
    141  N        162.4900  151.0770  176.9370 N.3   292  THR292     -0.1218
    142  CA       162.9190  151.5110  178.2790 C.3   292  THR292      0.1862
    143  C        161.8870  152.3850  178.9950 C.2   292  THR292      0.2287
    144  O        162.1370  152.8820  180.1170 O.2   292  THR292     -0.2866
    145  CB       164.2570  152.2720  178.2610 C.3   292  THR292      0.1770
    146  OG1      164.1230  153.4060  177.4060 O.3   292  THR292     -0.2211
    147  CG2      165.3690  151.4090  177.7570 C.3   292  THR292      0.0375
    148  N        159.2590  153.3360  181.3980 N.3   294  GLY294     -0.1210
    149  CA       158.8980  152.7730  182.6880 C.3   294  GLY294      0.1956
    150  C        160.0190  152.2250  183.5310 C.2   294  GLY294      0.2612
    151  O        159.7700  151.7750  184.7010 O.2   294  GLY294     -0.2717
    152  N        161.2610  152.2850  183.0370 N.am  295  ALA295     -0.1965
    153  CA       162.3820  151.6490  183.7530 C.3   295  ALA295      0.1728
    154  C        162.5010  152.2750  185.1560 C.2   295  ALA295      0.2616
    155  O        162.6250  151.5730  186.1620 O.2   295  ALA295     -0.2715
    156  CB       163.6830  151.7940  182.9600 C.3   295  ALA295      0.0334
    157  N        162.5020  153.6160  185.1970 N.am  296  GLY296     -0.1955
    158  CA       162.7020  154.2850  186.4620 C.3   296  GLY296      0.1869
    159  C        161.5380  154.1690  187.4190 C.2   296  GLY296      0.2309
    160  O        161.7240  154.0470  188.6410 O.2   296  GLY296     -0.2863
    161  N        161.9830  150.8040  188.8530 N.3   299  PHE299     -0.1241
    162  CA       163.0800  150.8340  189.8500 C.3   299  PHE299      0.1605
    163  C        162.5030  151.3240  191.1860 C.2   299  PHE299      0.2264
    164  O        162.7010  150.7090  192.2130 O.2   299  PHE299     -0.2867
    165  CB       164.2610  151.7180  189.4010 C.3   299  PHE299      0.0534
    166  CG       165.2450  151.9460  190.4700 C.ar  299  PHE299     -0.0203
    167  CD1      166.2310  151.0060  190.6820 C.ar  299  PHE299     -0.0042
    168  CD2      165.1280  153.0210  191.3500 C.ar  299  PHE299     -0.0042
    169  CE1      167.1080  151.1380  191.7230 C.ar  299  PHE299     -0.0003
    170  CE2      166.0260  153.1650  192.4100 C.ar  299  PHE299     -0.0003
    171  CZ       166.9860  152.2200  192.6110 C.ar  299  PHE299     -0.0000
    172  N        166.6080  147.2860  190.7310 N.3   321  HIS321     -0.1241
    173  CA       167.2870  146.8240  189.4850 C.3   321  HIS321      0.1621
    174  C        166.5750  145.6410  188.8380 C.2   321  HIS321      0.2264
    175  O        166.3980  145.6020  187.6180 O.2   321  HIS321     -0.2867
    176  CB       168.7340  146.4970  189.7190 C.3   321  HIS321      0.0745
    177  CG       169.5980  147.7000  189.9260 C.ar  321  HIS321      0.0817
    178  ND1      170.9190  147.5970  190.3050 N.ar  321  HIS321     -0.2268
    179  CD2      169.3510  149.0310  189.7630 C.ar  321  HIS321      0.1154
    180  CE1      171.4400  148.8180  190.3920 C.ar  321  HIS321      0.1986
    181  NE2      170.4980  149.7020  190.0850 N.ar  321  HIS321     -0.2212
    182  N        163.2840  146.9050  187.1360 N.3   324  ALA324     -0.1231
    183  CA       163.6110  147.6270  185.9190 C.3   324  ALA324      0.1694
    184  C        164.0530  146.6770  184.8030 C.2   324  ALA324      0.2592
    185  O        163.6870  146.8570  183.6420 O.2   324  ALA324     -0.2718
    186  CB       164.7010  148.6800  186.1380 C.3   324  ALA324      0.0304
    187  N        164.8450  145.6730  185.1520 N.am  325  SER325     -0.1952
    188  CA       165.2930  144.6870  184.1330 C.3   325  SER325      0.1924
    189  C        164.1190  143.9310  183.4480 C.2   325  SER325      0.2314
    190  O        164.1740  143.6140  182.2580 O.2   325  SER325     -0.2863
    191  CB       166.3030  143.6810  184.7210 C.3   325  SER325      0.2116
    192  OG       165.6410  142.6660  185.4940 O.3   325  SER325     -0.2180
    193  N        162.0850  146.6290  181.1070 N.3   328  ILE328     -0.1245
    194  CA       162.7210  147.1090  179.8480 C.3   328  ILE328      0.1561
    195  C        162.7410  146.0360  178.7520 C.2   328  ILE328      0.2260
    196  O        163.1300  146.3160  177.5840 O.2   328  ILE328     -0.2867
    197  CB       164.1300  147.6950  180.0540 C.3   328  ILE328      0.0252
    198  CG1      165.0860  146.6400  180.5420 C.3   328  ILE328      0.0019
    199  CG2      164.0270  148.8660  181.0320 C.3   328  ILE328      0.0019
    200  CD1      166.4680  147.1180  180.7770 C.3   328  ILE328      0.0001
@<TRIPOS>BOND
     1     9    10    1
     2   136   135    2
     3    10    11    1
     4     1     2    1
     5   127   126    2
     6   126   125    1
     7    11    12    2
     8   135   134    1
     9    13    14    1
    10   128   125    1
    11   128   129    1
    12    14    15    1
    13    14    17    1
    14    15    16    2
    15   133   134    1
    16     2     5    1
    17     2     3    1
    18   125   124    1
    19   134   137    1
    20   137   139    1
    21   137   138    1
    22     5     6    1
    23   129   130    1
    24     3     4    2
    25    17    18    1
    26   124   118   am
    27    83    82    1
    28     7     6    2
    29   131   130    2
    30   123   121   am
    31   141   142    1
    32     6     8   am
    33   118   119    2
    34   118   117    1
    35   130   132   am
    36   138   140    1
    37   146   145    1
    38    18    19    1
    39   196   195    2
    40    82    84    1
    41    82    81    2
    42   147   145    1
    43   117   120    1
    44   117   116    1
    45   120   121    1
    46   121   122    2
    47   145   142    1
    48   142   143    1
    49   110   109    2
    50    19    20    1
    51    23    21    1
    52    81    80    1
    53    80    79    1
    54   195   194    1
    55   143   144    2
    56   116   109   am
    57   109   108    1
    58    20    21    2
    59    21    22    1
    60   194   197    1
    61   194   193    1
    62   197   198    1
    63   197   199    1
    64    79    78    1
    65   198   200    1
    66   114   113    2
    67   108   111    1
    68   108   107    1
    69    78    75    1
    70   111   112    1
    71   148   149    1
    72   105   104   ar
    73   107   101   am
    74   113   112    1
    75   113   115   am
    76    74    75    1
    77    74    72   am
    78    75    76    1
    79   190   189    2
    80   106   104   ar
    81    44    42   ar
    82   104   103    1
    83   102   101    2
    84   101   100    1
    85   149   150    1
    86    71    72    1
    87    71    70    1
    88   156   153    1
    89    72    73    2
    90   152   150   am
    91   152   153    1
    92    76    77    2
    93    42    43   ar
    94    42    41    1
    95   189   188    1
    96    64    63    2
    97   150   151    2
    98    35    33   am
    99   185   184    2
   100    41    40    1
   101   153   154    1
   102   100   103    1
   103   100    99    1
   104    70    63   am
   105   188   191    1
   106   188   187    1
   107    63    62    1
   108    33    34    2
   109    33    32    1
   110    53    51   ar
   111   191   192    1
   112   184   187   am
   113   184   183    1
   114    45    46    1
   115   154   157   am
   116   154   155    2
   117    40    37    1
   118    97    96    1
   119   157   158    1
   120    38    39    2
   121    38    37    1
   122    62    65    1
   123    62    61    1
   124    95    94    2
   125    32    29    1
   126    51    50    1
   127    51    52   ar
   128    65    66    1
   129    50    49    1
   130   183   186    1
   131   183   182    1
   132    37    36    1
   133    96    98    1
   134    96    93    1
   135    36    30   am
   136    46    49    1
   137    46    47    1
   138    94    93    1
   139    61    56   am
   140   158   159    1
   141    68    67    2
   142    30    29    1
   143    30    31    2
   144    66    67    1
   145    29    28    1
   146    57    56    2
   147    67    69   am
   148    93    92    1
   149    47    48    2
   150    56    55    1
   151    59    58    1
   152   159   160    2
   153   175   174    2
   154    28    26   am
   155    58    55    1
   156    58    60    1
   157    55    54    1
   158   174   173    1
   159   161   162    1
   160    26    27    2
   161    26    25    1
   162   165   162    1
   163   165   166    1
   164   173   176    1
   165   173   172    1
   166   176   177    1
   167   179   177   ar
   168   179   181   ar
   169    85    86    1
   170   162   163    1
   171    90    89    1
   172   177   178   ar
   173    25    24    1
   174   181   180   ar
   175   178   180   ar
   176   166   167   ar
   177   166   168   ar
   178    86    89    1
   179    86    87    1
   180   167   169   ar
   181    89    91    1
   182   163   164    2
   183   168   170   ar
   184    87    88    2
   185   169   171   ar
   186   170   171   ar
