@<TRIPOS>MOLECULE
tmp/5kb6A00.pdb
 134 123 0 0 0
SMALL
GASTEIGER

@<TRIPOS>ATOM
      1  N        113.0760   16.9990  185.4380 N.3   221  ASN221     -0.1240
      2  CA       113.3900   18.3070  184.8690 C.3   221  ASN221      0.1653
      3  C        113.3900   19.3650  185.9640 C.2   221  ASN221      0.2266
      4  O        113.1150   19.0970  187.1280 O.2   221  ASN221     -0.2867
      5  CB       112.4670   18.6390  183.6970 C.3   221  ASN221      0.1155
      6  CG       111.0160   18.7820  184.1120 C.2   221  ASN221      0.2627
      7  OD1      110.7140   19.1280  185.2400 O.2   221  ASN221     -0.2716
      8  ND2      110.1210   18.5010  183.1990 N.am  221  ASN221     -0.0877
      9  N        117.1500   17.5830  183.6740 N.3   263  THR263     -0.1203
     10  CA       117.2560   18.3730  182.4650 C.3   263  THR263      0.1994
     11  C        116.6870   19.7700  182.7290 C.2   263  THR263      0.2618
     12  O        115.8770   19.9790  183.6430 O.2   263  THR263     -0.2717
     13  CB       116.5360   17.7060  181.2990 C.3   263  THR263      0.1784
     14  OG1      115.1690   17.5210  181.6510 O.3   263  THR263     -0.2211
     15  CG2      117.1760   16.3640  180.9640 C.3   263  THR263      0.0376
     16  N        117.1540   20.7250  181.9200 N.am  264  GLN264     -0.1965
     17  CA       116.7510   22.1270  182.0740 C.3   264  GLN264      0.1733
     18  C        116.4170   22.7580  180.7230 C.2   264  GLN264      0.2617
     19  O        116.7550   23.9250  180.4600 O.2   264  GLN264     -0.2715
     20  CB       117.8460   22.9440  182.7620 C.3   264  GLN264      0.0408
     21  CG       118.2360   22.4680  184.1620 C.3   264  GLN264      0.0908
     22  CD       119.0970   23.5020  184.8440 C.2   264  GLN264      0.2608
     23  OE1      118.6080   24.3240  185.6240 O.2   264  GLN264     -0.2717
     24  NE2      120.3640   23.5200  184.4910 N.am  264  GLN264     -0.0878
     25  N        115.7630   22.0020  179.8580 N.am  265  GLY265     -0.1940
     26  CA       115.3750   22.5270  178.5610 C.3   265  GLY265      0.2014
     27  C        116.6080   22.7770  177.7110 C.2   265  GLY265      0.2638
     28  O        117.3520   21.8520  177.4420 O.2   265  GLY265     -0.2714
     29  N        116.8490   24.0320  177.3340 N.am  266  ARG266     -0.1977
     30  CA       118.0680   24.3800  176.6150 C.3   266  ARG266      0.1597
     31  C        119.2570   24.6000  177.5500 C.2   266  ARG266      0.2287
     32  O        120.4090   24.6830  177.0640 O.2   266  ARG266     -0.2864
     33  CB       117.8300   25.6370  175.7720 C.3   266  ARG266      0.0334
     34  CG       117.8840   26.9270  176.5460 C.3   266  ARG266      0.0492
     35  CD       117.4950   28.1270  175.7170 C.3   266  ARG266      0.2205
     36  NE       118.3350   28.2500  174.5170 N.pl3 266  ARG266     -0.0865
     37  CZ       118.1920   29.1900  173.6010 C.cat 266  ARG266      0.5346
     38  NH1      117.2780   30.1450  173.7460 N.pl3 266  ARG266      0.1354
     39  NH2      118.9430   29.1740  172.5150 N.pl3 266  ARG266      0.1354
     40  N        122.1070   19.9690  181.3900 N.3   269  THR269     -0.1218
     41  CA       121.6270   18.8160  182.1480 C.3   269  THR269      0.1862
     42  C        122.5190   18.6380  183.3670 C.2   269  THR269      0.2287
     43  O        123.7510   18.6130  183.2510 O.2   269  THR269     -0.2866
     44  CB       121.6410   17.5650  181.2640 C.3   269  THR269      0.1770
     45  OG1      120.7590   17.7650  180.1490 O.3   269  THR269     -0.2211
     46  CG2      121.2020   16.3360  182.0230 C.3   269  THR269      0.0375
     47  N        123.7860   21.4090  176.5980 N.3   282  VAL282     -0.1245
     48  CA       122.9420   20.9950  175.4780 C.3   282  VAL282      0.1561
     49  C        123.5060   21.7190  174.2580 C.2   282  VAL282      0.2260
     50  O        123.4280   22.9440  174.1340 O.2   282  VAL282     -0.2867
     51  CB       121.4760   21.3910  175.7060 C.3   282  VAL282      0.0252
     52  CG1      120.6330   21.1130  174.4720 C.3   282  VAL282      0.0019
     53  CG2      120.9280   20.6060  176.8960 C.3   282  VAL282      0.0019
     54  N        122.6560   21.3400  171.0680 N.3   284  ASP284     -0.1239
     55  CA       121.6140   21.7120  170.0970 C.3   284  ASP284      0.1674
     56  C        120.8640   22.9420  170.5610 C.2   284  ASP284      0.2266
     57  O        120.0050   22.8400  171.4230 O.2   284  ASP284     -0.2867
     58  CB       120.6590   20.5480  169.9300 C.3   284  ASP284      0.1410
     59  CG       119.4850   20.8760  169.0410 C.2   284  ASP284      0.3668
     60  OD1      119.6440   21.7560  168.1580 O.co2 284  ASP284     -0.2456
     61  OD2      118.4250   20.2470  169.1960 O.co2 284  ASP284     -0.2456
     62  N        116.9610   26.8370  168.1790 N.3   287  GLN287     -0.1245
     63  CA       115.6150   26.9010  168.7110 C.3   287  GLN287      0.1566
     64  C        114.5790   26.9660  167.6170 C.2   287  GLN287      0.2260
     65  O        113.4610   26.4380  167.7690 O.2   287  GLN287     -0.2867
     66  CB       115.4500   28.1330  169.6160 C.3   287  GLN287      0.0367
     67  CG       116.3840   28.1690  170.8100 C.3   287  GLN287      0.0905
     68  CD       116.1400   27.0300  171.7730 C.2   287  GLN287      0.2608
     69  OE1      115.2500   27.1140  172.6420 O.2   287  GLN287     -0.2717
     70  NE2      116.9070   25.9860  171.6660 N.am  287  GLN287     -0.0878
     71  N        113.0830   23.7480  166.3420 N.3   290  ILE290     -0.1245
     72  CA       112.2760   22.9580  167.2580 C.3   290  ILE290      0.1561
     73  C        110.8300   23.1380  166.9110 C.2   290  ILE290      0.2260
     74  O        110.2980   24.2390  167.0200 O.2   290  ILE290     -0.2867
     75  CB       112.4720   23.3890  168.7110 C.3   290  ILE290      0.0252
     76  CG1      113.9100   23.1410  169.1000 C.3   290  ILE290      0.0019
     77  CG2      111.5080   22.6360  169.6310 C.3   290  ILE290      0.0019
     78  CD1      114.2850   23.7090  170.4580 C.3   290  ILE290      0.0001
     79  N        108.0930   20.2120  171.5660 N.3   293  THR293     -0.1218
     80  CA       108.8810   19.6710  172.6740 C.3   293  THR293      0.1862
     81  C        108.2250   18.4730  173.3630 C.2   293  THR293      0.2287
     82  O        108.8270   17.8980  174.2630 O.2   293  THR293     -0.2866
     83  CB       109.2530   20.7380  173.7040 C.3   293  THR293      0.1770
     84  OG1      108.0600   21.3210  174.2220 O.3   293  THR293     -0.2211
     85  CG2      110.1230   21.8110  173.0730 C.3   293  THR293      0.0375
     86  N        110.2080   15.2080  174.5940 N.3   296  ALA296     -0.1231
     87  CA       111.6690   15.4620  174.6460 C.3   296  ALA296      0.1694
     88  C        112.3080   14.7490  175.8250 C.2   296  ALA296      0.2592
     89  O        113.3610   14.1310  175.7020 O.2   296  ALA296     -0.2718
     90  CB       111.9310   16.9480  174.7450 C.3   296  ALA296      0.0304
     91  N        111.6440   14.8170  176.9710 N.am  297  GLY297     -0.1957
     92  CA       112.1130   14.1710  178.1770 C.3   297  GLY297      0.1869
     93  C        112.0670   12.6710  178.0370 C.2   297  GLY297      0.2309
     94  O        113.0060   11.9590  178.4350 O.2   297  GLY297     -0.2863
     95  N        114.9920   11.7890  175.8430 N.3   300  PHE300     -0.1241
     96  CA       116.2300   11.8920  176.5870 C.3   300  PHE300      0.1605
     97  C        116.4580   10.6300  177.4270 C.2   300  PHE300      0.2264
     98  O        117.5410   10.0310  177.4140 O.2   300  PHE300     -0.2867
     99  CB       116.2150   13.1400  177.4730 C.3   300  PHE300      0.0534
    100  CG       117.4070   13.1930  178.3740 C.ar  300  PHE300     -0.0203
    101  CD1      118.6390   13.6670  177.9380 C.ar  300  PHE300     -0.0042
    102  CD2      117.3180   12.7230  179.6740 C.ar  300  PHE300     -0.0042
    103  CE1      119.7490   13.6320  178.7540 C.ar  300  PHE300     -0.0003
    104  CE2      118.4250   12.7010  180.5050 C.ar  300  PHE300     -0.0003
    105  CZ       119.6430   13.1730  180.0400 C.ar  300  PHE300     -0.0000
    106  N        120.8030   13.3860  174.8460 N.3   322  HIS322     -0.1241
    107  CA       120.7080   14.6690  174.1430 C.3   322  HIS322      0.1621
    108  C        120.4650   14.4650  172.6440 C.2   322  HIS322      0.2264
    109  O        119.6800   15.1870  172.0520 O.2   322  HIS322     -0.2867
    110  CB       121.9870   15.4710  174.3570 C.3   322  HIS322      0.0745
    111  CG       122.0920   16.0910  175.7080 C.ar  322  HIS322      0.0817
    112  ND1      123.2400   16.7170  176.1220 N.ar  322  HIS322     -0.2268
    113  CD2      121.1950   16.2890  176.6950 C.ar  322  HIS322      0.1154
    114  CE1      123.0650   17.2110  177.3320 C.ar  322  HIS322      0.1986
    115  NE2      121.8230   16.9780  177.6920 N.ar  322  HIS322     -0.2212
    116  N        116.7280   13.3870  172.1150 N.3   325  ALA325     -0.1231
    117  CA       115.8540   14.5290  172.2770 C.3   325  ALA325      0.1694
    118  C        115.9140   15.4500  171.0640 C.2   325  ALA325      0.2592
    119  O        114.8790   15.9680  170.6150 O.2   325  ALA325     -0.2718
    120  CB       116.1440   15.2900  173.5580 C.3   325  ALA325      0.0304
    121  N        117.1270   15.6790  170.5410 N.am  326  SER326     -0.1952
    122  CA       117.2640   16.5730  169.4020 C.3   326  SER326      0.1924
    123  C        116.5360   16.0840  168.1700 C.2   326  SER326      0.2314
    124  O        116.0400   16.8920  167.3860 O.2   326  SER326     -0.2863
    125  CB       118.7300   16.8210  169.1000 C.3   326  SER326      0.2116
    126  OG       119.3490   15.7580  168.4140 O.3   326  SER326     -0.2180
    127  N        112.4020   16.3860  168.8950 N.3   329  ILE329     -0.1245
    128  CA       111.7980   17.7270  168.9550 C.3   329  ILE329      0.1561
    129  C        111.7150   18.4110  167.5980 C.2   329  ILE329      0.2260
    130  O        111.1220   19.4690  167.4840 O.2   329  ILE329     -0.2867
    131  CB       112.4770   18.6380  169.9860 C.3   329  ILE329      0.0252
    132  CG1      113.9050   19.0410  169.5640 C.3   329  ILE329      0.0019
    133  CG2      112.3790   18.0210  171.3840 C.3   329  ILE329      0.0019
    134  CD1      114.6450   19.8090  170.6290 C.3   329  ILE329      0.0001
@<TRIPOS>BOND
     1    71    72    1
     2    73    74    2
     3    73    72    1
     4    72    75    1
     5   124   123    2
     6   130   129    2
     7   129   128    1
     8    64    65    2
     9    64    63    1
    10    60    59   ar
    11   123   122    1
    12    62    63    1
    13   126   125    1
    14    75    76    1
    15    75    77    1
    16    63    66    1
    17   127   128    1
    18   128   131    1
    19    59    61   ar
    20    59    58    1
    21    76    78    1
    22   125   122    1
    23   122   121    1
    24   132   131    1
    25   132   134    1
    26    66    67    1
    27    58    55    1
    28   131   133    1
    29    55    56    1
    30    55    54    1
    31   121   118   am
    32    56    57    2
    33   119   118    2
    34    67    68    1
    35   118   117    1
    36    79    80    1
    37    70    68   am
    38    68    69    2
    39   109   108    2
    40   116   117    1
    41   117   120    1
    42    39    37    1
    43   108   107    1
    44    80    81    1
    45    80    83    1
    46    85    83    1
    47    81    82    2
    48    37    38    1
    49    37    36    2
    50    83    84    1
    51    50    49    2
    52   107   110    1
    53   107   106    1
    54    49    48    1
    55   110   111    1
    56    52    51    1
    57    36    35    1
    58    86    87    1
    59    87    90    1
    60    87    88    1
    61    48    51    1
    62    48    47    1
    63    89    88    2
    64    51    53    1
    65   111   112   ar
    66   111   113   ar
    67    35    34    1
    68    33    34    1
    69    33    30    1
    70    88    91   am
    71    95    96    1
    72   112   114   ar
    73    96    97    1
    74    96    99    1
    75    30    29    1
    76    30    31    1
    77   113   115   ar
    78    91    92    1
    79    32    31    2
    80   114   115   ar
    81    29    27   am
    82    98    97    2
    83    28    27    2
    84    99   100    1
    85    27    26    1
    86   101   100   ar
    87   101   103   ar
    88    93    92    1
    89    93    94    2
    90   100   102   ar
    91    26    25    1
    92   103   105   ar
    93   102   104   ar
    94    25    18   am
    95   105   104   ar
    96    45    44    1
    97    19    18    2
    98    18    17    1
    99    15    13    1
   100    44    46    1
   101    44    41    1
   102    13    14    1
   103    13    10    1
   104    40    41    1
   105    16    17    1
   106    16    11   am
   107    17    20    1
   108    41    42    1
   109    10    11    1
   110    10     9    1
   111    11    12    2
   112    20    21    1
   113     8     6   am
   114    43    42    2
   115     5     6    1
   116     5     2    1
   117     6     7    2
   118    21    22    1
   119    24    22   am
   120    22    23    2
   121     2     1    1
   122     2     3    1
   123     3     4    2
