@<TRIPOS>MOLECULE
tmp/5kbeB00.pdb
 119 118 0 0 0
SMALL
GASTEIGER

@<TRIPOS>ATOM
      1  N         18.4510   -2.2510   25.0970 N.3    86  PHE86      -0.1241
      2  CA        18.9830   -0.9430   24.7670 C.3    86  PHE86       0.1605
      3  C         20.3210   -1.0410   24.0510 C.2    86  PHE86       0.2264
      4  O         20.5390   -0.2920   23.0740 O.2    86  PHE86      -0.2867
      5  CB        19.2160   -0.1310   26.0280 C.3    86  PHE86       0.0534
      6  CG        19.7520    1.2360   25.7600 C.ar   86  PHE86      -0.0203
      7  CD1       18.8750    2.2960   25.4930 C.ar   86  PHE86      -0.0042
      8  CD2       21.1360    1.4610   25.7620 C.ar   86  PHE86      -0.0042
      9  CE1       19.3740    3.5510   25.2100 C.ar   86  PHE86      -0.0003
     10  CE2       21.6530    2.7400   25.4970 C.ar   86  PHE86      -0.0003
     11  CZ        20.7680    3.7830   25.2170 C.ar   86  PHE86      -0.0000
     12  N         21.4160   -0.2770   20.0540 N.3    89  GLY89      -0.1210
     13  CA        21.8270    0.9740   19.4590 C.3    89  GLY89       0.1940
     14  C         23.3370    1.1650   19.4700 C.2    89  GLY89       0.2453
     15  O         23.9410    1.3970   18.4270 O.2    89  GLY89      -0.2732
     16  N         23.9540    1.1010   20.6500 N.am   90  PRO90      -0.2728
     17  CA        25.4120    1.0870   20.6860 C.3    90  PRO90       0.1401
     18  C         26.0190    0.0280   19.7580 C.2    90  PRO90       0.2269
     19  O         27.0300    0.2970   19.0800 O.2    90  PRO90      -0.2865
     20  CB        25.6950    0.7630   22.1350 C.3    90  PRO90       0.0296
     21  CG        24.5990    1.5200   22.8380 C.3    90  PRO90       0.0237
     22  CD        23.3860    1.2130   22.0090 C.3    90  PRO90       0.0939
     23  N         25.7500    0.9570   16.0530 N.3    93  HIS93      -0.1241
     24  CA        26.6500    2.0340   15.7260 C.3    93  HIS93       0.1621
     25  C         27.9990    1.4860   15.3420 C.2    93  HIS93       0.2264
     26  O         28.6990    2.1180   14.5650 O.2    93  HIS93      -0.2867
     27  CB        26.7950    2.9520   16.9310 C.3    93  HIS93       0.0745
     28  CG        26.5160    4.3780   16.6130 C.ar   93  HIS93       0.0817
     29  ND1       26.6050    5.3500   17.5320 N.ar   93  HIS93      -0.2268
     30  CD2       26.1430    4.9870   15.3990 C.ar   93  HIS93       0.1154
     31  CE1       26.2900    6.5330   16.9480 C.ar   93  HIS93       0.1986
     32  NE2       26.0330    6.3030   15.6320 N.ar   93  HIS93      -0.2212
     33  N         31.3880    1.3640   21.0020 N.3   101  VAL101     -0.1245
     34  CA        30.8600    1.8600   22.2710 C.3   101  VAL101      0.1561
     35  C         31.4500    0.9850   23.4010 C.2   101  VAL101      0.2260
     36  O         31.3740   -0.2560   23.3760 O.2   101  VAL101     -0.2867
     37  CB        29.2840    1.9420   22.3190 C.3   101  VAL101      0.0252
     38  CG1       28.8020    2.1830   23.7240 C.3   101  VAL101      0.0019
     39  CG2       28.7290    3.0690   21.4620 C.3   101  VAL101      0.0019
     40  N         29.5720    6.4570   28.3160 N.3   119  PHE119     -0.1241
     41  CA        30.1710    5.5570   27.3130 C.3   119  PHE119      0.1605
     42  C         31.4180    6.1650   26.7940 C.2   119  PHE119      0.2264
     43  O         31.5120    7.3780   26.7210 O.2   119  PHE119     -0.2867
     44  CB        29.2890    5.3360   26.1220 C.3   119  PHE119      0.0534
     45  CG        28.0080    4.6140   26.4210 C.ar  119  PHE119     -0.0203
     46  CD1       27.8280    3.9070   27.5900 C.ar  119  PHE119     -0.0042
     47  CD2       26.9880    4.6070   25.4940 C.ar  119  PHE119     -0.0042
     48  CE1       26.6400    3.2050   27.8280 C.ar  119  PHE119     -0.0003
     49  CE2       25.8070    3.9180   25.7320 C.ar  119  PHE119     -0.0003
     50  CZ        25.6350    3.2150   26.8920 C.ar  119  PHE119     -0.0000
     51  N         33.5950    6.3090   23.4070 N.3   121  TRP121     -0.1241
     52  CA        33.5150    6.1190   21.9700 C.3   121  TRP121      0.1605
     53  C         34.8780    6.0120   21.4020 C.2   121  TRP121      0.2264
     54  O         35.6830    6.9530   21.4700 O.2   121  TRP121     -0.2867
     55  CB        32.8690    7.3500   21.3720 C.3   121  TRP121      0.0550
     56  CG        31.3520    7.3210   21.2620 C.ar  121  TRP121      0.0003
     57  CD1       30.4870    6.2210   21.3340 C.ar  121  TRP121      0.0946
     58  CD2       30.4850    8.4700   20.9270 C.ar  121  TRP121      0.0152
     59  NE1       29.1960    6.6070   21.0770 N.ar  121  TRP121     -0.2442
     60  CE2       29.1280    7.9500   20.8410 C.ar  121  TRP121      0.0810
     61  CE3       30.7040    9.8060   20.6900 C.ar  121  TRP121      0.0012
     62  CZ2       28.0470    8.7780   20.5560 C.ar  121  TRP121      0.0191
     63  CZ3       29.6060   10.6280   20.4340 C.ar  121  TRP121      0.0001
     64  CH2       28.3180   10.1200   20.3550 C.ar  121  TRP121      0.0015
     65  N         22.5390   10.5690   16.8030 N.3   148  TYR148     -0.1227
     66  CA        22.1470    9.1590   16.8650 C.3   148  TYR148      0.1736
     67  C         21.8910    8.6760   18.2880 C.2   148  TYR148      0.2595
     68  O         20.8740    7.9970   18.5640 O.2   148  TYR148     -0.2718
     69  CB        23.2140    8.3000   16.2060 C.3   148  TYR148      0.0548
     70  CG        22.8630    6.8430   16.0100 C.ar  148  TYR148     -0.0200
     71  CD1       22.8890    5.9530   17.0880 C.ar  148  TYR148     -0.0009
     72  CD2       22.5710    6.3310   14.7530 C.ar  148  TYR148     -0.0009
     73  CE1       22.5880    4.6210   16.9300 C.ar  148  TYR148      0.0417
     74  CE2       22.2670    4.9910   14.5710 C.ar  148  TYR148      0.0417
     75  CZ        22.2780    4.1370   15.6810 C.ar  148  TYR148      0.1957
     76  OH        21.9950    2.7600   15.5800 O.3   148  TYR148     -0.2866
     77  N         22.7790    9.0400   19.2030 N.am  149  ALA149     -0.1980
     78  CA        22.6910    8.4840   20.5180 C.3   149  ALA149      0.1597
     79  C         21.3810    9.0010   21.1180 C.2   149  ALA149      0.2287
     80  O         20.6890    8.3180   21.8580 O.2   149  ALA149     -0.2864
     81  CB        23.8740    8.9480   21.3560 C.3   149  ALA149      0.0319
     82  N         18.1980    7.5930   19.1550 N.3   152  TYR152     -0.1227
     83  CA        17.9900    6.2060   19.5370 C.3   152  TYR152      0.1736
     84  C         17.5170    6.0640   20.9830 C.2   152  TYR152      0.2596
     85  O         16.6260    5.3250   21.2860 O.2   152  TYR152     -0.2718
     86  CB        19.2490    5.3890   19.3290 C.3   152  TYR152      0.0548
     87  CG        19.0940    4.0130   19.8290 C.ar  152  TYR152     -0.0200
     88  CD1       19.3820    3.7030   21.1610 C.ar  152  TYR152     -0.0009
     89  CD2       18.6270    2.9980   18.9970 C.ar  152  TYR152     -0.0009
     90  CE1       19.2290    2.4060   21.6350 C.ar  152  TYR152      0.0417
     91  CE2       18.4770    1.7030   19.4460 C.ar  152  TYR152      0.0417
     92  CZ        18.7720    1.4200   20.7790 C.ar  152  TYR152      0.1957
     93  OH        18.6300    0.1270   21.2650 O.3   152  TYR152     -0.2866
     94  N         18.1470    6.7840   21.8730 N.am  153  SER153     -0.1952
     95  CA        17.8470    6.6640   23.2770 C.3   153  SER153      0.1924
     96  C         16.4630    7.2450   23.5760 C.2   153  SER153      0.2314
     97  O         15.7610    6.7280   24.4600 O.2   153  SER153     -0.2863
     98  CB        18.9510    7.3400   24.1140 C.3   153  SER153      0.2116
     99  OG        20.2490    6.7790   23.8300 O.3   153  SER153     -0.2180
    100  N         22.4390   13.8500   25.4490 N.3   163  TYR163     -0.1241
    101  CA        23.8000   13.4110   25.6930 C.3   163  TYR163      0.1605
    102  C         24.7070   14.6120   25.6150 C.2   163  TYR163      0.2264
    103  O         24.3700   15.5660   24.9610 O.2   163  TYR163     -0.2867
    104  CB        24.2070   12.4290   24.5960 C.3   163  TYR163      0.0534
    105  CG        23.7740   11.0170   24.8540 C.ar  163  TYR163     -0.0201
    106  CD1       22.4990   10.6010   24.4880 C.ar  163  TYR163     -0.0009
    107  CD2       24.6200   10.0800   25.4870 C.ar  163  TYR163     -0.0009
    108  CE1       22.0420    9.3140   24.7560 C.ar  163  TYR163      0.0417
    109  CE2       24.1700    8.7690   25.7190 C.ar  163  TYR163      0.0417
    110  CZ        22.8790    8.4080   25.3450 C.ar  163  TYR163      0.1957
    111  OH        22.3540    7.1480   25.5510 O.3   163  TYR163     -0.2866
    112  N         30.9660   10.2530   26.3440 N.3   178  ILE178     -0.1245
    113  CA        29.6130   10.7920   26.4730 C.3   178  ILE178      0.1561
    114  C         28.8900   10.3510   27.7460 C.2   178  ILE178      0.2260
    115  O         29.0420    9.2110   28.1910 O.2   178  ILE178     -0.2867
    116  CB        28.7250   10.4030   25.2660 C.3   178  ILE178      0.0252
    117  CG1       28.7090    8.8820   25.0750 C.3   178  ILE178      0.0019
    118  CG2       29.1500   11.1260   23.9870 C.3   178  ILE178      0.0019
    119  CD1       27.7250    8.4010   24.0490 C.3   178  ILE178      0.0001
@<TRIPOS>BOND
     1    26    25    2
     2    74    72   ar
     3    74    75   ar
     4    72    70   ar
     5    25    24    1
     6    30    32   ar
     7    30    28   ar
     8    76    75    1
     9    32    31   ar
    10    75    73   ar
    11    24    23    1
    12    24    27    1
    13    70    69    1
    14    70    71   ar
    15    69    66    1
    16    28    27    1
    17    28    29   ar
    18    65    66    1
    19    66    67    1
    20    73    71   ar
    21    31    29   ar
    22    67    68    2
    23    67    77   am
    24    15    14    2
    25    89    91   ar
    26    89    87   ar
    27    19    18    2
    28    82    83    1
    29    77    78    1
    30    86    83    1
    31    86    87    1
    32    91    92   ar
    33    13    14    1
    34    13    12    1
    35    14    16   am
    36    83    84    1
    37    18    17    1
    38    87    88   ar
    39    64    63   ar
    40    64    62   ar
    41    63    61   ar
    42    78    79    1
    43    78    81    1
    44    62    60   ar
    45    16    17    1
    46    16    22    1
    47    17    20    1
    48    61    58   ar
    49    92    93    1
    50    92    90   ar
    51    60    58   ar
    52    60    59   ar
    53    58    56   ar
    54    84    85    2
    55    84    94   am
    56    33    34    1
    57    59    57   ar
    58    79    80    2
    59    88    90   ar
    60    56    57   ar
    61    56    55    1
    62    55    52    1
    63    53    54    2
    64    53    52    1
    65    39    37    1
    66    94    95    1
    67    52    51    1
    68    22    21    1
    69    20    21    1
    70    34    37    1
    71    34    35    1
    72    37    38    1
    73     4     3    2
    74    95    96    1
    75    95    98    1
    76    36    35    2
    77    96    97    2
    78    99    98    1
    79   118   116    1
    80   119   117    1
    81     3     2    1
    82   106   108   ar
    83   106   105   ar
    84   104   105    1
    85   104   101    1
    86   108   110   ar
    87     2     1    1
    88     2     5    1
    89   105   107   ar
    90   103   102    2
    91   117   116    1
    92     9    11   ar
    93     9     7   ar
    94    11    10   ar
    95   116   113    1
    96   110   111    1
    97   110   109   ar
    98   100   101    1
    99   107   109   ar
   100     7     6   ar
   101    47    49   ar
   102    47    45   ar
   103    10     8   ar
   104   102   101    1
   105    49    50   ar
   106     6     8   ar
   107     6     5    1
   108    44    45    1
   109    44    41    1
   110   112   113    1
   111    45    46   ar
   112   113   114    1
   113    43    42    2
   114    42    41    1
   115    50    48   ar
   116    41    40    1
   117    46    48   ar
   118   114   115    2
