@<TRIPOS>MOLECULE
tmp/5kbfA00.pdb
 156 149 0 0 0
SMALL
GASTEIGER

@<TRIPOS>ATOM
      1  N         90.2490   68.6870  101.5390 N.3    58  ILE58      -0.1245
      2  CA        90.3650   68.6400  100.0850 C.3    58  ILE58       0.1561
      3  C         91.6210   69.3920   99.6860 C.2    58  ILE58       0.2260
      4  O         91.8740   70.4690  100.2290 O.2    58  ILE58      -0.2867
      5  CB        89.1480   69.3120   99.3830 C.3    58  ILE58       0.0252
      6  CG1       87.9230   68.4100   99.4330 C.3    58  ILE58       0.0019
      7  CG2       89.4880   69.6880   97.9410 C.3    58  ILE58       0.0019
      8  CD1       88.2170   67.0090   98.9490 C.3    58  ILE58       0.0001
      9  N         88.3080   77.9380  102.4380 N.3    77  ILE77      -0.1245
     10  CA        88.5390   77.5570  101.0580 C.3    77  ILE77       0.1561
     11  C         89.5170   78.5480  100.4730 C.2    77  ILE77       0.2260
     12  O         89.2840   79.7490  100.5530 O.2    77  ILE77      -0.2867
     13  CB        87.2450   77.5900  100.2190 C.3    77  ILE77       0.0252
     14  CG1       86.1430   76.7580  100.8810 C.3    77  ILE77       0.0019
     15  CG2       87.5370   77.1630   98.7780 C.3    77  ILE77       0.0019
     16  CD1       86.3350   75.2600  100.7600 C.3    77  ILE77       0.0001
     17  N         92.9070   79.3300   97.3660 N.3    79  LYS79      -0.1245
     18  CA        93.7550   78.9970   96.2440 C.3    79  LYS79       0.1561
     19  C         95.1680   79.4540   96.5710 C.2    79  LYS79       0.2260
     20  O         95.3510   80.4510   97.2680 O.2    79  LYS79      -0.2867
     21  CB        93.2390   79.6650   94.9690 C.3    79  LYS79       0.0271
     22  CG        92.9740   78.7060   93.8260 C.3    79  LYS79       0.0035
     23  CD        91.9100   79.2350   92.8770 C.3    79  LYS79       0.0206
     24  CE        91.8010   78.3390   91.6580 C.3    79  LYS79       0.1093
     25  NZ        90.3990   78.1770   91.2010 N.3    79  LYS79      -0.1314
     26  N         89.2460   82.1900   99.2200 N.3    89  LEU89      -0.1231
     27  CA        88.0190   82.4010   98.4680 C.3    89  LEU89       0.1693
     28  C         86.8730   82.6400   99.4460 C.2    89  LEU89       0.2592
     29  O         86.1130   83.5910   99.2880 O.2    89  LEU89      -0.2718
     30  CB        87.7300   81.2060   97.5530 C.3    89  LEU89       0.0284
     31  CG        88.8340   80.9120   96.5350 C.3    89  LEU89       0.0019
     32  CD1       88.5060   79.7270   95.6540 C.3    89  LEU89       0.0001
     33  CD2       89.1080   82.1300   95.7010 C.3    89  LEU89       0.0001
     34  N         86.7750   81.8040  100.4780 N.am   90  THR90      -0.1953
     35  CA        85.6900   81.9500  101.4380 C.3    90  THR90       0.1897
     36  C         85.8730   81.1360  102.7240 C.2    90  THR90       0.2313
     37  O         86.7130   80.2370  102.7990 O.2    90  THR90      -0.2863
     38  CB        84.3460   81.5580  100.7820 C.3    90  THR90       0.1794
     39  OG1       83.2790   81.7020  101.7280 O.3    90  THR90      -0.2208
     40  CG2       84.3980   80.1260  100.2700 C.3    90  THR90       0.0378
     41  N         83.6320   78.7290  105.2630 N.3    92  LEU92      -0.1245
     42  CA        82.3650   77.9970  105.3170 C.3    92  LEU92       0.1561
     43  C         82.0800   77.5010  106.7310 C.2    92  LEU92       0.2260
     44  O         83.0080   77.2000  107.4920 O.2    92  LEU92      -0.2867
     45  CB        82.3820   76.8240  104.3280 C.3    92  LEU92       0.0270
     46  CG        82.5600   77.2200  102.8550 C.3    92  LEU92       0.0019
     47  CD1       82.6210   75.9830  101.9610 C.3    92  LEU92       0.0001
     48  CD2       81.4540   78.1860  102.3890 C.3    92  LEU92       0.0001
     49  N         80.3830   71.9000  100.2240 N.3    98  PHE98      -0.1227
     50  CA        81.5170   72.1260   99.3370 C.3    98  PHE98       0.1736
     51  C         81.9910   70.8310   98.7140 C.2    98  PHE98       0.2596
     52  O         81.6860   69.7430   99.2210 O.2    98  PHE98      -0.2718
     53  CB        82.6590   72.8340  100.0880 C.3    98  PHE98       0.0547
     54  CG        83.2700   72.0190  101.2100 C.ar   98  PHE98      -0.0202
     55  CD1       84.4350   71.2880  101.0080 C.ar   98  PHE98      -0.0042
     56  CD2       82.6940   72.0230  102.4750 C.ar   98  PHE98      -0.0042
     57  CE1       85.0270   70.5330  102.0720 C.ar   98  PHE98      -0.0003
     58  CE2       83.2490   71.2870  103.5240 C.ar   98  PHE98      -0.0003
     59  CZ        84.4250   70.5400  103.3200 C.ar   98  PHE98      -0.0000
     60  N         82.7330   70.9480   97.6110 N.am   99  GLY99      -0.1942
     61  CA        83.2550   69.7790   96.9230 C.3    99  GLY99       0.2014
     62  C         82.3210   69.2690   95.8330 C.2    99  GLY99       0.2639
     63  O         82.5110   68.1650   95.3240 O.2    99  GLY99      -0.2714
     64  N         81.3060   70.0560   95.4710 N.am  100  GLU100     -0.1963
     65  CA        80.3420   69.6260   94.4670 C.3   100  GLU100      0.1733
     66  C         80.8740   69.7440   93.0270 C.2   100  GLU100      0.2616
     67  O         80.4060   69.0460   92.1200 O.2   100  GLU100     -0.2715
     68  CB        79.0290   70.4350   94.6130 C.3   100  GLU100      0.0429
     69  CG        79.0570   71.8600   94.0210 C.3   100  GLU100      0.1163
     70  CD        79.8600   72.8340   94.8740 C.2   100  GLU100      0.3649
     71  OE1       80.4250   72.4240   95.9230 O.co2 100  GLU100     -0.2457
     72  OE2       79.9210   74.0240   94.5070 O.co2 100  GLU100     -0.2457
     73  N         81.8410   70.6300   92.8040 N.am  101  LEU101     -0.1963
     74  CA        82.2990   70.9190   91.4420 C.3   101  LEU101      0.1728
     75  C         82.9580   69.7220   90.7620 C.2   101  LEU101      0.2616
     76  O         82.7620   69.5030   89.5660 O.2   101  LEU101     -0.2715
     77  CB        83.2800   72.0970   91.4310 C.3   101  LEU101      0.0311
     78  CG        82.7410   73.4930   91.7450 C.3   101  LEU101      0.0022
     79  CD1       83.8610   74.5190   91.5870 C.3   101  LEU101      0.0001
     80  CD2       81.5570   73.8430   90.8340 C.3   101  LEU101      0.0001
     81  N         83.7460   68.9600   91.5210 N.am  102  ALA102     -0.1977
     82  CA        84.3970   67.7790   90.9680 C.3   102  ALA102      0.1597
     83  C         83.3570   66.7450   90.5550 C.2   102  ALA102      0.2287
     84  O         83.5240   66.0540   89.5570 O.2   102  ALA102     -0.2864
     85  CB        85.3730   67.1770   91.9770 C.3   102  ALA102      0.0319
     86  N         89.4320   68.4530   88.4110 N.3   108  LYS108     -0.1231
     87  CA        90.3290   68.5920   89.5580 C.3   108  LYS108      0.1693
     88  C         89.7380   69.5550   90.5910 C.2   108  LYS108      0.2592
     89  O         88.9730   70.4610   90.2420 O.2   108  LYS108     -0.2718
     90  CB        91.7110   69.0770   89.0970 C.3   108  LYS108      0.0285
     91  CG        92.4150   68.1480   88.1330 C.3   108  LYS108      0.0035
     92  CD        92.6350   66.7870   88.7610 C.3   108  LYS108      0.0206
     93  CE        93.6600   65.9850   87.9790 C.3   108  LYS108      0.1093
     94  NZ        93.3010   65.9750   86.5340 N.3   108  LYS108     -0.1314
     95  N         90.0550   69.3480   91.8650 N.am  109  ARG109     -0.1966
     96  CA        89.5430   70.2480   92.9040 C.3   109  ARG109      0.1729
     97  C         90.0230   71.6810   92.6650 C.2   109  ARG109      0.2616
     98  O         91.2230   71.9420   92.5230 O.2   109  ARG109     -0.2715
     99  CB        89.9680   69.7630   94.2870 C.3   109  ARG109      0.0348
    100  CG        89.4710   68.3670   94.6310 C.3   109  ARG109      0.0492
    101  CD        87.9500   68.3360   94.8770 C.3   109  ARG109      0.2205
    102  NE        87.5920   67.1950   95.7220 N.pl3 109  ARG109     -0.0865
    103  CZ        86.3500   66.8780   96.0700 C.cat 109  ARG109      0.5346
    104  NH1       85.3280   67.5950   95.6200 N.pl3 109  ARG109      0.1354
    105  NH2       86.1300   65.8260   96.8510 N.pl3 109  ARG109      0.1354
    106  N         89.0770   72.6080   92.6140 N.am  110  ALA110     -0.1963
    107  CA        89.3800   73.9750   92.1920 C.3   110  ALA110      0.1728
    108  C         90.0940   74.7490   93.2980 C.2   110  ALA110      0.2616
    109  O         90.7050   75.7810   93.0410 O.2   110  ALA110     -0.2715
    110  CB        88.1030   74.6910   91.7750 C.3   110  ALA110      0.0334
    111  N         90.0150   74.2390   94.5280 N.am  111  ALA111     -0.1963
    112  CA        90.6680   74.8810   95.6630 C.3   111  ALA111      0.1728
    113  C         90.9870   73.8900   96.7950 C.2   111  ALA111      0.2617
    114  O         90.6200   72.7150   96.7430 O.2   111  ALA111     -0.2715
    115  CB        89.8140   76.0050   96.2010 C.3   111  ALA111      0.0334
    116  N         91.6940   74.3920   97.7990 N.am  112  THR112     -0.1937
    117  CA        91.9730   73.6200   98.9950 C.3   112  THR112      0.2028
    118  C         90.9700   73.9880  100.0830 C.2   112  THR112      0.2642
    119  O         90.6290   75.1560  100.2830 O.2   112  THR112     -0.2714
    120  CB        93.4100   73.8540   99.5050 C.3   112  THR112      0.1808
    121  OG1       94.3330   73.4190   98.5040 O.3   112  THR112     -0.2208
    122  CG2       93.6480   73.0520  100.8020 C.3   112  THR112      0.0379
    123  N         90.4780   72.9740  100.7690 N.am  113  ALA113     -0.1977
    124  CA        89.5870   73.1770  101.8960 C.3   113  ALA113      0.1597
    125  C         90.3010   72.7180  103.1760 C.2   113  ALA113      0.2287
    126  O         90.7470   71.5800  103.2580 O.2   113  ALA113     -0.2864
    127  CB        88.2980   72.4190  101.6830 C.3   113  ALA113      0.0319
    128  N         81.6310   86.6530   91.1130 N.3   158  ASP158     -0.1239
    129  CA        82.3910   85.4380   90.8540 C.3   158  ASP158      0.1674
    130  C         81.5190   84.4650   90.0520 C.2   158  ASP158      0.2266
    131  O         80.3390   84.2740   90.3720 O.2   158  ASP158     -0.2867
    132  CB        82.8400   84.8180   92.1900 C.3   158  ASP158      0.1410
    133  CG        83.7900   83.6380   92.0210 C.2   158  ASP158      0.3668
    134  OD1       84.8110   83.6050   92.7380 O.co2 158  ASP158     -0.2456
    135  OD2       83.5180   82.7280   91.2090 O.co2 158  ASP158     -0.2456
    136  N         81.6270   81.3020   90.1020 N.3   160  TYR160     -0.1227
    137  CA        81.1940   80.2720   91.0420 C.3   160  TYR160      0.1736
    138  C         79.9310   80.7150   91.7620 C.2   160  TYR160      0.2595
    139  O         78.9420   79.9820   91.8320 O.2   160  TYR160     -0.2718
    140  CB        82.3020   79.9640   92.0440 C.3   160  TYR160      0.0548
    141  CG        81.8960   78.9580   93.0750 C.ar  160  TYR160     -0.0200
    142  CD1       81.8050   77.6160   92.7510 C.ar  160  TYR160     -0.0009
    143  CD2       81.5900   79.3470   94.3720 C.ar  160  TYR160     -0.0009
    144  CE1       81.4220   76.6710   93.6930 C.ar  160  TYR160      0.0417
    145  CE2       81.2120   78.4020   95.3400 C.ar  160  TYR160      0.0417
    146  CZ        81.1290   77.0690   94.9890 C.ar  160  TYR160      0.1957
    147  OH        80.7540   76.1240   95.9240 O.3   160  TYR160     -0.2866
    148  N         79.9470   81.9320   92.2810 N.am  161  GLU161     -0.1979
    149  CA        78.7610   82.4630   92.9340 C.3   161  GLU161      0.1602
    150  C         77.5740   82.6150   91.9680 C.2   161  GLU161      0.2287
    151  O         76.4170   82.4340   92.3710 O.2   161  GLU161     -0.2864
    152  CB        79.0900   83.8030   93.6020 C.3   161  GLU161      0.0415
    153  CG        80.0680   83.6780   94.7580 C.3   161  GLU161      0.1163
    154  CD        79.5710   82.7170   95.8350 C.2   161  GLU161      0.3649
    155  OE1       78.3580   82.7380   96.1460 O.co2 161  GLU161     -0.2457
    156  OE2       80.3890   81.9280   96.3630 O.co2 161  GLU161     -0.2457
@<TRIPOS>BOND
     1    94    93    1
     2    93    92    1
     3    91    92    1
     4    91    90    1
     5    86    87    1
     6    90    87    1
     7    84    83    2
     8    87    88    1
     9    76    75    2
    10   130   131    2
    11   130   129    1
    12   136   137    1
    13    89    88    2
    14    83    82    1
    15    88    95   am
    16    75    74    1
    17    75    81   am
    18    80    78    1
    19   129   128    1
    20   129   132    1
    21    82    81    1
    22    82    85    1
    23   137   138    1
    24   137   140    1
    25    25    24    1
    26   135   133   ar
    27    77    74    1
    28    77    78    1
    29    74    73    1
    30    79    78    1
    31    24    23    1
    32   138   139    2
    33   138   148   am
    34   110   107    1
    35    95    96    1
    36   150   151    2
    37   150   149    1
    38   133   132    1
    39   133   134   ar
    40   140   141    1
    41    67    66    2
    42   107   106    1
    43   107   108    1
    44   148   149    1
    45    98    97    2
    46   106    97   am
    47    97    96    1
    48   142   141   ar
    49   142   144   ar
    50    73    66   am
    51    23    22    1
    52    96    99    1
    53   149   152    1
    54    66    65    1
    55   109   108    2
    56   141   143   ar
    57   108   111   am
    58   152   153    1
    59   144   146   ar
    60    22    21    1
    61    69    68    1
    62    69    70    1
    63    99   100    1
    64   143   145   ar
    65    65    68    1
    66    65    64    1
    67    72    70   ar
    68   111   112    1
    69   100   101    1
    70   153   154    1
    71    70    71   ar
    72   101   102    1
    73    21    18    1
    74   146   145   ar
    75   146   147    1
    76    63    62    2
    77    64    62   am
    78   104   103    1
    79    32    31    1
    80   112   115    1
    81   112   113    1
    82    33    31    1
    83   102   103    2
    84    62    61    1
    85   154   155   ar
    86   154   156   ar
    87   103   105    1
    88    18    19    1
    89    18    17    1
    90    31    30    1
    91    19    20    2
    92   114   113    2
    93   113   116   am
    94    61    60    1
    95    30    27    1
    96    60    51   am
    97   116   117    1
    98     7     5    1
    99    27    26    1
   100    27    28    1
   101   121   120    1
   102    51    52    2
   103    51    50    1
   104    15    13    1
   105     8     6    1
   106   117   120    1
   107   117   118    1
   108    29    28    2
   109    50    53    1
   110    50    49    1
   111     5     6    1
   112     5     2    1
   113    28    34   am
   114   120   122    1
   115     3     2    1
   116     3     4    2
   117   118   119    2
   118   118   123   am
   119     2     1    1
   120    53    54    1
   121    13    14    1
   122    13    10    1
   123    40    38    1
   124    11    12    2
   125    11    10    1
   126    34    35    1
   127    16    14    1
   128   123   124    1
   129    38    35    1
   130    38    39    1
   131    55    54   ar
   132    55    57   ar
   133    10     9    1
   134    54    56   ar
   135    35    36    1
   136   127   124    1
   137   124   125    1
   138    47    46    1
   139    57    59   ar
   140    48    46    1
   141    56    58   ar
   142    36    37    2
   143    46    45    1
   144   125   126    2
   145    59    58   ar
   146    45    42    1
   147    41    42    1
   148    42    43    1
   149    43    44    2
