@<TRIPOS>MOLECULE
tmp/5kbfA01.pdb
 165 158 0 0 0
SMALL
GASTEIGER

@<TRIPOS>ATOM
      1  N         54.0730   93.0480   87.8390 N.3   181  ILE181     -0.1245
      2  CA        54.0980   93.6010   89.1930 C.3   181  ILE181      0.1561
      3  C         53.1060   94.7410   89.2330 C.2   181  ILE181      0.2260
      4  O         53.1220   95.6050   88.3350 O.2   181  ILE181     -0.2867
      5  CB        55.5090   94.1400   89.5710 C.3   181  ILE181      0.0252
      6  CG1       56.4620   93.0030   89.9140 C.3   181  ILE181      0.0019
      7  CG2       55.4300   95.1520   90.7340 C.3   181  ILE181      0.0019
      8  CD1       57.8990   93.5150   90.1810 C.3   181  ILE181      0.0001
      9  N         57.6300  100.1720   82.9830 N.3   200  ALA200     -0.1245
     10  CA        57.2620  100.5210   84.3520 C.3   200  ALA200      0.1562
     11  C         56.5530  101.8750   84.4010 C.2   200  ALA200      0.2260
     12  O         56.9500  102.8270   83.7100 O.2   200  ALA200     -0.2867
     13  CB        58.4830  100.5370   85.2440 C.3   200  ALA200      0.0290
     14  N         54.0880  104.6550   87.2060 N.3   202  LYS202     -0.1245
     15  CA        53.6740  104.9980   88.5640 C.3   202  LYS202      0.1561
     16  C         52.7160  106.1980   88.4860 C.2   202  LYS202      0.2260
     17  O         53.0340  107.2190   87.8410 O.2   202  LYS202     -0.2867
     18  CB        54.9060  105.3030   89.4370 C.3   202  LYS202      0.0271
     19  CG        54.6130  105.6110   90.9150 C.3   202  LYS202      0.0035
     20  CD        55.9120  105.9430   91.6740 C.3   202  LYS202      0.0206
     21  CE        55.6500  106.2470   93.1440 C.3   202  LYS202      0.1093
     22  NZ        54.8960  105.1300   93.7840 N.3   202  LYS202     -0.1314
     23  N         57.9630  105.4540   83.7250 N.3   207  ILE207     -0.1231
     24  CA        59.1810  105.7930   84.4400 C.3   207  ILE207      0.1692
     25  C         60.3600  104.9530   83.9750 C.2   207  ILE207      0.2591
     26  O         61.4900  105.3080   84.2480 O.2   207  ILE207     -0.2718
     27  CB        59.0230  105.6360   85.9890 C.3   207  ILE207      0.0266
     28  CG1       58.7960  104.1760   86.3820 C.3   207  ILE207      0.0019
     29  CG2       57.9220  106.5690   86.5330 C.3   207  ILE207      0.0020
     30  CD1       58.4440  103.9590   87.8910 C.3   207  ILE207      0.0001
     31  N         60.1090  103.8290   83.3060 N.am  208  LYS208     -0.1980
     32  CA        61.2160  103.0260   82.7820 C.3   208  LYS208      0.1596
     33  C         60.7530  102.0060   81.7530 C.2   208  LYS208      0.2287
     34  O         59.6550  101.4750   81.8700 O.2   208  LYS208     -0.2864
     35  CB        61.9420  102.2810   83.9100 C.3   208  LYS208      0.0298
     36  CG        63.3400  101.8010   83.4620 C.3   208  LYS208      0.0038
     37  CD        64.1210  101.1500   84.5880 C.3   208  LYS208      0.0206
     38  CE        65.6400  101.3650   84.4100 C.3   208  LYS208      0.1093
     39  NZ        66.1080  101.2700   83.0010 N.3   208  LYS208     -0.1314
     40  N         62.1020   98.2730   79.7800 N.3   210  TYR210     -0.1241
     41  CA        62.9770   97.1410   80.0860 C.3   210  TYR210      0.1605
     42  C         63.1780   96.2600   78.8690 C.2   210  TYR210      0.2264
     43  O         62.2520   96.0660   78.0790 O.2   210  TYR210     -0.2867
     44  CB        62.3960   96.2820   81.2120 C.3   210  TYR210      0.0534
     45  CG        62.3740   96.9250   82.5650 C.ar  210  TYR210     -0.0201
     46  CD1       63.5490   97.1360   83.2800 C.ar  210  TYR210     -0.0009
     47  CD2       61.1810   97.2760   83.1570 C.ar  210  TYR210     -0.0009
     48  CE1       63.5200   97.7120   84.5370 C.ar  210  TYR210      0.0417
     49  CE2       61.1470   97.8480   84.4160 C.ar  210  TYR210      0.0417
     50  CZ        62.3120   98.0580   85.0950 C.ar  210  TYR210      0.1957
     51  OH        62.2740   98.6380   86.3290 O.3   210  TYR210     -0.2866
     52  N         64.1410   93.8360   87.8350 N.3   216  PHE216     -0.1227
     53  CA        63.2630   94.6990   88.5850 C.3   216  PHE216      0.1736
     54  C         62.6100   93.9240   89.7540 C.2   216  PHE216      0.2596
     55  O         62.6880   92.6870   89.8030 O.2   216  PHE216     -0.2718
     56  CB        62.1930   95.3060   87.6450 C.3   216  PHE216      0.0547
     57  CG        61.4840   94.2800   86.8100 C.ar  216  PHE216     -0.0202
     58  CD1       61.7890   94.1300   85.4760 C.ar  216  PHE216     -0.0042
     59  CD2       60.5180   93.4520   87.3820 C.ar  216  PHE216     -0.0042
     60  CE1       61.1310   93.1670   84.6980 C.ar  216  PHE216     -0.0003
     61  CE2       59.8510   92.4940   86.6040 C.ar  216  PHE216     -0.0003
     62  CZ        60.1750   92.3530   85.2630 C.ar  216  PHE216     -0.0000
     63  N         61.9850   94.6670   90.6780 N.am  217  GLY217     -0.1942
     64  CA        61.2780   94.0700   91.8090 C.3   217  GLY217      0.2014
     65  C         62.1600   93.9160   93.0430 C.2   217  GLY217      0.2639
     66  O         61.8000   93.2230   94.0170 O.2   217  GLY217     -0.2714
     67  N         63.3030   94.5960   93.0310 N.am  218  GLU218     -0.1963
     68  CA        64.2180   94.5410   94.1630 C.3   218  GLU218      0.1733
     69  C         63.8260   95.5090   95.2720 C.2   218  GLU218      0.2616
     70  O         64.1570   95.2950   96.4500 O.2   218  GLU218     -0.2715
     71  CB        65.6610   94.8220   93.6970 C.3   218  GLU218      0.0429
     72  CG        66.0290   96.3060   93.5450 C.3   218  GLU218      0.1163
     73  CD        65.3540   97.0010   92.3500 C.2   218  GLU218      0.3649
     74  OE1       64.6200   96.3450   91.5850 O.co2 218  GLU218     -0.2457
     75  OE2       65.5650   98.2140   92.1740 O.co2 218  GLU218     -0.2457
     76  N         63.1250   96.5700   94.9050 N.am  219  LEU219     -0.1963
     77  CA        62.8700   97.6560   95.8330 C.3   219  LEU219      0.1728
     78  C         62.0170   97.1870   96.9970 C.2   219  LEU219      0.2616
     79  O         62.2540   97.5840   98.1390 O.2   219  LEU219     -0.2715
     80  CB        62.1990   98.8250   95.1240 C.3   219  LEU219      0.0311
     81  CG        62.1970  100.1260   95.9370 C.3   219  LEU219      0.0022
     82  CD1       63.6140  100.6080   96.1800 C.3   219  LEU219      0.0001
     83  CD2       61.3700  101.2150   95.2720 C.3   219  LEU219      0.0001
     84  N         61.0320   96.3320   96.7260 N.am  220  ALA220     -0.1977
     85  CA        60.1460   95.8880   97.7920 C.3   220  ALA220      0.1597
     86  C         60.9510   95.0410   98.7490 C.2   220  ALA220      0.2287
     87  O         60.6380   94.9760   99.9310 O.2   220  ALA220     -0.2864
     88  CB        58.9570   95.0970   97.2500 C.3   220  ALA220      0.0319
     89  N         55.2950   97.8190   99.9780 N.3   226  PRO226     -0.2102
     90  CA        54.5860   97.3240   98.7950 C.3   226  PRO226      0.1504
     91  C         55.2970   97.7550   97.5200 C.2   226  PRO226      0.2576
     92  O         56.0970   98.6900   97.5510 O.2   226  PRO226     -0.2718
     93  CB        53.2040   97.9940   98.8930 C.3   226  PRO226      0.0282
     94  CG        53.0490   98.3650  100.3180 C.3   226  PRO226      0.0208
     95  CD        54.4320   98.6570  100.8330 C.3   226  PRO226      0.0893
     96  N         55.0000   97.0730   96.4230 N.am  227  ARG227     -0.1966
     97  CA        55.5240   97.4120   95.1150 C.3   227  ARG227      0.1729
     98  C         55.3260   98.8950   94.7920 C.2   227  ARG227      0.2616
     99  O         54.2320   99.4350   94.9700 O.2   227  ARG227     -0.2715
    100  CB        54.8430   96.5310   94.0760 C.3   227  ARG227      0.0348
    101  CG        55.0550   95.0510   94.3520 C.3   227  ARG227      0.0492
    102  CD        56.5430   94.6570   94.1480 C.3   227  ARG227      0.2205
    103  NE        56.6490   93.2280   93.8630 N.pl3 227  ARG227     -0.0865
    104  CZ        57.7940   92.5770   93.7580 C.cat 227  ARG227      0.5346
    105  NH1       58.9270   93.2460   93.8920 N.pl3 227  ARG227      0.1354
    106  NH2       57.7920   91.2820   93.4890 N.pl3 227  ARG227      0.1354
    107  N         56.3890   99.5510   94.3300 N.am  228  ALA228     -0.1963
    108  CA        56.3710  101.0090   94.2100 C.3   228  ALA228      0.1728
    109  C         55.8890  101.4870   92.8380 C.2   228  ALA228      0.2616
    110  O         55.7220  102.6820   92.6150 O.2   228  ALA228     -0.2715
    111  CB        57.7640  101.5690   94.4970 C.3   228  ALA228      0.0334
    112  N         55.6860  100.5440   91.9280 N.am  229  ALA229     -0.1977
    113  CA        55.4530  100.8380   90.5290 C.3   229  ALA229      0.1597
    114  C         54.7700   99.6280   89.9220 C.2   229  ALA229      0.2287
    115  O         54.8590   98.5230   90.4540 O.2   229  ALA229     -0.2864
    116  CB        56.8090  101.1650   89.7760 C.3   229  ALA229      0.0319
    117  N         54.5170   97.0970   86.6660 N.3   231  ILE231     -0.1245
    118  CA        55.3670   96.7180   85.5510 C.3   231  ILE231      0.1561
    119  C         54.5610   95.8100   84.6410 C.2   231  ILE231      0.2260
    120  O         53.9750   94.8380   85.0990 O.2   231  ILE231     -0.2867
    121  CB        56.6720   96.0300   86.0450 C.3   231  ILE231      0.0252
    122  CG1       57.5530   97.0610   86.7710 C.3   231  ILE231      0.0019
    123  CG2       57.4500   95.4490   84.8640 C.3   231  ILE231      0.0019
    124  CD1       58.7950   96.4880   87.3920 C.3   231  ILE231      0.0001
    125  N         66.3410  106.0670   90.3630 N.3   265  TYR265     -0.1241
    126  CA        64.8940  106.0800   90.5440 C.3   265  TYR265      0.1605
    127  C         64.4670  107.4150   91.1340 C.2   265  TYR265      0.2264
    128  O         63.5280  108.0500   90.6670 O.2   265  TYR265     -0.2867
    129  CB        64.4310  104.9700   91.4870 C.3   265  TYR265      0.0534
    130  CG        64.6430  103.5280   91.0570 C.ar  265  TYR265     -0.0201
    131  CD1       64.9360  103.1750   89.7340 C.ar  265  TYR265     -0.0009
    132  CD2       64.5230  102.5090   91.9960 C.ar  265  TYR265     -0.0009
    133  CE1       65.1070  101.8140   89.3790 C.ar  265  TYR265      0.0417
    134  CE2       64.6880  101.1810   91.6600 C.ar  265  TYR265      0.0417
    135  CZ        64.9800  100.8350   90.3620 C.ar  265  TYR265      0.1957
    136  OH        65.1320   99.4870   90.0880 O.3   265  TYR265     -0.2866
    137  N         64.4090  110.2470   88.6970 N.3   268  VAL268     -0.1231
    138  CA        63.2620  110.1020   87.7980 C.3   268  VAL268      0.1692
    139  C         61.9870  110.5530   88.5060 C.2   268  VAL268      0.2591
    140  O         61.2000  111.3380   87.9760 O.2   268  VAL268     -0.2718
    141  CB        63.1120  108.6270   87.3180 C.3   268  VAL268      0.0266
    142  CG1       61.7670  108.4050   86.6800 C.3   268  VAL268      0.0020
    143  CG2       64.2210  108.2930   86.3210 C.3   268  VAL268      0.0020
    144  N         61.8020  110.0650   89.7250 N.am  269  LEU269     -0.1980
    145  CA        60.6110  110.3810   90.5010 C.3   269  LEU269      0.1596
    146  C         60.5200  111.8720   90.7970 C.2   269  LEU269      0.2287
    147  O         59.4450  112.4680   90.7290 O.2   269  LEU269     -0.2864
    148  CB        60.6110  109.5750   91.7970 C.3   269  LEU269      0.0297
    149  CG        60.5300  108.0470   91.6650 C.3   269  LEU269      0.0022
    150  CD1       60.6120  107.4060   93.0310 C.3   269  LEU269      0.0001
    151  CD2       59.2620  107.5880   90.9540 C.3   269  LEU269      0.0001
    152  N         58.7670  106.2230   98.6570 N.3   278  CYS278     -0.1221
    153  CA        58.9220  104.8030   98.3630 C.3   278  CYS278      0.1808
    154  C         60.4010  104.3920   98.3110 C.2   278  CYS278      0.2601
    155  O         60.7240  103.2040   98.3880 O.2   278  CYS278     -0.2717
    156  CB        58.2410  104.4630   97.0380 C.3   278  CYS278      0.0970
    157  SG        58.9390  105.3610   95.6060 S.3   278  CYS278     -0.0800
    158  N         61.2910  105.3760   98.1810 N.am  279  ILE279     -0.1979
    159  CA        62.7310  105.1270   98.1800 C.3   279  ILE279      0.1595
    160  C         63.2900  105.0060   99.6040 C.2   279  ILE279      0.2287
    161  O         64.1850  104.2030   99.8640 O.2   279  ILE279     -0.2864
    162  CB        63.4930  106.2340   97.4410 C.3   279  ILE279      0.0276
    163  CG1       63.0490  106.2910   95.9800 C.3   279  ILE279      0.0022
    164  CG2       64.9920  105.9860   97.5090 C.3   279  ILE279      0.0022
    165  CD1       63.0350  104.9390   95.3080 C.3   279  ILE279      0.0001
@<TRIPOS>BOND
     1    43    42    2
     2    42    41    1
     3    40    41    1
     4    41    44    1
     5    44    45    1
     6    33    34    2
     7    33    32    1
     8    45    47   ar
     9    45    46   ar
    10    32    31    1
    11    32    35    1
    12     9    10    1
    13    39    38    1
    14    47    49   ar
    15    46    48   ar
    16    31    25   am
    17    36    35    1
    18    36    37    1
    19    12    11    2
    20    23    24    1
    21    25    26    2
    22    25    24    1
    23    10    11    1
    24    10    13    1
    25    38    37    1
    26    49    50   ar
    27    24    27    1
    28    48    50   ar
    29   119   120    2
    30   119   118    1
    31    60    62   ar
    32    60    58   ar
    33   123   121    1
    34    50    51    1
    35    62    61   ar
    36    58    57   ar
    37   118   121    1
    38   118   117    1
    39    27    28    1
    40    27    29    1
    41   121   122    1
    42   143   141    1
    43    28    30    1
    44    61    59   ar
    45   142   141    1
    46   122   124    1
    47    57    59   ar
    48    57    56    1
    49    14    15    1
    50   141   138    1
    51    56    53    1
    52   138   139    1
    53   138   137    1
    54    52    53    1
    55     1     2    1
    56    17    16    2
    57   140   139    2
    58     4     3    2
    59    16    15    1
    60   139   144   am
    61    15    18    1
    62    53    54    1
    63     2     3    1
    64     2     5    1
    65   133   131   ar
    66   133   135   ar
    67    18    19    1
    68     5     6    1
    69     5     7    1
    70   144   145    1
    71   131   130   ar
    72    54    55    2
    73    54    63   am
    74   116   113    1
    75     6     8    1
    76   114   115    2
    77   114   113    1
    78   136   135    1
    79   135   134   ar
    80   125   126    1
    81   145   146    1
    82   145   148    1
    83   113   112    1
    84   126   127    1
    85   126   129    1
    86   128   127    2
    87    63    64    1
    88   147   146    2
    89    19    20    1
    90   151   149    1
    91   130   129    1
    92   130   132   ar
    93    74    73   ar
    94   134   132   ar
    95   149   148    1
    96   149   150    1
    97    20    21    1
    98    64    65    1
    99   112   109   am
   100    75    73   ar
   101    73    72    1
   102   110   109    2
   103   109   108    1
   104    67    65   am
   105    67    68    1
   106    65    66    2
   107    21    22    1
   108   106   104    1
   109    72    71    1
   110    71    68    1
   111   104   103    2
   112   104   105    1
   113   103   102    1
   114   100   101    1
   115   100    97    1
   116   102   101    1
   117    68    69    1
   118   108   107    1
   119   108   111    1
   120   107    98   am
   121    98    99    2
   122    98    97    1
   123    76    69   am
   124    76    77    1
   125    97    96    1
   126    80    77    1
   127    80    81    1
   128    69    70    2
   129    83    81    1
   130   165   163    1
   131   157   156    1
   132    77    78    1
   133    81    82    1
   134   163   162    1
   135    96    91   am
   136    84    78   am
   137    84    85    1
   138    78    79    2
   139   156   153    1
   140    88    85    1
   141   162   164    1
   142   162   159    1
   143    91    92    2
   144    91    90    1
   145    85    86    1
   146   159   158    1
   147   159   160    1
   148   158   154   am
   149   154   153    1
   150   154   155    2
   151   153   152    1
   152    86    87    2
   153    90    93    1
   154    90    89    1
   155    93    94    1
   156   160   161    2
   157    89    95    1
   158    94    95    1
