@<TRIPOS>MOLECULE
tmp/5kbgB00.pdb
 119 118 0 0 0
SMALL
GASTEIGER

@<TRIPOS>ATOM
      1  N         18.6690   -2.2900   25.0470 N.3    85  PHE85      -0.1241
      2  CA        19.1150   -0.9730   24.6750 C.3    85  PHE85       0.1605
      3  C         20.3820   -1.0090   23.8710 C.2    85  PHE85       0.2264
      4  O         20.5170   -0.3610   22.8150 O.2    85  PHE85      -0.2867
      5  CB        19.4230   -0.1870   25.9260 C.3    85  PHE85       0.0534
      6  CG        19.8400    1.2030   25.6490 C.ar   85  PHE85      -0.0203
      7  CD1       18.8960    2.1590   25.3040 C.ar   85  PHE85      -0.0042
      8  CD2       21.1660    1.5560   25.7040 C.ar   85  PHE85      -0.0042
      9  CE1       19.2730    3.4750   25.0400 C.ar   85  PHE85      -0.0003
     10  CE2       21.5600    2.8520   25.4260 C.ar   85  PHE85      -0.0003
     11  CZ        20.6120    3.8210   25.0960 C.ar   85  PHE85      -0.0000
     12  N         21.4630   -0.2670   20.1930 N.3    88  GLY88      -0.1210
     13  CA        21.9350    0.9580   19.5940 C.3    88  GLY88       0.1940
     14  C         23.4420    1.0100   19.5240 C.2    88  GLY88       0.2453
     15  O         24.0210    1.0540   18.4350 O.2    88  GLY88      -0.2732
     16  N         24.1040    0.9970   20.6850 N.am   89  PRO89      -0.2728
     17  CA        25.5660    1.0150   20.6350 C.3    89  PRO89       0.1401
     18  C         26.1620   -0.0330   19.6930 C.2    89  PRO89       0.2269
     19  O         27.2060    0.2000   19.0750 O.2    89  PRO89      -0.2865
     20  CB        25.9510    0.7450   22.0830 C.3    89  PRO89       0.0296
     21  CG        24.8530    1.4050   22.8560 C.3    89  PRO89       0.0237
     22  CD        23.6040    1.1210   22.0680 C.3    89  PRO89       0.0939
     23  N         25.7470    1.0260   15.8310 N.3    92  HIS92      -0.1241
     24  CA        26.7880    2.0230   15.6370 C.3    92  HIS92       0.1621
     25  C         28.1050    1.3810   15.3270 C.2    92  HIS92       0.2264
     26  O         28.8880    1.9190   14.5210 O.2    92  HIS92      -0.2867
     27  CB        26.9210    2.9190   16.8510 C.3    92  HIS92       0.0745
     28  CG        26.6190    4.3490   16.5580 C.ar   92  HIS92       0.0817
     29  ND1       26.6190    5.2990   17.5100 N.ar   92  HIS92      -0.2268
     30  CD2       26.3080    4.9820   15.3650 C.ar   92  HIS92       0.1154
     31  CE1       26.3230    6.4840   16.9560 C.ar   92  HIS92       0.1986
     32  NE2       26.1300    6.2900   15.6430 N.ar   92  HIS92      -0.2212
     33  N         31.5210    1.4000   20.9090 N.3   100  VAL100     -0.1245
     34  CA        30.9730    1.8220   22.1930 C.3   100  VAL100      0.1561
     35  C         31.4500    0.9250   23.3220 C.2   100  VAL100      0.2260
     36  O         31.1830   -0.2890   23.3200 O.2   100  VAL100     -0.2867
     37  CB        29.4240    1.9270   22.2410 C.3   100  VAL100      0.0252
     38  CG1       28.9950    2.3190   23.6400 C.3   100  VAL100      0.0019
     39  CG2       28.8920    2.9680   21.2880 C.3   100  VAL100      0.0019
     40  N         29.6320    6.4580   28.1980 N.3   118  PHE118     -0.1241
     41  CA        30.2690    5.5640   27.2180 C.3   118  PHE118      0.1605
     42  C         31.5510    6.1250   26.6510 C.2   118  PHE118      0.2264
     43  O         31.6510    7.3120   26.3330 O.2   118  PHE118     -0.2867
     44  CB        29.3710    5.2890   26.0140 C.3   118  PHE118      0.0534
     45  CG        28.1000    4.5600   26.3320 C.ar  118  PHE118     -0.0203
     46  CD1       27.9990    3.7140   27.4150 C.ar  118  PHE118     -0.0042
     47  CD2       27.0170    4.6920   25.5090 C.ar  118  PHE118     -0.0042
     48  CE1       26.8290    3.0370   27.6800 C.ar  118  PHE118     -0.0003
     49  CE2       25.8440    4.0170   25.7620 C.ar  118  PHE118     -0.0003
     50  CZ        25.7460    3.1830   26.8400 C.ar  118  PHE118     -0.0000
     51  N         33.8280    6.2600   23.3900 N.3   120  TRP120     -0.1241
     52  CA        33.6590    6.1460   21.9600 C.3   120  TRP120      0.1605
     53  C         35.0050    5.9530   21.2940 C.2   120  TRP120      0.2264
     54  O         35.8620    6.8700   21.2520 O.2   120  TRP120     -0.2867
     55  CB        32.9880    7.4200   21.4280 C.3   120  TRP120      0.0550
     56  CG        31.4890    7.3160   21.2230 C.ar  120  TRP120      0.0003
     57  CD1       30.6780    6.1640   21.2760 C.ar  120  TRP120      0.0946
     58  CD2       30.5730    8.4050   20.8570 C.ar  120  TRP120      0.0152
     59  NE1       29.3810    6.4770   21.0080 N.ar  120  TRP120     -0.2442
     60  CE2       29.2480    7.8020   20.7400 C.ar  120  TRP120      0.0810
     61  CE3       30.7170    9.7650   20.6310 C.ar  120  TRP120      0.0012
     62  CZ2       28.1350    8.5550   20.4100 C.ar  120  TRP120      0.0191
     63  CZ3       29.5940   10.5130   20.3220 C.ar  120  TRP120      0.0001
     64  CH2       28.3310    9.9250   20.2180 C.ar  120  TRP120      0.0015
     65  N         22.6730   10.5050   16.7900 N.3   147  TYR147     -0.1227
     66  CA        22.2310    9.1240   16.7640 C.3   147  TYR147      0.1736
     67  C         21.9710    8.6460   18.1940 C.2   147  TYR147      0.2595
     68  O         20.9220    8.0690   18.4860 O.2   147  TYR147     -0.2718
     69  CB        23.2660    8.2790   16.0350 C.3   147  TYR147      0.0548
     70  CG        22.8890    6.8430   15.8520 C.ar  147  TYR147     -0.0200
     71  CD1       22.9020    5.9720   16.9390 C.ar  147  TYR147     -0.0009
     72  CD2       22.5750    6.3310   14.6000 C.ar  147  TYR147     -0.0009
     73  CE1       22.6050    4.6290   16.8010 C.ar  147  TYR147      0.0417
     74  CE2       22.2500    4.9900   14.4400 C.ar  147  TYR147      0.0417
     75  CZ        22.2700    4.1430   15.5530 C.ar  147  TYR147      0.1957
     76  OH        21.9660    2.8040   15.4770 O.3   147  TYR147     -0.2866
     77  N         22.9200    8.9360   19.0820 N.am  148  ALA148     -0.1980
     78  CA        22.8020    8.5630   20.4830 C.3   148  ALA148      0.1597
     79  C         21.5110    9.1270   21.0040 C.2   148  ALA148      0.2287
     80  O         20.6890    8.4040   21.5550 O.2   148  ALA148     -0.2864
     81  CB        23.9760    9.0910   21.3070 C.3   148  ALA148      0.0319
     82  N         18.4340    7.5880   19.0750 N.3   151  TYR151     -0.1227
     83  CA        18.1920    6.1940   19.4120 C.3   151  TYR151      0.1736
     84  C         17.6040    6.0340   20.8050 C.2   151  TYR151      0.2596
     85  O         16.5670    5.4370   20.9720 O.2   151  TYR151     -0.2718
     86  CB        19.4540    5.3610   19.2880 C.3   151  TYR151      0.0548
     87  CG        19.2380    3.9510   19.7650 C.ar  151  TYR151     -0.0200
     88  CD1       18.7920    2.9520   18.8920 C.ar  151  TYR151     -0.0009
     89  CD2       19.4480    3.6170   21.0980 C.ar  151  TYR151     -0.0009
     90  CE1       18.5630    1.6720   19.3340 C.ar  151  TYR151      0.0417
     91  CE2       19.2240    2.3350   21.5550 C.ar  151  TYR151      0.0417
     92  CZ        18.7850    1.3760   20.6740 C.ar  151  TYR151      0.1957
     93  OH        18.5890    0.1090   21.1590 O.3   151  TYR151     -0.2866
     94  N         18.2910    6.5680   21.7990 N.am  152  SER152     -0.1952
     95  CA        17.8940    6.4790   23.2060 C.3   152  SER152      0.1924
     96  C         16.5120    7.0670   23.4150 C.2   152  SER152      0.2314
     97  O         15.6610    6.4470   24.0470 O.2   152  SER152     -0.2863
     98  CB        18.8830    7.2540   24.1030 C.3   152  SER152      0.2116
     99  OG        20.2540    6.9770   23.8290 O.3   152  SER152     -0.2180
    100  N         22.5410   13.7240   25.3160 N.3   162  TYR162     -0.1241
    101  CA        23.9340   13.3530   25.5660 C.3   162  TYR162      0.1605
    102  C         24.8810   14.5370   25.4550 C.2   162  TYR162      0.2264
    103  O         24.6290   15.4300   24.6660 O.2   162  TYR162     -0.2867
    104  CB        24.3570   12.3690   24.5120 C.3   162  TYR162      0.0534
    105  CG        23.8560   11.0180   24.7550 C.ar  162  TYR162     -0.0201
    106  CD1       22.5500   10.6820   24.4260 C.ar  162  TYR162     -0.0009
    107  CD2       24.6800   10.0440   25.3290 C.ar  162  TYR162     -0.0009
    108  CE1       22.0730    9.4050   24.6550 C.ar  162  TYR162      0.0417
    109  CE2       24.2160    8.7620   25.5600 C.ar  162  TYR162      0.0417
    110  CZ        22.9160    8.4550   25.2250 C.ar  162  TYR162      0.1957
    111  OH        22.4220    7.1980   25.4480 O.3   162  TYR162     -0.2866
    112  N         31.2100   10.1330   26.1300 N.3   177  ILE177     -0.1245
    113  CA        29.8680   10.7470   26.2570 C.3   177  ILE177      0.1561
    114  C         29.0940   10.3750   27.5170 C.2   177  ILE177      0.2260
    115  O         29.1520    9.2450   27.9650 O.2   177  ILE177     -0.2867
    116  CB        28.9450   10.3530   25.1000 C.3   177  ILE177      0.0252
    117  CG1       29.0620    8.8660   24.8140 C.3   177  ILE177      0.0019
    118  CG2       29.2570   11.1300   23.8450 C.3   177  ILE177      0.0019
    119  CD1       27.7240    8.2370   24.5260 C.3   177  ILE177      0.0001
@<TRIPOS>BOND
     1    74    72   ar
     2    74    75   ar
     3    26    25    2
     4    72    70   ar
     5    25    24    1
     6    30    32   ar
     7    30    28   ar
     8    76    75    1
     9    75    73   ar
    10    24    23    1
    11    24    27    1
    12    32    31   ar
    13    70    69    1
    14    70    71   ar
    15    69    66    1
    16    28    27    1
    17    28    29   ar
    18    66    65    1
    19    66    67    1
    20    73    71   ar
    21    31    29   ar
    22    67    68    2
    23    67    77   am
    24    15    14    2
    25    88    90   ar
    26    88    87   ar
    27    19    18    2
    28    82    83    1
    29    77    78    1
    30    86    83    1
    31    86    87    1
    32    90    92   ar
    33    83    84    1
    34    14    13    1
    35    14    16   am
    36    13    12    1
    37    18    17    1
    38    87    89   ar
    39    64    63   ar
    40    64    62   ar
    41    63    61   ar
    42    62    60   ar
    43    78    79    1
    44    78    81    1
    45    61    58   ar
    46    17    16    1
    47    17    20    1
    48    92    93    1
    49    92    91   ar
    50    16    22    1
    51    60    58   ar
    52    60    59   ar
    53    84    85    2
    54    84    94   am
    55    58    56   ar
    56    33    34    1
    57    79    80    2
    58    59    57   ar
    59    89    91   ar
    60    56    57   ar
    61    56    55    1
    62    54    53    2
    63    39    37    1
    64    53    52    1
    65    55    52    1
    66    94    95    1
    67    52    51    1
    68    22    21    1
    69    20    21    1
    70    34    37    1
    71    34    35    1
    72    37    38    1
    73     4     3    2
    74    95    96    1
    75    95    98    1
    76    36    35    2
    77    96    97    2
    78    99    98    1
    79   118   116    1
    80     3     2    1
    81   106   108   ar
    82   106   105   ar
    83   104   105    1
    84   104   101    1
    85   119   117    1
    86   108   110   ar
    87   103   102    2
    88     2     1    1
    89     2     5    1
    90   105   107   ar
    91   117   116    1
    92     9    11   ar
    93     9     7   ar
    94    11    10   ar
    95   116   113    1
    96   110   111    1
    97   110   109   ar
    98     7     6   ar
    99   100   101    1
   100   107   109   ar
   101    10     8   ar
   102   102   101    1
   103    47    49   ar
   104    47    45   ar
   105     6     8   ar
   106     6     5    1
   107    49    50   ar
   108    44    45    1
   109    44    41    1
   110   112   113    1
   111   113   114    1
   112    45    46   ar
   113    43    42    2
   114    42    41    1
   115    50    48   ar
   116    41    40    1
   117    46    48   ar
   118   114   115    2
