@<TRIPOS>MOLECULE
tmp/5kbhB00.pdb
 119 118 0 0 0
SMALL
GASTEIGER

@<TRIPOS>ATOM
      1  N         18.9040   -2.3680   24.9070 N.3    84  PHE84      -0.1241
      2  CA        19.3270   -1.0200   24.5800 C.3    84  PHE84       0.1605
      3  C         20.6250   -1.0280   23.8500 C.2    84  PHE84       0.2264
      4  O         20.8270   -0.2190   22.9440 O.2    84  PHE84      -0.2867
      5  CB        19.5220   -0.1840   25.8420 C.3    84  PHE84       0.0534
      6  CG        20.0530    1.1810   25.5750 C.ar   84  PHE84      -0.0203
      7  CD1       19.2040    2.2210   25.2440 C.ar   84  PHE84      -0.0042
      8  CD2       21.3950    1.4220   25.6250 C.ar   84  PHE84      -0.0042
      9  CE1       19.7040    3.4920   24.9850 C.ar   84  PHE84      -0.0003
     10  CE2       21.9060    2.6800   25.3560 C.ar   84  PHE84      -0.0003
     11  CZ        21.0630    3.7180   25.0310 C.ar   84  PHE84      -0.0000
     12  N         21.8520   -0.2320   20.0690 N.3    87  GLY87      -0.1210
     13  CA        22.2600    1.0240   19.5260 C.3    87  GLY87       0.1940
     14  C         23.7590    1.1540   19.3660 C.2    87  GLY87       0.2453
     15  O         24.2350    1.4410   18.2710 O.2    87  GLY87      -0.2732
     16  N         24.5090    0.9720   20.4600 N.am   88  PRO88      -0.2728
     17  CA        25.9860    0.8800   20.4600 C.3    88  PRO88       0.1401
     18  C         26.5840   -0.1990   19.5750 C.2    88  PRO88       0.2269
     19  O         27.6420   -0.0120   18.9670 O.2    88  PRO88      -0.2865
     20  CB        26.2920    0.5570   21.9050 C.3    88  PRO88       0.0296
     21  CG        25.2540    1.3370   22.6310 C.3    88  PRO88       0.0237
     22  CD        23.9980    1.1750   21.8290 C.3    88  PRO88       0.0939
     23  N         26.0680    0.9150   15.8580 N.3    91  HIS91      -0.1241
     24  CA        27.1020    1.8980   15.5490 C.3    91  HIS91       0.1621
     25  C         28.4260    1.2630   15.1450 C.2    91  HIS91       0.2264
     26  O         29.0560    1.7150   14.2090 O.2    91  HIS91      -0.2867
     27  CB        27.3260    2.8640   16.7290 C.3    91  HIS91       0.0745
     28  CG        26.9380    4.2830   16.4450 C.ar   91  HIS91       0.0817
     29  ND1       26.9460    5.2540   17.4230 N.ar   91  HIS91      -0.2268
     30  CD2       26.5690    4.9060   15.2950 C.ar   91  HIS91       0.1154
     31  CE1       26.5890    6.4080   16.8970 C.ar   91  HIS91       0.1986
     32  NE2       26.3560    6.2260   15.6060 N.ar   91  HIS91      -0.2212
     33  N         31.9950    1.3400   20.9240 N.3    99  VAL99      -0.1245
     34  CA        31.4490    1.7690   22.1970 C.3    99  VAL99       0.1561
     35  C         31.9200    0.7940   23.2730 C.2    99  VAL99       0.2260
     36  O         31.5880   -0.4090   23.2270 O.2    99  VAL99      -0.2867
     37  CB        29.9060    1.8710   22.2000 C.3    99  VAL99       0.0252
     38  CG1       29.4040    2.2610   23.5880 C.3    99  VAL99       0.0019
     39  CG2       29.4270    2.9070   21.2190 C.3    99  VAL99       0.0019
     40  N         29.9990    6.3650   28.1220 N.3   117  PHE117     -0.1241
     41  CA        30.6560    5.5010   27.1330 C.3   117  PHE117      0.1605
     42  C         31.9510    6.1110   26.6290 C.2   117  PHE117      0.2264
     43  O         32.0830    7.3110   26.5410 O.2   117  PHE117     -0.2867
     44  CB        29.7790    5.2490   25.9090 C.3   117  PHE117      0.0534
     45  CG        28.4490    4.5860   26.1870 C.ar  117  PHE117     -0.0203
     46  CD1       28.2330    3.7740   27.2930 C.ar  117  PHE117     -0.0042
     47  CD2       27.4150    4.7520   25.2900 C.ar  117  PHE117     -0.0042
     48  CE1       27.0130    3.1690   27.5060 C.ar  117  PHE117     -0.0003
     49  CE2       26.1930    4.1500   25.4950 C.ar  117  PHE117     -0.0003
     50  CZ        25.9920    3.3560   26.6020 C.ar  117  PHE117     -0.0000
     51  N         34.1500    6.2960   23.2070 N.3   119  TRP119     -0.1241
     52  CA        34.0180    6.1180   21.7760 C.3   119  TRP119      0.1605
     53  C         35.4230    5.9400   21.2480 C.2   119  TRP119      0.2264
     54  O         36.2630    6.8100   21.4440 O.2   119  TRP119     -0.2867
     55  CB        33.3320    7.3400   21.1510 C.3   119  TRP119      0.0550
     56  CG        31.8440    7.3000   21.0610 C.ar  119  TRP119      0.0003
     57  CD1       31.0300    6.2140   21.1750 C.ar  119  TRP119      0.0946
     58  CD2       30.9890    8.4000   20.7500 C.ar  119  TRP119      0.0152
     59  NE1       29.7110    6.5770   20.9870 N.ar  119  TRP119     -0.2442
     60  CE2       29.6660    7.9160   20.7170 C.ar  119  TRP119      0.0810
     61  CE3       31.2110    9.7640   20.5020 C.ar  119  TRP119      0.0012
     62  CZ2       28.5850    8.7390   20.4620 C.ar  119  TRP119      0.0191
     63  CZ3       30.1250   10.5760   20.2460 C.ar  119  TRP119      0.0001
     64  CH2       28.8320   10.0590   20.2380 C.ar  119  TRP119      0.0015
     65  N         22.9490   10.5490   16.7190 N.3   146  TYR146     -0.1227
     66  CA        22.4960    9.1520   16.7260 C.3   146  TYR146      0.1736
     67  C         22.2190    8.6670   18.1350 C.2   146  TYR146      0.2595
     68  O         21.1740    8.0670   18.3890 O.2   146  TYR146     -0.2718
     69  CB        23.5340    8.2690   16.0390 C.3   146  TYR146      0.0548
     70  CG        23.1620    6.8350   15.8400 C.ar  146  TYR146     -0.0200
     71  CD1       23.2040    5.9370   16.9110 C.ar  146  TYR146     -0.0009
     72  CD2       22.8310    6.3430   14.5850 C.ar  146  TYR146     -0.0009
     73  CE1       22.8990    4.5960   16.7430 C.ar  146  TYR146      0.0417
     74  CE2       22.5160    5.0010   14.3990 C.ar  146  TYR146      0.0417
     75  CZ        22.5520    4.1280   15.4890 C.ar  146  TYR146      0.1957
     76  OH        22.2560    2.7810   15.3780 O.3   146  TYR146     -0.2866
     77  N         23.1540    8.9320   19.0410 N.am  147  ALA147     -0.1980
     78  CA        23.0370    8.4800   20.4280 C.3   147  ALA147      0.1597
     79  C         21.7560    9.0190   21.0280 C.2   147  ALA147      0.2287
     80  O         21.0200    8.3150   21.6860 O.2   147  ALA147     -0.2864
     81  CB        24.2300    8.9580   21.2390 C.3   147  ALA147      0.0319
     82  N         18.5000    7.5040   19.0850 N.3   150  TYR150     -0.1227
     83  CA        18.2310    6.1310   19.4660 C.3   150  TYR150      0.1736
     84  C         17.7540    6.0270   20.9140 C.2   150  TYR150      0.2596
     85  O         16.7340    5.4100   21.1810 O.2   150  TYR150     -0.2718
     86  CB        19.4760    5.2820   19.2890 C.3   150  TYR150      0.0548
     87  CG        19.2840    3.8180   19.6230 C.ar  150  TYR150     -0.0200
     88  CD1       19.3790    3.3640   20.9400 C.ar  150  TYR150     -0.0009
     89  CD2       19.0340    2.8730   18.6260 C.ar  150  TYR150     -0.0009
     90  CE1       19.2220    2.0290   21.2450 C.ar  150  TYR150      0.0417
     91  CE2       18.8780    1.5380   18.9360 C.ar  150  TYR150      0.0417
     92  CZ        18.9660    1.1440   20.2490 C.ar  150  TYR150      0.1957
     93  OH        18.8300   -0.1690   20.5710 O.3   150  TYR150     -0.2866
     94  N         18.5190    6.6030   21.8310 N.am  151  SER151     -0.1952
     95  CA        18.2030    6.5580   23.2740 C.3   151  SER151      0.1924
     96  C         16.8940    7.2480   23.5820 C.2   151  SER151      0.2314
     97  O         16.1310    6.7430   24.3810 O.2   151  SER151     -0.2863
     98  CB        19.3080    7.1870   24.1410 C.3   151  SER151      0.2116
     99  OG        20.6250    6.7740   23.7600 O.3   151  SER151     -0.2180
    100  N         23.0380   13.9670   25.3940 N.3   161  TYR161     -0.1241
    101  CA        24.3800   13.4430   25.6110 C.3   161  TYR161      0.1605
    102  C         25.3630   14.5730   25.5290 C.2   161  TYR161      0.2264
    103  O         25.1840   15.4810   24.7440 O.2   161  TYR161     -0.2867
    104  CB        24.7350   12.4280   24.5390 C.3   161  TYR161      0.0534
    105  CG        24.1720   11.0650   24.7470 C.ar  161  TYR161     -0.0201
    106  CD1       22.8790   10.7680   24.3760 C.ar  161  TYR161     -0.0009
    107  CD2       24.9320   10.0610   25.3280 C.ar  161  TYR161     -0.0009
    108  CE1       22.3460    9.5040   24.5810 C.ar  161  TYR161      0.0417
    109  CE2       24.4180    8.7950   25.5180 C.ar  161  TYR161      0.0417
    110  CZ        23.1210    8.5280   25.1480 C.ar  161  TYR161      0.1957
    111  OH        22.6090    7.2650   25.3100 O.3   161  TYR161     -0.2866
    112  N         31.4610   10.1940   26.1270 N.3   176  ILE176     -0.1245
    113  CA        30.1220   10.7760   26.2460 C.3   176  ILE176      0.1561
    114  C         29.3990   10.3900   27.5400 C.2   176  ILE176      0.2260
    115  O         29.5420    9.2710   28.0100 O.2   176  ILE176     -0.2867
    116  CB        29.2120   10.3620   25.0660 C.3   176  ILE176      0.0252
    117  CG1       29.0270    8.8460   24.9920 C.3   176  ILE176      0.0019
    118  CG2       29.8000   10.8310   23.7590 C.3   176  ILE176      0.0019
    119  CD1       27.9780    8.4300   23.9970 C.3   176  ILE176      0.0001
@<TRIPOS>BOND
     1    26    25    2
     2    74    72   ar
     3    74    75   ar
     4    72    70   ar
     5    25    24    1
     6    30    32   ar
     7    30    28   ar
     8    76    75    1
     9    75    73   ar
    10    24    23    1
    11    24    27    1
    12    32    31   ar
    13    70    69    1
    14    70    71   ar
    15    69    66    1
    16    28    27    1
    17    28    29   ar
    18    65    66    1
    19    66    67    1
    20    73    71   ar
    21    31    29   ar
    22    67    68    2
    23    67    77   am
    24    15    14    2
    25    89    91   ar
    26    89    87   ar
    27    91    92   ar
    28    19    18    2
    29    77    78    1
    30    82    83    1
    31    86    83    1
    32    86    87    1
    33    14    13    1
    34    14    16   am
    35    83    84    1
    36    13    12    1
    37    18    17    1
    38    87    88   ar
    39    64    63   ar
    40    64    62   ar
    41    63    61   ar
    42    92    93    1
    43    92    90   ar
    44    78    79    1
    45    78    81    1
    46    17    16    1
    47    17    20    1
    48    16    22    1
    49    62    60   ar
    50    61    58   ar
    51    60    58   ar
    52    60    59   ar
    53    58    56   ar
    54    84    85    2
    55    84    94   am
    56    33    34    1
    57    88    90   ar
    58    59    57   ar
    59    79    80    2
    60    56    55    1
    61    56    57   ar
    62    55    52    1
    63    39    37    1
    64    53    54    2
    65    53    52    1
    66    52    51    1
    67    22    21    1
    68    94    95    1
    69    20    21    1
    70    34    37    1
    71    34    35    1
    72    37    38    1
    73     4     3    2
    74    36    35    2
    75    95    96    1
    76    95    98    1
    77    96    97    2
    78   118   116    1
    79    99    98    1
    80     3     2    1
    81   119   117    1
    82   106   108   ar
    83   106   105   ar
    84   104   105    1
    85   104   101    1
    86     2     1    1
    87     2     5    1
    88   108   110   ar
    89   103   102    2
    90   105   107   ar
    91     9    11   ar
    92     9     7   ar
    93   117   116    1
    94    11    10   ar
    95   116   113    1
    96   110   111    1
    97   110   109   ar
    98     7     6   ar
    99    47    49   ar
   100    47    45   ar
   101   107   109   ar
   102    10     8   ar
   103   100   101    1
   104    49    50   ar
   105   102   101    1
   106     6     8   ar
   107     6     5    1
   108    44    45    1
   109    44    41    1
   110   112   113    1
   111    45    46   ar
   112   113   114    1
   113    43    42    2
   114    50    48   ar
   115    42    41    1
   116    41    40    1
   117    46    48   ar
   118   114   115    2
