@<TRIPOS>MOLECULE
tmp/5kbiB00.pdb
 119 118 0 0 0
SMALL
GASTEIGER

@<TRIPOS>ATOM
      1  N         18.4520   -2.4210   24.7430 N.3    84  PHE84      -0.1241
      2  CA        19.1040   -1.1690   24.4470 C.3    84  PHE84       0.1605
      3  C         20.4800   -1.2950   23.7740 C.2    84  PHE84       0.2264
      4  O         20.7460   -0.5970   22.7940 O.2    84  PHE84      -0.2867
      5  CB        19.2520   -0.3830   25.7410 C.3    84  PHE84       0.0534
      6  CG        19.7740    0.9890   25.5470 C.ar   84  PHE84      -0.0203
      7  CD1       18.9110    2.0450   25.2510 C.ar   84  PHE84      -0.0042
      8  CD2       21.1250    1.2380   25.6420 C.ar   84  PHE84      -0.0042
      9  CE1       19.4030    3.3470   25.0600 C.ar   84  PHE84      -0.0003
     10  CE2       21.6210    2.5160   25.4580 C.ar   84  PHE84      -0.0003
     11  CZ        20.7580    3.5780   25.1660 C.ar   84  PHE84      -0.0000
     12  N         21.5070   -0.3780   19.9250 N.3    87  GLY87      -0.1210
     13  CA        21.9440    0.8700   19.3280 C.3    87  GLY87       0.1940
     14  C         23.4550    0.9850   19.2730 C.2    87  GLY87       0.2453
     15  O         24.0340    1.1810   18.2040 O.2    87  GLY87      -0.2732
     16  N         24.0950    0.8620   20.4310 N.am   88  PRO88      -0.2728
     17  CA        25.5560    0.9470   20.5160 C.3    88  PRO88       0.1401
     18  C         26.2340   -0.1040   19.6440 C.2    88  PRO88       0.2269
     19  O         27.2950    0.1570   19.0760 O.2    88  PRO88      -0.2865
     20  CB        25.8330    0.6620   21.9930 C.3    88  PRO88       0.0296
     21  CG        24.6000    1.1200   22.6950 C.3    88  PRO88       0.0237
     22  CD        23.4620    0.8220   21.7610 C.3    88  PRO88       0.0939
     23  N         25.8630    0.8580   15.8470 N.3    91  HIS91      -0.1241
     24  CA        26.7080    1.9610   15.5110 C.3    91  HIS91       0.1621
     25  C         28.0830    1.4610   15.1360 C.2    91  HIS91       0.2264
     26  O         28.8380    2.1370   14.4340 O.2    91  HIS91      -0.2867
     27  CB        26.7620    2.8590   16.7440 C.3    91  HIS91       0.0745
     28  CG        26.5390    4.3140   16.4490 C.ar   91  HIS91       0.0817
     29  ND1       26.9060    5.2840   17.2990 N.ar   91  HIS91      -0.2268
     30  CD2       26.0140    4.9460   15.3260 C.ar   91  HIS91       0.1154
     31  CE1       26.6110    6.4710   16.7610 C.ar   91  HIS91       0.1986
     32  NE2       26.0740    6.2640   15.5510 N.ar   91  HIS91      -0.2212
     33  N         31.5630    1.3940   20.7680 N.3    99  VAL99      -0.1245
     34  CA        31.0580    1.8510   22.0700 C.3    99  VAL99       0.1561
     35  C         31.5710    0.9310   23.2030 C.2    99  VAL99       0.2260
     36  O         31.3040   -0.2700   23.1830 O.2    99  VAL99      -0.2867
     37  CB        29.5110    1.8970   22.0970 C.3    99  VAL99       0.0252
     38  CG1       28.9940    2.2090   23.4830 C.3    99  VAL99       0.0019
     39  CG2       29.0020    2.9520   21.1720 C.3    99  VAL99       0.0019
     40  N         29.4330    6.1650   28.2210 N.3   117  PHE117     -0.1241
     41  CA        30.2460    5.3470   27.2940 C.3   117  PHE117      0.1605
     42  C         31.4980    6.0300   26.7830 C.2   117  PHE117      0.2264
     43  O         31.5440    7.2310   26.6620 O.2   117  PHE117     -0.2867
     44  CB        29.4540    5.0080   26.0440 C.3   117  PHE117      0.0534
     45  CG        28.1260    4.4000   26.3090 C.ar  117  PHE117     -0.0203
     46  CD1       27.9490    3.4960   27.3340 C.ar  117  PHE117     -0.0042
     47  CD2       27.0580    4.6910   25.4840 C.ar  117  PHE117     -0.0042
     48  CE1       26.7060    2.9220   27.5580 C.ar  117  PHE117     -0.0003
     49  CE2       25.8120    4.1140   25.6890 C.ar  117  PHE117     -0.0003
     50  CZ        25.6260    3.2280   26.7270 C.ar  117  PHE117     -0.0000
     51  N         33.5480    6.2120   23.2550 N.3   119  TRP119     -0.1241
     52  CA        33.5280    5.9910   21.8100 C.3   119  TRP119      0.1605
     53  C         34.9400    5.7810   21.2860 C.2   119  TRP119      0.2264
     54  O         35.8360    6.5600   21.5800 O.2   119  TRP119     -0.2867
     55  CB        32.9320    7.2230   21.1410 C.3   119  TRP119      0.0550
     56  CG        31.4370    7.2480   21.0780 C.ar  119  TRP119      0.0003
     57  CD1       30.5720    6.1710   21.1810 C.ar  119  TRP119      0.0946
     58  CD2       30.5680    8.4040   20.8280 C.ar  119  TRP119      0.0152
     59  NE1       29.2740    6.5640   21.0480 N.ar  119  TRP119     -0.2442
     60  CE2       29.1970    7.8950   20.8370 C.ar  119  TRP119      0.0810
     61  CE3       30.7750    9.7620   20.6160 C.ar  119  TRP119      0.0012
     62  CZ2       28.0970    8.7280   20.6380 C.ar  119  TRP119      0.0191
     63  CZ3       29.6570   10.5820   20.4220 C.ar  119  TRP119      0.0001
     64  CH2       28.3520   10.0760   20.4450 C.ar  119  TRP119      0.0015
     65  N         22.6400   10.4120   16.7900 N.3   146  TYR146     -0.1227
     66  CA        22.1860    9.0370   16.7680 C.3   146  TYR146      0.1736
     67  C         21.8980    8.6060   18.2050 C.2   146  TYR146      0.2595
     68  O         20.7990    8.1140   18.5340 O.2   146  TYR146     -0.2718
     69  CB        23.2820    8.1920   16.1320 C.3   146  TYR146      0.0548
     70  CG        22.9500    6.7470   15.8610 C.ar  146  TYR146     -0.0200
     71  CD1       23.1080    5.8080   16.8610 C.ar  146  TYR146     -0.0009
     72  CD2       22.5420    6.2990   14.5920 C.ar  146  TYR146     -0.0009
     73  CE1       22.8440    4.4750   16.6400 C.ar  146  TYR146      0.0417
     74  CE2       22.2700    4.9550   14.3620 C.ar  146  TYR146      0.0417
     75  CZ        22.4170    4.0590   15.4130 C.ar  146  TYR146      0.1957
     76  OH        22.1790    2.7070   15.3100 O.3   146  TYR146     -0.2866
     77  N         22.8880    8.8630   19.0610 N.am  147  ALA147     -0.1980
     78  CA        22.8350    8.5170   20.4800 C.3   147  ALA147      0.1597
     79  C         21.5300    9.0450   21.0480 C.2   147  ALA147      0.2287
     80  O         20.8020    8.3610   21.7540 O.2   147  ALA147     -0.2864
     81  CB        24.0250    9.1320   21.2060 C.3   147  ALA147      0.0319
     82  N         18.3260    7.3560   19.0200 N.3   150  TYR150     -0.1227
     83  CA        18.1050    6.0110   19.5310 C.3   150  TYR150      0.1736
     84  C         17.6070    5.9840   20.9730 C.2   150  TYR150      0.2596
     85  O         16.5150    5.5100   21.2450 O.2   150  TYR150     -0.2718
     86  CB        19.3500    5.1450   19.3930 C.3   150  TYR150      0.0548
     87  CG        19.1060    3.6990   19.7270 C.ar  150  TYR150     -0.0200
     88  CD1       19.1500    3.2700   21.0490 C.ar  150  TYR150     -0.0009
     89  CD2       18.8320    2.7540   18.7300 C.ar  150  TYR150     -0.0009
     90  CE1       18.9170    1.9440   21.3900 C.ar  150  TYR150      0.0417
     91  CE2       18.6080    1.4210   19.0500 C.ar  150  TYR150      0.0417
     92  CZ        18.6460    1.0280   20.3980 C.ar  150  TYR150      0.1957
     93  OH        18.4300   -0.2670   20.8010 O.3   150  TYR150     -0.2866
     94  N         18.3910    6.5100   21.8960 N.am  151  SER151     -0.1952
     95  CA        18.0590    6.4180   23.3180 C.3   151  SER151      0.1924
     96  C         16.6670    6.8950   23.5160 C.2   151  SER151      0.2314
     97  O         15.8380    6.1570   24.0190 O.2   151  SER151     -0.2863
     98  CB        19.0080    7.2570   24.1510 C.3   151  SER151      0.2116
     99  OG        20.3480    6.8880   23.8670 O.3   151  SER151     -0.2180
    100  N         22.6060   13.4810   25.3410 N.3   161  TYR161     -0.1241
    101  CA        24.0100   13.1820   25.6210 C.3   161  TYR161      0.1605
    102  C         24.9240   14.3680   25.5490 C.2   161  TYR161      0.2264
    103  O         24.6210   15.3350   24.8670 O.2   161  TYR161     -0.2867
    104  CB        24.5190   12.2010   24.5950 C.3   161  TYR161      0.0534
    105  CG        23.9210   10.8720   24.7550 C.ar  161  TYR161     -0.0201
    106  CD1       22.6090   10.6340   24.3310 C.ar  161  TYR161     -0.0009
    107  CD2       24.6460    9.8490   25.3510 C.ar  161  TYR161     -0.0009
    108  CE1       22.0430    9.3890   24.4580 C.ar  161  TYR161      0.0417
    109  CE2       24.0950    8.6080   25.4860 C.ar  161  TYR161      0.0417
    110  CZ        22.7900    8.3920   25.0320 C.ar  161  TYR161      0.1957
    111  OH        22.2400    7.1640   25.1500 O.3   161  TYR161     -0.2866
    112  N         31.0980   10.0820   26.2500 N.3   176  ILE176     -0.1245
    113  CA        29.7120   10.6370   26.3240 C.3   176  ILE176      0.1561
    114  C         28.8350   10.3000   27.5290 C.2   176  ILE176      0.2260
    115  O         28.7140    9.1600   27.9420 O.2   176  ILE176     -0.2867
    116  CB        28.8550   10.2840   25.1080 C.3   176  ILE176      0.0252
    117  CG1       28.8760    8.8080   24.8580 C.3   176  ILE176      0.0019
    118  CG2       29.3750   10.9500   23.8700 C.3   176  ILE176      0.0019
    119  CD1       27.6690    8.3840   24.0860 C.3   176  ILE176      0.0001
@<TRIPOS>BOND
     1    74    72   ar
     2    74    75   ar
     3    26    25    2
     4    72    70   ar
     5    25    24    1
     6    76    75    1
     7    30    32   ar
     8    30    28   ar
     9    75    73   ar
    10    24    23    1
    11    24    27    1
    12    32    31   ar
    13    70    69    1
    14    70    71   ar
    15    69    66    1
    16    28    27    1
    17    28    29   ar
    18    73    71   ar
    19    31    29   ar
    20    66    65    1
    21    66    67    1
    22    15    14    2
    23    67    68    2
    24    67    77   am
    25    89    91   ar
    26    89    87   ar
    27    82    83    1
    28    91    92   ar
    29    77    78    1
    30    19    18    2
    31    14    13    1
    32    14    16   am
    33    13    12    1
    34    86    83    1
    35    86    87    1
    36    83    84    1
    37    18    17    1
    38    87    88   ar
    39    92    93    1
    40    92    90   ar
    41    63    64   ar
    42    63    61   ar
    43    16    17    1
    44    16    22    1
    45    64    62   ar
    46    78    79    1
    47    78    81    1
    48    17    20    1
    49    61    58   ar
    50    62    60   ar
    51    33    34    1
    52    58    60   ar
    53    58    56   ar
    54    60    59   ar
    55    84    85    2
    56    84    94   am
    57    59    57   ar
    58    79    80    2
    59    88    90   ar
    60    56    55    1
    61    56    57   ar
    62    55    52    1
    63    39    37    1
    64    53    54    2
    65    53    52    1
    66    22    21    1
    67    52    51    1
    68    94    95    1
    69    20    21    1
    70    34    37    1
    71    34    35    1
    72    37    38    1
    73     4     3    2
    74    36    35    2
    75    95    96    1
    76    95    98    1
    77    96    97    2
    78     3     2    1
    79    99    98    1
    80   118   116    1
    81   119   117    1
    82   106   108   ar
    83   106   105   ar
    84     2     1    1
    85     2     5    1
    86   108   110   ar
    87   104   105    1
    88   104   101    1
    89   105   107   ar
    90   117   116    1
    91   103   102    2
    92   110   111    1
    93   110   109   ar
    94     9    11   ar
    95     9     7   ar
    96   116   113    1
    97    11    10   ar
    98     7     6   ar
    99   100   101    1
   100   107   109   ar
   101    10     8   ar
   102    47    49   ar
   103    47    45   ar
   104     6     8   ar
   105     6     5    1
   106   102   101    1
   107    49    50   ar
   108    44    45    1
   109    44    41    1
   110   112   113    1
   111    45    46   ar
   112   113   114    1
   113    43    42    2
   114    50    48   ar
   115    42    41    1
   116    41    40    1
   117    46    48   ar
   118   114   115    2
