@<TRIPOS>MOLECULE
tmp/5kbqA00.pdb
 177 166 0 0 0
SMALL
GASTEIGER

@<TRIPOS>ATOM
      1  N         13.2320  -35.3450   19.5770 N.3    23  ILE23      -0.1231
      2  CA        13.2400  -34.4030   18.4500 C.3    23  ILE23       0.1696
      3  C         12.8750  -32.9740   18.8950 C.2    23  ILE23       0.2632
      4  O         12.5450  -32.1320   18.0530 O.2    23  ILE23      -0.2714
      5  CB        12.3820  -34.8880   17.2390 C.3    23  ILE23       0.0266
      6  CG1       10.9090  -35.1440   17.6290 C.3    23  ILE23       0.0019
      7  CG2       13.0110  -36.0980   16.5440 C.3    23  ILE23       0.0020
      8  CD1        9.9610  -34.4150   16.8300 C.3    23  ILE23       0.0001
      9  N         12.9500  -32.7090   20.2000 N.am   24  GLY24      -0.1718
     10  CA        12.6600  -31.3790   20.7120 C.2    24  GLY24       0.1480
     11  C         12.3210  -31.2150   22.1800 C.2    24  GLY24       0.2820
     12  O         12.3040  -32.1750   22.9620 O.2    24  GLY24      -0.2669
     13  N         12.0640  -29.9360   22.5340 N.am   25  GLN25      -0.1943
     14  CA        11.7070  -29.3860   23.8450 C.3    25  GLN25       0.1604
     15  C         10.9450  -28.0420   23.5960 C.2    25  GLN25       0.2287
     16  O         10.9200  -27.5800   22.4550 O.2    25  GLN25      -0.2864
     17  CB        12.9790  -29.2010   24.7210 C.3    25  GLN25       0.0394
     18  CG        13.9350  -28.0800   24.2790 C.3    25  GLN25       0.0908
     19  CD        14.6560  -27.3900   25.4230 C.2    25  GLN25       0.2608
     20  OE1       14.3380  -27.5550   26.6130 O.2    25  GLN25      -0.2717
     21  NE2       15.6330  -26.5650   25.0730 N.am   25  GLN25      -0.0878
     22  N          9.5170  -33.7010   23.1780 N.3    31  VAL31      -0.1245
     23  CA         8.9080  -34.2930   21.9840 C.3    31  VAL31       0.1561
     24  C          9.8110  -35.4270   21.4980 C.2    31  VAL31       0.2260
     25  O         10.9990  -35.2160   21.2700 O.2    31  VAL31      -0.2867
     26  CB         8.5690  -33.2560   20.8760 C.3    31  VAL31       0.0252
     27  CG1        7.7280  -33.8870   19.7710 C.3    31  VAL31       0.0019
     28  CG2        7.8450  -32.0380   21.4530 C.3    31  VAL31       0.0019
     29  N          4.6860  -39.3100   16.8850 N.3    44  ALA44      -0.1231
     30  CA         5.3020  -38.2150   17.6320 C.3    44  ALA44       0.1694
     31  C          4.6110  -38.1310   18.9900 C.2    44  ALA44       0.2592
     32  O          3.3840  -37.9830   19.0510 O.2    44  ALA44      -0.2718
     33  CB         5.1250  -36.9110   16.8770 C.3    44  ALA44       0.0304
     34  N          5.3940  -38.2630   20.0810 N.am   45  ILE45      -0.1966
     35  CA         4.8760  -38.2360   21.4550 C.3    45  ILE45       0.1727
     36  C          5.4310  -37.0670   22.2780 C.2    45  ILE45       0.2616
     37  O          6.6410  -36.8500   22.3030 O.2    45  ILE45      -0.2715
     38  CB         5.1040  -39.5950   22.1770 C.3    45  ILE45       0.0290
     39  CG1        4.7630  -40.7890   21.2720 C.3    45  ILE45       0.0022
     40  CG2        4.3290  -39.6740   23.4970 C.3    45  ILE45       0.0023
     41  CD1        5.7510  -41.8290   21.2900 C.3    45  ILE45       0.0001
     42  N          4.5400  -36.3410   22.9740 N.am   46  LYS46      -0.1977
     43  CA         4.9150  -35.2610   23.8770 C.3    46  LYS46       0.1596
     44  C          4.7400  -35.7210   25.3370 C.2    46  LYS46       0.2287
     45  O          3.6290  -36.0610   25.7340 O.2    46  LYS46      -0.2864
     46  CB         4.0990  -33.9940   23.6040 C.3    46  LYS46       0.0298
     47  CG         4.4950  -32.8070   24.4920 C.3    46  LYS46       0.0038
     48  CD         4.4910  -31.4820   23.7410 C.3    46  LYS46       0.0206
     49  CE         3.1850  -30.7400   23.8570 C.3    46  LYS46       0.1093
     50  NZ         3.0300  -29.7410   22.7670 N.3    46  LYS46      -0.1314
     51  N         -7.5090  -29.5690   25.3360 N.3    62  GLU62      -0.1245
     52  CA        -6.6610  -29.8470   24.1860 C.3    62  GLU62       0.1567
     53  C         -6.9700  -31.2470   23.6610 C.2    62  GLU62       0.2260
     54  O         -7.2460  -31.3860   22.4680 O.2    62  GLU62      -0.2867
     55  CB        -5.1700  -29.7040   24.5500 C.3    62  GLU62       0.0388
     56  CG        -4.2660  -29.6910   23.3280 C.3    62  GLU62       0.1160
     57  CD        -2.7670  -29.6560   23.5550 C.2    62  GLU62       0.3649
     58  OE1       -2.0310  -29.7960   22.5530 O.co2  62  GLU62      -0.2457
     59  OE2       -2.3250  -29.4980   24.7180 O.co2  62  GLU62      -0.2457
     60  N         -9.1620  -32.0360   20.1750 N.3    66  MET66      -0.1245
     61  CA        -8.4120  -32.7570   19.1420 C.3    66  MET66       0.1570
     62  C         -9.1840  -34.0270   18.7280 C.2    66  MET66       0.2261
     63  O         -9.3330  -34.2880   17.5360 O.2    66  MET66      -0.2867
     64  CB        -7.0320  -33.1640   19.6520 C.3    66  MET66       0.0387
     65  CG        -6.0210  -32.0570   19.6380 C.3    66  MET66       0.0595
     66  SD        -4.3610  -32.7230   19.9480 S.3    66  MET66      -0.1393
     67  CE        -4.5190  -33.2790   21.6280 C.3    66  MET66       0.0692
     68  N         -3.3820  -31.9220   12.8850 N.3    75  VAL75      -0.1245
     69  CA        -2.4380  -32.9550   13.3060 C.3    75  VAL75       0.1561
     70  C         -3.2650  -34.0320   14.0100 C.2    75  VAL75       0.2260
     71  O         -3.9780  -33.7330   14.9550 O.2    75  VAL75      -0.2867
     72  CB        -1.2540  -32.4130   14.1520 C.3    75  VAL75       0.0252
     73  CG1       -0.1900  -33.4800   14.3590 C.3    75  VAL75       0.0019
     74  CG2       -0.6250  -31.2010   13.4780 C.3    75  VAL75       0.0019
     75  N          1.2160  -37.6150   25.1560 N.3    89  VAL89      -0.1245
     76  CA         0.2250  -37.3320   24.1160 C.3    89  VAL89       0.1561
     77  C          0.7780  -37.7820   22.7540 C.2    89  VAL89       0.2260
     78  O          1.7010  -37.1760   22.2180 O.2    89  VAL89      -0.2867
     79  CB        -0.2450  -35.8480   24.2030 C.3    89  VAL89       0.0252
     80  CG1       -1.0430  -35.4140   22.9860 C.3    89  VAL89       0.0019
     81  CG2       -1.0600  -35.6210   25.4720 C.3    89  VAL89       0.0019
     82  N          0.6490  -38.5850   18.7710 N.3    91  MET91      -0.1230
     83  CA         0.1330  -38.0210   17.5350 C.3    91  MET91       0.1702
     84  C          0.8190  -38.5490   16.2820 C.2    91  MET91       0.2595
     85  O          1.9250  -39.0730   16.3700 O.2    91  MET91      -0.2718
     86  CB         0.3560  -36.5200   17.5990 C.3    91  MET91       0.0401
     87  CG        -0.8500  -35.7480   17.2080 C.3    91  MET91       0.0596
     88  SD        -1.4630  -34.6920   18.5100 S.3    91  MET91      -0.1393
     89  CE        -1.6370  -35.8010   19.7400 C.3    91  MET91       0.0692
     90  N          0.1900  -38.3550   15.0980 N.am   92  GLU92      -0.1920
     91  CA         0.8030  -38.6780   13.8010 C.3    92  GLU92       0.1949
     92  C          2.0910  -37.8460   13.6760 C.2    92  GLU92       0.2659
     93  O          2.1390  -36.7170   14.1790 O.2    92  GLU92      -0.2711
     94  CB        -0.1460  -38.3570   12.6260 C.2    92  GLU92       0.0111
     95  CG        -0.4760  -36.8760   12.4250 C.2    92  GLU92       0.0838
     96  CD        -1.0060  -36.4770   11.0590 C.2    92  GLU92       0.3877
     97  OE1       -1.9590  -35.6660   11.0130 O.co2  92  GLU92      -0.2406
     98  OE2       -0.4750  -36.9680   10.0360 O.co2  92  GLU92      -0.2406
     99  N          3.1340  -38.3990   13.0580 N.am   93  TYR93      -0.1957
    100  CA         4.3860  -37.6570   12.9480 C.3    93  TYR93       0.1771
    101  C          4.4890  -36.8430   11.6610 C.2    93  TYR93       0.2619
    102  O          4.2840  -37.3550   10.5520 O.2    93  TYR93      -0.2715
    103  CB         5.6160  -38.5670   13.1480 C.3    93  TYR93       0.0574
    104  CG         6.9550  -37.8510   13.1900 C.ar   93  TYR93      -0.0198
    105  CD1        7.1500  -36.7360   14.0050 C.ar   93  TYR93      -0.0009
    106  CD2        8.0460  -38.3330   12.4770 C.ar   93  TYR93      -0.0009
    107  CE1        8.3860  -36.0920   14.0650 C.ar   93  TYR93       0.0417
    108  CE2        9.2940  -37.7160   12.5550 C.ar   93  TYR93       0.0417
    109  CZ         9.4570  -36.5900   13.3420 C.ar   93  TYR93       0.1957
    110  OH        10.6820  -35.9750   13.3990 O.3    93  TYR93      -0.2866
    111  N          4.8090  -35.5600   11.8370 N.am   94  LEU94      -0.1963
    112  CA         4.9970  -34.5870   10.7790 C.3    94  LEU94       0.1728
    113  C          6.4310  -34.1400   10.9080 C.2    94  LEU94       0.2616
    114  O          6.7790  -33.2700   11.7150 O.2    94  LEU94      -0.2715
    115  CB         3.9870  -33.4370   10.8920 C.3    94  LEU94       0.0311
    116  CG         2.4930  -33.8570   10.8890 C.3    94  LEU94       0.0022
    117  CD1        1.6270  -32.7060   11.1360 C.3    94  LEU94       0.0001
    118  CD2        2.0830  -34.4540    9.5500 C.3    94  LEU94       0.0001
    119  N          7.2770  -34.8600   10.1530 N.am   95  ALA95      -0.1963
    120  CA         8.7180  -34.7440   10.0910 C.3    95  ALA95       0.1728
    121  C          9.2060  -33.4810    9.3860 C.2    95  ALA95       0.2617
    122  O         10.3900  -33.1450    9.5080 O.2    95  ALA95      -0.2715
    123  CB         9.2890  -35.9820    9.4310 C.3    95  ALA95       0.0334
    124  N          8.2970  -32.7780    8.6970 N.am   96  GLY96      -0.1940
    125  CA         8.6000  -31.5210    8.0150 C.3    96  GLY96       0.2014
    126  C          8.9130  -30.3590    8.9460 C.2    96  GLY96       0.2639
    127  O          9.5080  -29.3750    8.5150 O.2    96  GLY96      -0.2714
    128  N          8.5290  -30.4710   10.2170 N.am   97  GLY97      -0.1939
    129  CA         8.7730  -29.4580   11.2490 C.3    97  GLY97       0.2014
    130  C          7.7380  -28.3530   11.2730 C.2    97  GLY97       0.2639
    131  O          6.6560  -28.5360   10.7120 O.2    97  GLY97      -0.2714
    132  N          8.0590  -27.1810   11.8810 N.am   98  SER98      -0.1949
    133  CA         7.0740  -26.0850   11.9130 C.3    98  SER98       0.1924
    134  C          7.2420  -25.0300   10.8180 C.2    98  SER98       0.2314
    135  O          8.3240  -24.8740   10.2370 O.2    98  SER98      -0.2863
    136  CB         7.0060  -25.4130   13.2800 C.3    98  SER98       0.2116
    137  OG         8.1780  -24.6870   13.6070 O.3    98  SER98      -0.2180
    138  N         10.1360  -22.1780   11.2070 N.3   101  ASP101     -0.1239
    139  CA        11.4620  -22.3790   10.6120 C.3   101  ASP101      0.1674
    140  C         11.5180  -21.9430    9.1670 C.2   101  ASP101      0.2266
    141  O         12.4830  -21.2890    8.7690 O.2   101  ASP101     -0.2867
    142  CB        11.9380  -23.8190   10.8200 C.3   101  ASP101      0.1410
    143  CG        12.4650  -24.0390   12.2320 C.2   101  ASP101      0.3668
    144  OD1       12.2700  -23.1440   13.0900 O.co2 101  ASP101     -0.2456
    145  OD2       13.1220  -25.0730   12.4660 O.co2 101  ASP101     -0.2456
    146  N          2.2700  -27.4140   11.5500 N.3   143  LEU143     -0.1245
    147  CA         3.2740  -28.4530   11.3220 C.3   143  LEU143      0.1561
    148  C          3.1660  -28.9210    9.8850 C.2   143  LEU143      0.2260
    149  O          2.0690  -28.9550    9.3170 O.2   143  LEU143     -0.2867
    150  CB         3.1300  -29.6150   12.3150 C.3   143  LEU143      0.0270
    151  CG         3.3900  -29.2550   13.7770 C.3   143  LEU143      0.0019
    152  CD1        2.8450  -30.3060   14.6830 C.3   143  LEU143      0.0001
    153  CD2        4.8830  -29.0360   14.0600 C.3   143  LEU143      0.0001
    154  N         -2.1830  -27.4340   14.7950 N.3   153  THR153     -0.1203
    155  CA        -2.0200  -27.9960   16.1260 C.3   153  THR153      0.1994
    156  C         -2.2500  -26.9310   17.2420 C.2   153  THR153      0.2617
    157  O         -2.6560  -25.8080   16.9560 O.2   153  THR153     -0.2717
    158  CB        -0.6760  -28.7370   16.2220 C.3   153  THR153      0.1784
    159  OG1       -0.7430  -29.5720   17.3800 O.3   153  THR153     -0.2211
    160  CG2        0.5450  -27.8000   16.2930 C.3   153  THR153      0.0376
    161  N         -1.9740  -27.3180   18.5060 N.am  154  ASP154     -0.1973
    162  CA        -2.0950  -26.6100   19.7920 C.3   154  ASP154      0.1709
    163  C         -3.5240  -26.0260   20.0690 C.2   154  ASP154      0.2293
    164  O         -3.7880  -24.8430   19.8520 O.2   154  ASP154     -0.2864
    165  CB        -0.9890  -25.5700   19.9830 C.3   154  ASP154      0.1436
    166  CG        -0.9730  -24.9260   21.3610 C.2   154  ASP154      0.3671
    167  OD1       -1.5380  -25.5390   22.3250 O.co2 154  ASP154     -0.2456
    168  OD2       -0.4290  -23.7970   21.4820 O.co2 154  ASP154     -0.2456
    169  N         15.6040  -26.6720    7.3260 N.3   285  LYS285     -0.1245
    170  CA        16.3720  -27.6960    8.0210 C.3   285  LYS285      0.1561
    171  C         17.8750  -27.4610    7.8900 C.2   285  LYS285      0.2260
    172  O         18.5690  -27.5640    8.8890 O.2   285  LYS285     -0.2867
    173  CB        15.9370  -29.1100    7.6020 C.3   285  LYS285      0.0271
    174  CG        14.5800  -29.5170    8.2150 C.3   285  LYS285      0.0035
    175  CD        13.8960  -30.6790    7.4800 C.3   285  LYS285      0.0206
    176  CE        13.8720  -31.9710    8.2760 C.3   285  LYS285      0.1093
    177  NZ        13.0300  -31.8790    9.5050 N.3   285  LYS285     -0.1314
@<TRIPOS>BOND
     1   169   170    1
     2   175   174    1
     3   175   176    1
     4   173   170    1
     5   173   174    1
     6   171   170    1
     7   171   172    2
     8   125   124    1
     9   125   126    1
    10   176   177    1
    11   127   126    2
    12   124   121   am
    13   141   140    2
    14   126   128   am
    15   140   139    1
    16   149   148    2
    17   121   122    2
    18   121   120    1
    19   123   120    1
    20   118   116    1
    21   148   147    1
    22    98    96   ar
    23   120   119    1
    24   119   113   am
    25   128   129    1
    26   135   134    2
    27   102   101    2
    28   139   142    1
    29   139   138    1
    30   131   130    2
    31   112   115    1
    32   112   113    1
    33   112   111    1
    34   134   133    1
    35   142   143    1
    36   116   115    1
    37   116   117    1
    38   113   114    2
    39    97    96   ar
    40    96    95    1
    41   129   130    1
    42   130   132   am
    43   147   146    1
    44   147   150    1
    45   101   111   am
    46   101   100    1
    47   132   133    1
    48   133   136    1
    49   143   145   ar
    50   143   144   ar
    51   150   151    1
    52    95    94    2
    53   106   108   ar
    54   106   104   ar
    55   108   109   ar
    56    94    91    1
    57    68    69    1
    58   100    99    1
    59   100   103    1
    60    99    92   am
    61   103   104    1
    62   104   105   ar
    63   136   137    1
    64    69    70    1
    65    69    72    1
    66   109   110    1
    67   109   107   ar
    68    74    72    1
    69    92    91    1
    70    92    93    2
    71   151   153    1
    72   151   152    1
    73    91    90    1
    74   105   107   ar
    75    70    71    2
    76    72    73    1
    77   154   155    1
    78    90    84   am
    79   155   158    1
    80   155   156    1
    81   158   160    1
    82   158   159    1
    83    84    85    2
    84    84    83    1
    85     7     5    1
    86     8     6    1
    87    33    30    1
    88    29    30    1
    89   157   156    2
    90    87    86    1
    91    87    88    1
    92     5     6    1
    93     5     2    1
    94   156   161   am
    95    83    86    1
    96    83    82    1
    97    63    62    2
    98    30    31    1
    99     4     3    2
   100     2     3    1
   101     2     1    1
   102   161   162    1
   103    88    89    1
   104    62    61    1
   105     3     9    1
   106    31    32    2
   107    31    34   am
   108    61    64    1
   109    61    60    1
   110    65    64    1
   111    65    66    1
   112    27    26    1
   113   162   165    1
   114   162   163    1
   115   164   163    2
   116    66    67    1
   117   165   166    1
   118    34    35    1
   119     9    10    2
   120    10    11    1
   121    26    28    1
   122    26    23    1
   123    25    24    2
   124    39    41    1
   125    39    38    1
   126   166   168   ar
   127   166   167   ar
   128    35    38    1
   129    35    36    1
   130    24    23    1
   131    23    22    1
   132    38    40    1
   133    11    13   am
   134    11    12    2
   135    78    77    2
   136    36    37    2
   137    36    42   am
   138    16    15    2
   139    54    53    2
   140    13    14    1
   141    58    57   ar
   142    77    76    1
   143    50    49    1
   144    42    43    1
   145    80    79    1
   146    56    57    1
   147    56    55    1
   148    57    59   ar
   149    15    14    1
   150    46    43    1
   151    46    47    1
   152    53    52    1
   153    48    49    1
   154    48    47    1
   155    14    17    1
   156    43    44    1
   157    76    79    1
   158    76    75    1
   159    52    55    1
   160    52    51    1
   161    79    81    1
   162    18    17    1
   163    18    19    1
   164    21    19   am
   165    44    45    2
   166    19    20    2
