@<TRIPOS>MOLECULE
tmp/5kbrB00.pdb
 142 130 0 0 0
SMALL
GASTEIGER

@<TRIPOS>ATOM
      1  N         32.5510    3.9290   16.7490 N.3    22  ILE22      -0.1245
      2  CA        33.4730    5.0210   16.4010 C.3    22  ILE22       0.1561
      3  C         33.5140    6.1450   17.4580 C.2    22  ILE22       0.2260
      4  O         34.3950    7.0100   17.3860 O.2    22  ILE22      -0.2867
      5  CB        33.2250    5.5920   14.9700 C.3    22  ILE22       0.0252
      6  CG1       31.8180    6.2160   14.8190 C.3    22  ILE22       0.0019
      7  CG2       33.5150    4.5680   13.8660 C.3    22  ILE22       0.0019
      8  CD1       31.8530    7.6970   14.6160 C.3    22  ILE22       0.0001
      9  N         28.4020    5.4180   19.9570 N.3    25  VAL25      -0.1245
     10  CA        28.1470    5.8150   18.5680 C.3    25  VAL25       0.1561
     11  C         28.7490    4.7720   17.6040 C.2    25  VAL25       0.2260
     12  O         29.8920    4.3360   17.7810 O.2    25  VAL25      -0.2867
     13  CB        28.5890    7.2770   18.2530 C.3    25  VAL25       0.0252
     14  CG1       28.7350    7.5250   16.7470 C.3    25  VAL25       0.0019
     15  CG2       27.6220    8.2820   18.8640 C.3    25  VAL25       0.0019
     16  N         25.0930    7.4220   11.1220 N.3    38  ALA38      -0.1245
     17  CA        25.7200    7.3710   12.4460 C.3    38  ALA38       0.1562
     18  C         24.6010    7.1200   13.4200 C.2    38  ALA38       0.2260
     19  O         23.5960    7.8120   13.3390 O.2    38  ALA38      -0.2867
     20  CB        26.4080    8.6850   12.7540 C.3    38  ALA38       0.0290
     21  N         23.4430    6.6670   17.4970 N.3    40  LYS40      -0.1245
     22  CA        23.7240    6.8500   18.9320 C.3    40  LYS40       0.1561
     23  C         22.7640    6.0210   19.8160 C.2    40  LYS40       0.2260
     24  O         21.5440    6.2050   19.7720 O.2    40  LYS40      -0.2867
     25  CB        23.6580    8.3420   19.3060 C.3    40  LYS40       0.0271
     26  CG        24.3690    8.7440   20.6020 C.3    40  LYS40       0.0035
     27  CD        24.8090   10.2100   20.4970 C.3    40  LYS40       0.0206
     28  CE        25.5080   10.7810   21.7060 C.3    40  LYS40       0.1093
     29  NZ        25.8840   12.2080   21.4910 N.3    40  LYS40      -0.1314
     30  N         21.4310    4.9220   23.5860 N.3    42  MET42      -0.1245
     31  CA        21.2830    5.3720   24.9730 C.3    42  MET42       0.1570
     32  C         20.2880    4.4930   25.7020 C.2    42  MET42       0.2261
     33  O         20.3730    4.3430   26.9160 O.2    42  MET42      -0.2867
     34  CB        20.8140    6.8290   25.0160 C.3    42  MET42       0.0387
     35  CG        21.8350    7.8030   24.4770 C.3    42  MET42       0.0595
     36  SD        21.0790    9.1990   23.6220 S.3    42  MET42      -0.1393
     37  CE        20.6460    8.4510   22.0630 C.3    42  MET42       0.0692
     38  N         15.6480   18.7550   17.0150 N.3    48  MET48      -0.1245
     39  CA        16.4260   18.2250   15.8880 C.3    48  MET48       0.1570
     40  C         15.5870   17.8880   14.6500 C.2    48  MET48       0.2261
     41  O         16.0340   18.1740   13.5380 O.2    48  MET48      -0.2867
     42  CB        17.1830   16.9570   16.3260 C.3    48  MET48       0.0387
     43  CG        18.6260   17.1820   16.7250 C.3    48  MET48       0.0595
     44  SD        19.5730   15.6210   16.7310 S.3    48  MET48      -0.1393
     45  CE        19.1430   14.9590   18.3510 C.3    48  MET48       0.0692
     46  N         24.6440   18.4330   10.5880 N.3    57  VAL57      -0.1245
     47  CA        24.5520   16.9590   10.5900 C.3    57  VAL57       0.1561
     48  C         23.1150   16.7080   11.0800 C.2    57  VAL57       0.2260
     49  O         22.8180   16.9540   12.2580 O.2    57  VAL57      -0.2867
     50  CB        25.6070   16.3070   11.5370 C.3    57  VAL57       0.0252
     51  CG1       25.3200   14.8160   11.7710 C.3    57  VAL57       0.0019
     52  CG2       27.0260   16.5140   11.0130 C.3    57  VAL57       0.0019
     53  N         19.3340    7.0240   18.0320 N.3    71  VAL71      -0.1245
     54  CA        19.2340    8.2520   17.2440 C.3    71  VAL71       0.1561
     55  C         20.1400    8.1170   16.0310 C.2    71  VAL71       0.2260
     56  O         21.3660    7.9980   16.1510 O.2    71  VAL71      -0.2867
     57  CB        19.4290    9.5620   18.0870 C.3    71  VAL71       0.0252
     58  CG1       19.4280   10.8080   17.1980 C.3    71  VAL71       0.0019
     59  CG2       18.3590    9.6660   19.1940 C.3    71  VAL71       0.0019
     60  N         21.5990    9.6540   12.5780 N.3    73  MET73      -0.1230
     61  CA        21.9320   10.9110   11.8770 C.3    73  MET73       0.1702
     62  C         22.5970   10.5580   10.5740 C.2    73  MET73       0.2592
     63  O         23.0200    9.4190   10.4010 O.2    73  MET73      -0.2718
     64  CB        22.9330   11.8250   12.6480 C.3    73  MET73       0.0401
     65  CG        22.8960   11.7580   14.1350 C.3    73  MET73       0.0596
     66  SD        21.6400   12.8010   14.8530 S.3    73  MET73      -0.1393
     67  CE        22.2940   14.4560   14.4210 C.3    73  MET73       0.0692
     68  N         22.7850   11.5480    9.6970 N.am   74  GLU74      -0.1966
     69  CA        23.5270   11.3880    8.4420 C.3    74  GLU74       0.1733
     70  C         25.0030   11.2210    8.8350 C.2    74  GLU74       0.2616
     71  O         25.4520   11.8180    9.8130 O.2    74  GLU74      -0.2715
     72  CB        23.4250   12.6610    7.5630 C.3    74  GLU74       0.0429
     73  CG        22.0580   13.3260    7.4710 C.3    74  GLU74       0.1163
     74  CD        22.0780   14.8310    7.2500 C.2    74  GLU74       0.3649
     75  OE1       23.0620   15.4890    7.6580 O.co2  74  GLU74      -0.2457
     76  OE2       21.0790   15.3620    6.7120 O.co2  74  GLU74      -0.2457
     77  N         25.7400   10.4150    8.1080 N.am   75  TYR75      -0.1960
     78  CA        27.1660   10.2350    8.3530 C.3    75  TYR75       0.1771
     79  C         27.9020   10.9510    7.2110 C.2    75  TYR75       0.2619
     80  O         27.4220   10.9400    6.0740 O.2    75  TYR75      -0.2715
     81  CB        27.5170    8.7370    8.4000 C.3    75  TYR75       0.0574
     82  CG        28.9890    8.3700    8.3930 C.ar   75  TYR75      -0.0198
     83  CD1       29.7400    8.4050    9.5630 C.ar   75  TYR75      -0.0009
     84  CD2       29.5840    7.8190    7.2580 C.ar   75  TYR75      -0.0009
     85  CE1       31.0860    8.0350    9.5730 C.ar   75  TYR75       0.0417
     86  CE2       30.9160    7.3950    7.2690 C.ar   75  TYR75       0.0417
     87  CZ        31.6670    7.5210    8.4270 C.ar   75  TYR75       0.1957
     88  OH        32.9830    7.1410    8.4570 O.3    75  TYR75      -0.2866
     89  N         29.0310   11.6040    7.5410 N.am   76  LEU76      -0.1963
     90  CA        29.9080   12.3050    6.6020 C.3    76  LEU76       0.1728
     91  C         31.2240   11.5570    6.5920 C.2    76  LEU76       0.2616
     92  O         31.9420   11.5400    7.6050 O.2    76  LEU76      -0.2715
     93  CB        30.0940   13.7880    6.9640 C.3    76  LEU76       0.0311
     94  CG        28.8660   14.6740    6.7500 C.3    76  LEU76       0.0022
     95  CD1       28.0890   14.8130    8.0250 C.3    76  LEU76       0.0001
     96  CD2       29.2470   16.0800    6.2090 C.3    76  LEU76       0.0001
     97  N         31.4980   10.8740    5.4600 N.am   77  ALA77      -0.1977
     98  CA        32.6740   10.0400    5.2870 C.3    77  ALA77       0.1597
     99  C         34.0060   10.7970    5.1640 C.2    77  ALA77       0.2287
    100  O         35.0560   10.1900    5.3770 O.2    77  ALA77      -0.2864
    101  CB        32.4810    9.1110    4.0920 C.3    77  ALA77       0.0319
    102  N         35.4590   12.7940    7.0930 N.3    79  GLY79      -0.1210
    103  CA        36.0810   12.9740    8.3990 C.3    79  GLY79       0.1956
    104  C         35.9130   14.3670    8.9670 C.2    79  GLY79       0.2612
    105  O         35.1190   15.1630    8.4490 O.2    79  GLY79      -0.2717
    106  N         36.6880   14.6770   10.0220 N.am   80  SER80      -0.1952
    107  CA        36.6880   15.9900   10.6540 C.3    80  SER80       0.1924
    108  C         37.5840   16.9940    9.9120 C.2    80  SER80       0.2314
    109  O         38.4510   16.6210    9.1210 O.2    80  SER80      -0.2863
    110  CB        37.1260   15.8920   12.1170 C.3    80  SER80       0.2116
    111  OG        38.5150   15.6220   12.2430 O.3    80  SER80      -0.2180
    112  N         41.5830   16.9160   10.9880 N.3    83  ASP83      -0.1239
    113  CA        42.4870   16.0670   10.2080 C.3    83  ASP83       0.1674
    114  C         42.9280   16.7380    8.9230 C.2    83  ASP83       0.2266
    115  O         44.0810   16.5910    8.5370 O.2    83  ASP83      -0.2867
    116  CB        41.8840   14.6690    9.9560 C.3    83  ASP83       0.1410
    117  CG        41.6250   13.8520   11.2230 C.2    83  ASP83       0.3668
    118  OD1       41.9680   14.3410   12.3390 O.co2  83  ASP83      -0.2456
    119  OD2       41.0610   12.7370   11.1050 O.co2  83  ASP83      -0.2456
    120  N         32.2060   18.4230   10.1410 N.3   125  LEU125     -0.1245
    121  CA        32.2320   17.1720    9.4100 C.3   125  LEU125      0.1561
    122  C         32.1250   17.4080    7.9150 C.2   125  LEU125      0.2260
    123  O         31.3920   18.2990    7.4650 O.2   125  LEU125     -0.2867
    124  CB        31.1720   16.1990    9.9660 C.3   125  LEU125      0.0270
    125  CG        31.5290   15.5750   11.3500 C.3   125  LEU125      0.0019
    126  CD1       30.3300   14.8650   11.9710 C.3   125  LEU125      0.0001
    127  CD2       32.7040   14.5720   11.2370 C.3   125  LEU125      0.0001
    128  N         28.3490   19.7220   13.8440 N.3   135  THR135     -0.1203
    129  CA        27.8700   18.6720   14.7340 C.3   135  THR135      0.1994
    130  C         28.0540   19.0600   16.2050 C.2   135  THR135      0.2617
    131  O         28.8440   19.9640   16.5030 O.2   135  THR135     -0.2717
    132  CB        28.4730   17.2870   14.3820 C.3   135  THR135      0.1784
    133  OG1       27.7510   16.3140   15.1440 O.3   135  THR135     -0.2211
    134  CG2       29.9650   17.1690   14.6970 C.3   135  THR135      0.0376
    135  N         27.3140   18.3500   17.1140 N.am  136  ASP136     -0.1973
    136  CA        27.2810   18.4660   18.5850 C.3   136  ASP136      0.1709
    137  C         27.0510   19.8880   19.0780 C.2   136  ASP136      0.2293
    138  O         25.9270   20.3790   19.0310 O.2   136  ASP136     -0.2864
    139  CB        28.5410   17.8490   19.2360 C.3   136  ASP136      0.1436
    140  CG        28.8720   16.4220   18.8000 C.2   136  ASP136      0.3671
    141  OD1       27.9600   15.5590   18.8320 O.co2 136  ASP136     -0.2456
    142  OD2       30.0540   16.1600   18.4690 O.co2 136  ASP136     -0.2456
@<TRIPOS>BOND
     1   101    98    1
     2    99    98    1
     3    99   100    2
     4    98    97    1
     5    97    91   am
     6    80    79    2
     7    96    94    1
     8    91    90    1
     9    91    92    2
    10    90    93    1
    11    90    89    1
    12    76    74   ar
    13    94    93    1
    14    94    95    1
    15   102   103    1
    16    79    89   am
    17    79    78    1
    18    74    73    1
    19    74    75   ar
    20    84    86   ar
    21    84    82   ar
    22    86    87   ar
    23   123   122    2
    24    73    72    1
    25    72    69    1
    26   122   121    1
    27    77    78    1
    28    77    70   am
    29    78    81    1
    30    82    81    1
    31    82    83   ar
    32   103   104    1
    33    87    88    1
    34    87    85   ar
    35    69    70    1
    36    69    68    1
    37   105   104    2
    38   115   114    2
    39    70    71    2
    40   114   113    1
    41   104   106   am
    42   109   108    2
    43   121   124    1
    44   121   120    1
    45    83    85   ar
    46    68    62   am
    47   108   107    1
    48   116   113    1
    49   116   117    1
    50   124   125    1
    51   106   107    1
    52   113   112    1
    53    63    62    2
    54    62    61    1
    55    46    47    1
    56    47    48    1
    57    47    50    1
    58   107   110    1
    59    52    50    1
    60    48    49    2
    61   119   117   ar
    62    16    17    1
    63   117   118   ar
    64   127   125    1
    65   125   126    1
    66    50    51    1
    67    61    60    1
    68    61    64    1
    69   110   111    1
    70    17    20    1
    71    17    18    1
    72    64    65    1
    73    19    18    2
    74    41    40    2
    75   128   129    1
    76     7     5    1
    77    65    66    1
    78   132   134    1
    79   132   129    1
    80   132   133    1
    81    67    66    1
    82     8     6    1
    83    40    39    1
    84   129   130    1
    85     6     5    1
    86     5     2    1
    87    39    42    1
    88    39    38    1
    89    55    56    2
    90    55    54    1
    91   130   131    2
    92   130   135   am
    93    42    43    1
    94     2     1    1
    95     2     3    1
    96    43    44    1
    97    44    45    1
    98    14    13    1
    99   135   136    1
   100    58    57    1
   101    54    53    1
   102    54    57    1
   103     4     3    2
   104    21    22    1
   105    11    12    2
   106    11    10    1
   107    57    59    1
   108    13    10    1
   109    13    15    1
   110   142   140   ar
   111    10     9    1
   112   136   137    1
   113   136   139    1
   114   140   141   ar
   115   140   139    1
   116    22    25    1
   117    22    23    1
   118   138   137    2
   119    25    26    1
   120    24    23    2
   121    27    26    1
   122    27    28    1
   123    29    28    1
   124    37    36    1
   125    30    31    1
   126    36    35    1
   127    35    34    1
   128    31    34    1
   129    31    32    1
   130    32    33    2
