@<TRIPOS>MOLECULE
tmp/5kbwB00.pdb
 208 196 0 0 0
SMALL
GASTEIGER

@<TRIPOS>ATOM
      1  N        -24.3250   -3.2480   96.5150 N.3    20  MET20      -0.1245
      2  CA       -24.4510   -2.4540   95.2980 C.3    20  MET20       0.1570
      3  C        -24.7270   -0.9880   95.5880 C.2    20  MET20       0.2261
      4  O        -24.8400   -0.1910   94.6500 O.2    20  MET20      -0.2867
      5  CB       -25.5300   -3.0200   94.3790 C.3    20  MET20       0.0387
      6  CG       -26.9540   -2.7590   94.7430 C.3    20  MET20       0.0595
      7  SD       -27.9770   -3.4260   93.4190 S.3    20  MET20      -0.1393
      8  CE       -27.0930   -2.8160   91.9820 C.3    20  MET20       0.0692
      9  N        -21.8020    1.1290   94.1810 N.3    23  GLU23      -0.1245
     10  CA       -21.6530    1.3340   92.7450 C.3    23  GLU23       0.1567
     11  C        -20.8430    2.5940   92.4610 C.2    23  GLU23       0.2260
     12  O        -21.0190    3.6280   93.1120 O.2    23  GLU23      -0.2867
     13  CB       -23.0250    1.4190   92.0680 C.3    23  GLU23       0.0388
     14  CG       -23.8570    2.6290   92.4600 C.3    23  GLU23       0.1160
     15  CD       -25.0760    2.8090   91.5770 C.2    23  GLU23       0.3649
     16  OE1      -25.2420    2.0220   90.6200 O.co2  23  GLU23      -0.2457
     17  OE2      -25.8650    3.7420   91.8350 O.co2  23  GLU23      -0.2457
     18  N        -22.3670    6.3050   83.0850 N.3    32  PHE32      -0.1227
     19  CA       -23.5970    5.5530   83.2930 C.3    32  PHE32       0.1736
     20  C        -23.3330    4.0830   83.5870 C.2    32  PHE32       0.2595
     21  O        -24.2250    3.3960   84.0970 O.2    32  PHE32      -0.2718
     22  CB       -24.5230    5.6910   82.0790 C.3    32  PHE32       0.0547
     23  CG       -23.9470    5.1510   80.7970 C.ar   32  PHE32      -0.0202
     24  CD1      -24.2530    3.8680   80.3710 C.ar   32  PHE32      -0.0042
     25  CD2      -23.1190    5.9330   80.0070 C.ar   32  PHE32      -0.0042
     26  CE1      -23.7350    3.3720   79.1890 C.ar   32  PHE32      -0.0003
     27  CE2      -22.5960    5.4410   78.8250 C.ar   32  PHE32      -0.0003
     28  CZ       -22.9050    4.1590   78.4160 C.ar   32  PHE32      -0.0000
     29  N        -22.1320    3.5930   83.2860 N.am   33  LEU33      -0.1966
     30  CA       -21.7280    2.2320   83.6240 C.3    33  LEU33       0.1728
     31  C        -21.0910    2.2490   85.0090 C.2    33  LEU33       0.2616
     32  O        -19.9500    2.6940   85.1690 O.2    33  LEU33      -0.2715
     33  CB       -20.7560    1.6810   82.5840 C.3    33  LEU33       0.0311
     34  CG       -21.2280    1.6950   81.1320 C.3    33  LEU33       0.0022
     35  CD1      -20.0900    1.3410   80.1970 C.3    33  LEU33       0.0001
     36  CD2      -22.3620    0.7250   80.9650 C.3    33  LEU33       0.0001
     37  N        -21.8240    1.7620   86.0050 N.am   34  LYS34      -0.1977
     38  CA       -21.3640    1.7350   87.3870 C.3    34  LYS34       0.1596
     39  C        -21.0270    0.3040   87.7820 C.2    34  LYS34       0.2287
     40  O        -21.8160   -0.6140   87.5340 O.2    34  LYS34      -0.2864
     41  CB       -22.4260    2.3080   88.3280 C.3    34  LYS34       0.0298
     42  CG       -22.9930    3.6380   87.8690 C.3    34  LYS34       0.0038
     43  CD       -22.7150    4.7360   88.8800 C.3    34  LYS34       0.0206
     44  CE       -23.0750    6.0950   88.3150 C.3    34  LYS34       0.1093
     45  NZ       -24.5460    6.2150   88.1390 N.3    34  LYS34      -0.1314
     46  N        -20.4430   -2.5450   90.6410 N.3    36  ASP36      -0.1239
     47  CA       -20.7750   -2.9620   91.9940 C.3    36  ASP36       0.1674
     48  C        -20.6300   -4.4730   92.0630 C.2    36  ASP36       0.2266
     49  O        -20.8720   -5.1600   91.0630 O.2    36  ASP36      -0.2867
     50  CB       -22.1990   -2.5440   92.3840 C.3    36  ASP36       0.1410
     51  CG       -23.2390   -3.0630   91.4150 C.2    36  ASP36       0.3668
     52  OD1      -23.8100   -4.1400   91.6750 O.co2  36  ASP36      -0.2456
     53  OD2      -23.4810   -2.4000   90.3870 O.co2  36  ASP36      -0.2456
     54  N        -33.0370   -2.4290   95.1680 N.3    65  PHE65      -0.1241
     55  CA       -32.2030   -1.2670   94.8950 C.3    65  PHE65       0.1605
     56  C        -32.9520   -0.2200   94.0810 C.2    65  PHE65       0.2264
     57  O        -32.6660    0.9760   94.2080 O.2    65  PHE65      -0.2867
     58  CB       -30.9290   -1.6900   94.1700 C.3    65  PHE65       0.0534
     59  CG       -29.8780   -0.6230   94.1300 C.ar   65  PHE65      -0.0203
     60  CD1      -29.1390   -0.3220   95.2620 C.ar   65  PHE65      -0.0042
     61  CD2      -29.6300    0.0840   92.9650 C.ar   65  PHE65      -0.0042
     62  CE1      -28.1640    0.6550   95.2340 C.ar   65  PHE65      -0.0003
     63  CE2      -28.6590    1.0680   92.9300 C.ar   65  PHE65      -0.0003
     64  CZ       -27.9250    1.3540   94.0670 C.ar   65  PHE65      -0.0000
     65  N        -32.3990    4.5970   93.6230 N.3    70  SER70      -0.1217
     66  CA       -32.3140    4.7480   92.1730 C.3    70  SER70       0.1889
     67  C        -33.6890    4.9790   91.5580 C.2    70  SER70       0.2288
     68  O        -34.6380    4.2520   91.8540 O.2    70  SER70      -0.2866
     69  CB       -31.6610    3.5210   91.5330 C.3    70  SER70       0.2089
     70  OG       -31.4680    3.7210   90.1440 O.3    70  SER70      -0.2183
     71  N        -34.0910    5.1550   88.0660 N.3    72  ASP72      -0.1239
     72  CA       -33.8090    4.9400   86.6480 C.3    72  ASP72       0.1674
     73  C        -34.1480    3.4970   86.2960 C.2    72  ASP72       0.2266
     74  O        -33.3190    2.5910   86.4800 O.2    72  ASP72      -0.2867
     75  CB       -32.3500    5.2620   86.3290 C.3    72  ASP72       0.1410
     76  CG       -32.0590    5.2490   84.8410 C.2    72  ASP72       0.3668
     77  OD1      -33.0180    5.1830   84.0430 O.co2  72  ASP72      -0.2456
     78  OD2      -30.8680    5.3100   84.4700 O.co2  72  ASP72      -0.2456
     79  N        -34.3880    2.0930   83.3930 N.3    74  VAL74      -0.1231
     80  CA       -33.5920    1.5810   82.2810 C.3    74  VAL74       0.1692
     81  C        -32.2970    0.9620   82.7940 C.2    74  VAL74       0.2593
     82  O        -31.9760   -0.1900   82.4810 O.2    74  VAL74      -0.2718
     83  CB       -33.3260    2.6960   81.2530 C.3    74  VAL74       0.0266
     84  CG1      -32.0610    2.4090   80.4710 C.3    74  VAL74       0.0020
     85  CG2      -34.5090    2.8300   80.3060 C.3    74  VAL74       0.0020
     86  N        -31.5460    1.7060   83.6080 N.am   75  GLY75      -0.1942
     87  CA       -30.2710    1.1960   84.0870 C.3    75  GLY75       0.2014
     88  C        -30.4110   -0.0570   84.9280 C.2    75  GLY75       0.2638
     89  O        -29.5830   -0.9680   84.8470 O.2    75  GLY75      -0.2714
     90  N        -31.4620   -0.1250   85.7410 N.am   76  ILE76      -0.1977
     91  CA       -31.6440   -1.2690   86.6260 C.3    76  ILE76       0.1596
     92  C        -32.1510   -2.4810   85.8540 C.2    76  ILE76       0.2287
     93  O        -31.7830   -3.6210   86.1570 O.2    76  ILE76      -0.2864
     94  CB       -32.5770   -0.8740   87.7820 C.3    76  ILE76       0.0276
     95  CG1      -31.8640    0.1470   88.6650 C.3    76  ILE76       0.0022
     96  CG2      -32.9920   -2.0870   88.5940 C.3    76  ILE76       0.0022
     97  CD1      -32.7600    0.8280   89.6210 C.3    76  ILE76       0.0001
     98  N        -31.2410   -3.0420   82.8270 N.3    78  MET78      -0.1230
     99  CA       -30.0170   -3.4840   82.1650 C.3    78  MET78       0.1702
    100  C        -29.1410   -4.2900   83.1170 C.2    78  MET78       0.2592
    101  O        -28.6400   -5.3610   82.7570 O.2    78  MET78      -0.2718
    102  CB       -29.2420   -2.2790   81.6300 C.3    78  MET78       0.0401
    103  CG       -29.9630   -1.4520   80.5910 C.3    78  MET78       0.0596
    104  SD       -30.0280   -2.2260   78.9670 S.3    78  MET78      -0.1393
    105  CE       -28.2870   -2.6090   78.7040 C.3    78  MET78       0.0692
    106  N        -28.9380   -3.7790   84.3380 N.am   79  ASN79      -0.1974
    107  CA       -28.1650   -4.5070   85.3440 C.3    79  ASN79       0.1688
    108  C        -28.7830   -5.8680   85.6270 C.2    79  ASN79       0.2292
    109  O        -28.0670   -6.8640   85.7920 O.2    79  ASN79      -0.2864
    110  CB       -28.0720   -3.6720   86.6290 C.3    79  ASN79       0.1181
    111  CG       -27.1960   -4.3150   87.7050 C.2    79  ASN79       0.2629
    112  OD1      -27.4590   -5.4270   88.1680 O.2    79  ASN79      -0.2716
    113  ND2      -26.1470   -3.6040   88.1090 N.am   79  ASN79      -0.0877
    114  N        -28.5260   -8.3180   82.3770 N.3    82  LEU82      -0.1245
    115  CA       -27.1660   -8.8150   82.2040 C.3    82  LEU82       0.1561
    116  C        -26.7370   -9.6790   83.3820 C.2    82  LEU82       0.2260
    117  O        -26.0630  -10.6980   83.1960 O.2    82  LEU82      -0.2867
    118  CB       -26.2040   -7.6460   82.0090 C.3    82  LEU82       0.0270
    119  CG       -26.5570   -6.7580   80.8160 C.3    82  LEU82       0.0019
    120  CD1      -25.4780   -5.7230   80.6000 C.3    82  LEU82       0.0001
    121  CD2      -26.7850   -7.5860   79.5520 C.3    82  LEU82       0.0001
    122  N        -24.6140   -7.3870   76.2840 N.3   118  ALA118     -0.1245
    123  CA       -24.4550   -5.9750   76.6210 C.3   118  ALA118      0.1562
    124  C        -24.1570   -5.1450   75.3790 C.2   118  ALA118      0.2260
    125  O        -24.7280   -4.0650   75.1960 O.2   118  ALA118     -0.2867
    126  CB       -23.3530   -5.7920   77.6660 C.3   118  ALA118      0.0290
    127  N        -26.9010   -2.4300   74.4920 N.3   122  ASN122     -0.1240
    128  CA       -26.5080   -1.0250   74.5240 C.3   122  ASN122      0.1653
    129  C        -26.6440   -0.3560   73.1630 C.2   122  ASN122      0.2266
    130  O        -26.7560    0.8740   73.1000 O.2   122  ASN122     -0.2867
    131  CB       -25.0730   -0.8800   75.0340 C.3   122  ASN122      0.1155
    132  CG       -24.9790   -0.9800   76.5430 C.2   122  ASN122      0.2627
    133  OD1      -25.4490   -0.1000   77.2630 O.2   122  ASN122     -0.2716
    134  ND2      -24.3680   -2.0540   77.0300 N.am  122  ASN122     -0.0877
    135  N        -30.2280    0.7970   73.6490 N.3   125  ILE125     -0.1231
    136  CA       -30.6200    1.5430   74.8400 C.3   125  ILE125      0.1692
    137  C        -29.8960    2.8810   74.9440 C.2   125  ILE125      0.2591
    138  O        -30.5180    3.9020   75.2500 O.2   125  ILE125     -0.2718
    139  CB       -30.3830    0.6750   76.0910 C.3   125  ILE125      0.0266
    140  CG1      -31.1750   -0.6290   75.9860 C.3   125  ILE125      0.0019
    141  CG2      -30.7620    1.4340   77.3480 C.3   125  ILE125      0.0020
    142  CD1      -32.6560   -0.4300   75.7700 C.3   125  ILE125      0.0001
    143  N        -28.5830    2.9040   74.7050 N.am  126  VAL126     -0.1980
    144  CA       -27.8110    4.1300   74.9300 C.3   126  VAL126      0.1595
    145  C        -28.2750    5.2800   74.0400 C.2   126  VAL126      0.2287
    146  O        -28.4250    6.4020   74.5500 O.2   126  VAL126     -0.2864
    147  CB       -26.3050    3.8370   74.8010 C.3   126  VAL126      0.0276
    148  CG1      -25.5360    5.0940   74.4140 C.3   126  VAL126      0.0022
    149  CG2      -25.7620    3.2410   76.0970 C.3   126  VAL126      0.0022
    150  N        -31.6790    6.3760   75.5780 N.3   129  TYR129     -0.1241
    151  CA       -31.5140    6.9030   76.9290 C.3   129  TYR129      0.1605
    152  C        -30.9270    8.3100   76.9100 C.2   129  TYR129      0.2264
    153  O        -31.3050    9.1600   77.7260 O.2   129  TYR129     -0.2867
    154  CB       -30.6320    5.9440   77.7320 C.3   129  TYR129      0.0534
    155  CG       -30.2900    6.3610   79.1450 C.ar  129  TYR129     -0.0201
    156  CD1      -31.1580    6.0990   80.1970 C.ar  129  TYR129     -0.0009
    157  CD2      -29.0760    6.9720   79.4330 C.ar  129  TYR129     -0.0009
    158  CE1      -30.8380    6.4600   81.4940 C.ar  129  TYR129      0.0417
    159  CE2      -28.7470    7.3370   80.7260 C.ar  129  TYR129      0.0417
    160  CZ       -29.6320    7.0790   81.7520 C.ar  129  TYR129      0.1957
    161  OH       -29.3080    7.4400   83.0400 O.3   129  TYR129     -0.2866
    162  N        -17.9420    0.2920   76.8340 N.3   144  ILE144     -0.1245
    163  CA       -18.9410   -0.7260   77.1530 C.3   144  ILE144      0.1561
    164  C        -18.3020   -2.1090   77.1400 C.2   144  ILE144      0.2260
    165  O        -18.5290   -2.9280   78.0380 O.2   144  ILE144     -0.2867
    166  CB       -20.1290   -0.6460   76.1770 C.3   144  ILE144      0.0252
    167  CG1      -20.8420    0.7010   76.3040 C.3   144  ILE144      0.0019
    168  CG2      -21.1020   -1.7910   76.4270 C.3   144  ILE144      0.0019
    169  CD1      -21.8090    0.9850   75.1740 C.3   144  ILE144      0.0001
    170  N        -15.7090   -2.2520   80.1480 N.3   147  PHE147     -0.1227
    171  CA       -16.3950   -2.2820   81.4380 C.3   147  PHE147      0.1736
    172  C        -17.0170   -3.6460   81.7080 C.2   147  PHE147      0.2595
    173  O        -16.9080   -4.1750   82.8190 O.2   147  PHE147     -0.2718
    174  CB       -17.4630   -1.1890   81.4920 C.3   147  PHE147      0.0547
    175  CG       -18.3970   -1.3070   82.6620 C.ar  147  PHE147     -0.0202
    176  CD1      -18.0700   -0.7450   83.8840 C.ar  147  PHE147     -0.0042
    177  CD2      -19.6100   -1.9690   82.5380 C.ar  147  PHE147     -0.0042
    178  CE1      -18.9270   -0.8500   84.9630 C.ar  147  PHE147     -0.0003
    179  CE2      -20.4710   -2.0800   83.6130 C.ar  147  PHE147     -0.0003
    180  CZ       -20.1300   -1.5180   84.8270 C.ar  147  PHE147     -0.0000
    181  N        -17.6800   -4.2290   80.7070 N.am  148  ASN148     -0.1974
    182  CA       -18.3630   -5.4990   80.9300 C.3   148  ASN148      0.1688
    183  C        -17.3820   -6.6560   81.0680 C.2   148  ASN148      0.2292
    184  O        -17.6740   -7.6300   81.7700 O.2   148  ASN148     -0.2864
    185  CB       -19.3560   -5.7710   79.8020 C.3   148  ASN148      0.1181
    186  CG       -20.6910   -5.0860   80.0260 C.2   148  ASN148      0.2629
    187  OD1      -21.4890   -5.5160   80.8600 O.2   148  ASN148     -0.2716
    188  ND2      -20.9410   -4.0150   79.2800 N.am  148  ASN148     -0.0877
    189  N        -15.9690   -6.2030   84.6740 N.3   151  LYS151     -0.1231
    190  CA       -17.0150   -6.3920   85.6750 C.3   151  LYS151      0.1693
    191  C        -17.3120   -7.8710   85.8890 C.2   151  LYS151      0.2592
    192  O        -17.2350   -8.3790   87.0130 O.2   151  LYS151     -0.2718
    193  CB       -18.2810   -5.6400   85.2610 C.3   151  LYS151      0.0285
    194  CG       -19.5400   -6.1220   85.9640 C.3   151  LYS151      0.0035
    195  CD       -20.4420   -4.9630   86.3500 C.3   151  LYS151      0.0206
    196  CE       -21.7920   -5.4550   86.8460 C.3   151  LYS151      0.1093
    197  NZ       -22.6940   -5.8210   85.7190 N.3   151  LYS151     -0.1314
    198  N        -17.6600   -8.5820   84.8160 N.am  152  PHE152     -0.1976
    199  CA       -17.9190  -10.0100   84.9310 C.3   152  PHE152      0.1639
    200  C        -16.6400  -10.8240   85.0600 C.2   152  PHE152      0.2290
    201  O        -16.6880  -11.9530   85.5610 O.2   152  PHE152     -0.2864
    202  CB       -18.7320  -10.4960   83.7290 C.3   152  PHE152      0.0560
    203  CG       -20.0740   -9.8360   83.6050 C.ar  152  PHE152     -0.0200
    204  CD1      -21.0380  -10.0120   84.5830 C.ar  152  PHE152     -0.0042
    205  CD2      -20.3730   -9.0380   82.5160 C.ar  152  PHE152     -0.0042
    206  CE1      -22.2760   -9.4060   84.4760 C.ar  152  PHE152     -0.0003
    207  CE2      -21.6080   -8.4280   82.4030 C.ar  152  PHE152     -0.0003
    208  CZ       -22.5610   -8.6130   83.3850 C.ar  152  PHE152     -0.0000
@<TRIPOS>BOND
     1   130   129    2
     2   129   128    1
     3   135   136    1
     4   145   146    2
     5   145   144    1
     6   148   147    1
     7   127   128    1
     8   128   131    1
     9   143   144    1
    10   143   137   am
    11   147   144    1
    12   147   149    1
    13   136   137    1
    14   136   139    1
    15   137   138    2
    16   131   132    1
    17   169   167    1
    18   125   124    2
    19   124   123    1
    20   150   151    1
    21   142   140    1
    22   140   139    1
    23   139   141    1
    24   166   167    1
    25   166   168    1
    26   166   163    1
    27   122   123    1
    28   132   134   am
    29   132   133    2
    30   123   126    1
    31   162   163    1
    32   152   151    1
    33   152   153    2
    34   151   154    1
    35   164   163    1
    36   164   165    2
    37   154   155    1
    38    28    27   ar
    39    28    26   ar
    40   105   104    1
    41    27    25   ar
    42   104   103    1
    43   155   157   ar
    44   155   156   ar
    45    26    24   ar
    46   188   186   am
    47   157   159   ar
    48   121   119    1
    49   185   186    1
    50   185   182    1
    51    25    23   ar
    52   186   187    2
    53   170   171    1
    54    35    34    1
    55   156   158   ar
    56    85    83    1
    57    24    23   ar
    58    84    83    1
    59   103   102    1
    60   120   119    1
    61   181   182    1
    62   181   172   am
    63   159   160   ar
    64    23    22    1
    65   119   118    1
    66   182   183    1
    67    36    34    1
    68   183   184    2
    69    34    33    1
    70    83    80    1
    71   171   174    1
    72   171   172    1
    73   174   175    1
    74   158   160   ar
    75   102    99    1
    76   172   173    2
    77   160   161    1
    78   118   115    1
    79    22    19    1
    80    99    98    1
    81    99   100    1
    82   115   114    1
    83   115   116    1
    84    80    81    1
    85    80    79    1
    86   207   205   ar
    87   207   208   ar
    88    82    81    2
    89   205   203   ar
    90   177   175   ar
    91   177   179   ar
    92    33    30    1
    93   175   176   ar
    94   101   100    2
    95    81    86   am
    96    18    19    1
    97   100   106   am
    98   117   116    2
    99    29    20   am
   100    29    30    1
   101    19    20    1
   102   208   206   ar
   103    20    21    2
   104   203   202    1
   105   203   204   ar
   106    86    87    1
   107   179   180   ar
   108    30    31    1
   109   202   199    1
   110   176   178   ar
   111    77    76   ar
   112    87    88    1
   113   106   107    1
   114    78    76   ar
   115   206   204   ar
   116   189   190    1
   117   198   199    1
   118   198   191   am
   119   180   178   ar
   120    76    75    1
   121    89    88    2
   122    88    90   am
   123   199   200    1
   124    31    32    2
   125    31    37   am
   126   200   201    2
   127   193   190    1
   128   193   194    1
   129   107   108    1
   130   107   110    1
   131   108   109    2
   132   190   191    1
   133   197   196    1
   134    90    91    1
   135    92    93    2
   136    92    91    1
   137   191   192    2
   138   194   195    1
   139    37    38    1
   140    73    74    2
   141    73    72    1
   142    75    72    1
   143   195   196    1
   144    91    94    1
   145   110   111    1
   146    72    71    1
   147    38    39    1
   148    38    41    1
   149    40    39    2
   150   111   113   am
   151   111   112    2
   152    94    96    1
   153    94    95    1
   154    42    41    1
   155    42    43    1
   156    45    44    1
   157    44    43    1
   158    95    97    1
   159    70    69    1
   160    53    51   ar
   161    16    15   ar
   162    46    47    1
   163    49    48    2
   164    51    52   ar
   165    51    50    1
   166    69    66    1
   167    67    68    2
   168    67    66    1
   169    15    17   ar
   170    15    14    1
   171     8     7    1
   172    47    48    1
   173    47    50    1
   174    13    14    1
   175    13    10    1
   176    66    65    1
   177    11    10    1
   178    11    12    2
   179    10     9    1
   180    63    61   ar
   181    63    64   ar
   182    61    59   ar
   183     7     6    1
   184    64    62   ar
   185    56    57    2
   186    56    55    1
   187    59    58    1
   188    59    60   ar
   189    58    55    1
   190     5     6    1
   191     5     2    1
   192     4     3    2
   193    55    54    1
   194    62    60   ar
   195     2     3    1
   196     2     1    1
