@<TRIPOS>MOLECULE
tmp/5kc4A01.pdb
 98 91 0 0 0
SMALL
GASTEIGER

@<TRIPOS>ATOM
      1  N        -14.2200    9.0290    2.7420 N.3     8  PHE8       -0.1241
      2  CA       -14.7370    8.5750    4.0300 C.3     8  PHE8        0.1605
      3  C        -16.0310    7.7860    3.8590 C.2     8  PHE8        0.2264
      4  O        -16.2120    6.7210    4.4610 O.2     8  PHE8       -0.2867
      5  CB       -14.9560    9.7810    4.9470 C.3     8  PHE8        0.0534
      6  CG       -15.7790    9.4800    6.1680 C.ar    8  PHE8       -0.0203
      7  CD1      -15.2240    8.8320    7.2580 C.ar    8  PHE8       -0.0042
      8  CD2      -17.1190    9.8360    6.2180 C.ar    8  PHE8       -0.0042
      9  CE1      -15.9870    8.5660    8.3800 C.ar    8  PHE8       -0.0003
     10  CE2      -17.8880    9.5590    7.3340 C.ar    8  PHE8       -0.0003
     11  CZ       -17.3180    8.9220    8.4180 C.ar    8  PHE8       -0.0000
     12  N        -16.5350    3.5700    4.2820 N.3    12  PHE12      -0.1241
     13  CA       -17.5210    3.1430    5.2740 C.3    12  PHE12       0.1605
     14  C        -18.5970    2.2720    4.6420 C.2    12  PHE12       0.2264
     15  O        -19.0030    1.2570    5.2190 O.2    12  PHE12      -0.2867
     16  CB       -18.1380    4.3560    5.9720 C.3    12  PHE12       0.0534
     17  CG       -17.5020    4.6850    7.2760 C.ar   12  PHE12      -0.0203
     18  CD1      -18.2040    4.5110    8.4500 C.ar   12  PHE12      -0.0042
     19  CD2      -16.1960    5.1220    7.3370 C.ar   12  PHE12      -0.0042
     20  CE1      -17.6340    4.7950    9.6710 C.ar   12  PHE12      -0.0003
     21  CE2      -15.6100    5.4150    8.5540 C.ar   12  PHE12      -0.0003
     22  CZ       -16.3340    5.2600    9.7260 C.ar   12  PHE12      -0.0000
     23  N        -17.0310   -0.6570    3.9980 N.3    15  LEU15      -0.1245
     24  CA       -16.8880   -1.3200    5.2870 C.3    15  LEU15       0.1561
     25  C        -18.1670   -2.0500    5.6640 C.2    15  LEU15       0.2260
     26  O        -18.1160   -3.1730    6.1720 O.2    15  LEU15      -0.2867
     27  CB       -16.5220   -0.3080    6.3700 C.3    15  LEU15       0.0270
     28  CG       -16.3810   -0.8350    7.7890 C.3    15  LEU15       0.0019
     29  CD1      -15.5070   -2.0570    7.7470 C.3    15  LEU15       0.0001
     30  CD2      -15.7710    0.2340    8.6710 C.3    15  LEU15       0.0001
     31  N        -19.1600   -6.1250    6.5090 N.3    19  VAL19      -0.1245
     32  CA       -19.7840   -6.6110    7.7400 C.3    19  VAL19       0.1561
     33  C        -21.0310   -7.4310    7.4340 C.2    19  VAL19       0.2260
     34  O        -21.4380   -8.2860    8.2300 O.2    19  VAL19      -0.2867
     35  CB       -20.0910   -5.4180    8.6770 C.3    19  VAL19       0.0252
     36  CG1      -20.7640   -5.8790    9.9610 C.3    19  VAL19       0.0019
     37  CG2      -18.8170   -4.6690    9.0300 C.3    19  VAL19       0.0019
     38  N        -24.7780   -6.4060   11.3590 N.3    37  PRO37      -0.2116
     39  CA       -24.6450   -5.0960   12.0090 C.3    37  PRO37       0.1372
     40  C        -24.0710   -4.0320   11.0880 C.2    37  PRO37       0.2244
     41  O        -23.4300   -3.0850   11.5550 O.2    37  PRO37      -0.2868
     42  CB       -23.7010   -5.3850   13.1820 C.3    37  PRO37       0.0268
     43  CG       -22.8570   -6.5220   12.7020 C.3    37  PRO37       0.0207
     44  CD       -23.6260   -7.2810   11.6400 C.3    37  PRO37       0.0892
     45  N        -24.7880    0.0010   11.2730 N.3    40  ILE40      -0.1231
     46  CA       -24.1220    0.8450   12.2600 C.3    40  ILE40       0.1678
     47  C        -23.1500    1.7930   11.5580 C.2    40  ILE40       0.2434
     48  O        -23.0260    2.9530   11.9800 O.2    40  ILE40      -0.2733
     49  CB       -23.4330   -0.0210   13.3260 C.3    40  ILE40       0.0265
     50  CG1      -24.4640   -0.9680   13.9470 C.3    40  ILE40       0.0019
     51  CG2      -22.7840    0.8460   14.3920 C.3    40  ILE40       0.0020
     52  CD1      -23.9170   -1.8500   15.0380 C.3    40  ILE40       0.0001
     53  N        -22.4330    1.3650   10.5050 N.am   41  PRO41      -0.2729
     54  CA       -21.6990    2.3520    9.6890 C.3    41  PRO41       0.1401
     55  C        -22.5740    3.4560    9.1250 C.2    41  PRO41       0.2269
     56  O        -22.2210    4.6370    9.2250 O.2    41  PRO41      -0.2865
     57  CB       -21.1010    1.4880    8.5730 C.3    41  PRO41       0.0296
     58  CG       -20.8270    0.1990    9.2380 C.3    41  PRO41       0.0237
     59  CD       -21.9800   -0.0090   10.2020 C.3    41  PRO41       0.0939
     60  N        -23.7340    5.9580   11.6850 N.3    44  ILE44      -0.1245
     61  CA       -22.6810    6.9040   12.0380 C.3    44  ILE44       0.1561
     62  C        -22.4990    7.9340   10.9300 C.2    44  ILE44       0.2260
     63  O        -22.3570    9.1330   11.1970 O.2    44  ILE44      -0.2867
     64  CB       -21.3710    6.1540   12.3460 C.3    44  ILE44       0.0252
     65  CG1      -21.4860    5.3980   13.6720 C.3    44  ILE44       0.0019
     66  CG2      -20.1830    7.1080   12.3780 C.3    44  ILE44       0.0019
     67  CD1      -20.4350    4.3220   13.8630 C.3    44  ILE44       0.0001
     68  N        -23.0620   12.2930   11.1280 N.3    48  LEU48      -0.1245
     69  CA       -22.0530   13.2850   10.7800 C.3    48  LEU48       0.1561
     70  C        -22.4420   14.0500    9.5220 C.2    48  LEU48       0.2260
     71  O        -22.4530   15.2860    9.5150 O.2    48  LEU48      -0.2867
     72  CB       -20.6910   12.6150   10.5940 C.3    48  LEU48       0.0270
     73  CG       -20.1900   11.6540   11.6740 C.3    48  LEU48       0.0019
     74  CD1      -19.1780   10.6890   11.0850 C.3    48  LEU48       0.0001
     75  CD2      -19.5880   12.4170   12.8460 C.3    48  LEU48       0.0001
     76  N        -25.8520    0.1650   20.0540 N.3   158  VAL158     -0.1245
     77  CA       -24.4310   -0.0490   19.7980 C.3   158  VAL158      0.1561
     78  C        -23.8000    1.2270   19.2590 C.2   158  VAL158      0.2260
     79  O        -22.7150    1.6330   19.6920 O.2   158  VAL158     -0.2867
     80  CB       -24.2190   -1.2370   18.8430 C.3   158  VAL158      0.0252
     81  CG1      -22.7880   -1.2380   18.3280 C.3   158  VAL158      0.0019
     82  CG2      -24.5150   -2.5380   19.5670 C.3   158  VAL158      0.0019
     83  N        -20.7950    3.7020   20.8260 N.3   162  VAL162     -0.1245
     84  CA       -19.6610    4.1840   20.0480 C.3   162  VAL162      0.1561
     85  C        -19.4470    5.6690   20.2950 C.2   162  VAL162      0.2260
     86  O        -18.3190    6.1210   20.5260 O.2   162  VAL162     -0.2867
     87  CB       -19.8650    3.8850   18.5530 C.3   162  VAL162      0.0252
     88  CG1      -18.8660    4.6680   17.7180 C.3   162  VAL162      0.0019
     89  CG2      -19.7190    2.3970   18.2940 C.3   162  VAL162      0.0019
     90  N        -18.2180    5.8450   23.9560 N.3   165  LYS165     -0.1245
     91  CA       -16.8070    5.4810   23.9830 C.3   165  LYS165      0.1561
     92  C        -15.9880    6.3980   23.0790 C.2   165  LYS165      0.2260
     93  O        -15.7010    6.0630   21.9250 O.2   165  LYS165     -0.2867
     94  CB       -16.6450    4.0080   23.5840 C.3   165  LYS165      0.0271
     95  CG       -15.2170    3.4840   23.3970 C.3   165  LYS165      0.0035
     96  CD       -15.0450    2.9630   21.9690 C.3   165  LYS165      0.0206
     97  CE       -15.5700    1.5420   21.8250 C.3   165  LYS165      0.1093
     98  NZ       -14.8870    0.7680   20.7530 N.3   165  LYS165     -0.1314
@<TRIPOS>BOND
     1     1     2    1
     2     3     2    1
     3     3     4    2
     4    23    24    1
     5     2     5    1
     6    12    13    1
     7    14    15    2
     8    14    13    1
     9     5     6    1
    10    13    16    1
    11    24    25    1
    12    24    27    1
    13    25    26    2
    14    16    17    1
    15     6     8   ar
    16     6     7   ar
    17     8    10   ar
    18    27    28    1
    19    31    32    1
    20     7     9   ar
    21    17    19   ar
    22    17    18   ar
    23    10    11   ar
    24    19    21   ar
    25    33    32    1
    26    33    34    2
    27    32    35    1
    28    29    28    1
    29    28    30    1
    30     9    11   ar
    31    18    20   ar
    32    21    22   ar
    33    57    58    1
    34    57    54    1
    35    35    37    1
    36    35    36    1
    37    55    56    2
    38    55    54    1
    39    58    59    1
    40    71    70    2
    41    70    69    1
    42    20    22   ar
    43    54    53    1
    44    59    53    1
    45    53    47   am
    46    72    69    1
    47    72    73    1
    48    69    68    1
    49    62    63    2
    50    62    61    1
    51    74    73    1
    52    40    41    2
    53    40    39    1
    54    45    46    1
    55    38    44    1
    56    38    39    1
    57    47    48    2
    58    47    46    1
    59    44    43    1
    60    73    75    1
    61    60    61    1
    62    39    42    1
    63    61    64    1
    64    46    49    1
    65    64    66    1
    66    64    65    1
    67    43    42    1
    68    49    50    1
    69    49    51    1
    70    65    67    1
    71    50    52    1
    72    88    87    1
    73    89    87    1
    74    81    80    1
    75    87    84    1
    76    80    82    1
    77    80    77    1
    78    78    79    2
    79    78    77    1
    80    77    76    1
    81    84    85    1
    82    84    83    1
    83    85    86    2
    84    98    97    1
    85    97    96    1
    86    93    92    2
    87    96    95    1
    88    92    91    1
    89    95    94    1
    90    94    91    1
    91    90    91    1
