@<TRIPOS>MOLECULE
tmp/5kcbA00.pdb
 135 130 0 0 0
SMALL
GASTEIGER

@<TRIPOS>ATOM
      1  N         -8.6780    2.2840    9.6080 N.3    27  GLN27      -0.1245
      2  CA        -7.9180    2.0830    8.3900 C.3    27  GLN27       0.1566
      3  C         -7.2140    0.7370    8.4290 C.2    27  GLN27       0.2260
      4  O         -7.1010    0.0590    7.4270 O.2    27  GLN27      -0.2867
      5  CB        -6.9860    3.2550    8.1320 C.3    27  GLN27       0.0367
      6  CG        -7.7490    4.5040    7.7300 C.3    27  GLN27       0.0905
      7  CD        -8.4790    4.3500    6.4010 C.2    27  GLN27       0.2608
      8  OE1       -7.9220    3.8570    5.4260 O.2    27  GLN27      -0.2717
      9  NE2       -9.7260    4.7760    6.3630 N.am   27  GLN27      -0.0878
     10  N        -10.4870   -1.8060    7.8740 N.3    30  ILE30      -0.1231
     11  CA       -11.4710   -1.6510    6.8100 C.3    30  ILE30       0.1692
     12  C        -11.2460   -2.6080    5.6420 C.2    30  ILE30       0.2591
     13  O        -12.1840   -3.1950    5.1480 O.2    30  ILE30      -0.2718
     14  CB       -11.5310   -0.1710    6.3350 C.3    30  ILE30       0.0266
     15  CG1      -12.3400    0.6660    7.3150 C.3    30  ILE30       0.0019
     16  CG2      -12.1570   -0.0030    4.9640 C.3    30  ILE30       0.0020
     17  CD1      -11.9710    2.1210    7.3210 C.3    30  ILE30       0.0001
     18  N        -10.0030   -2.7750    5.2290 N.am   31  ALA31      -0.1980
     19  CA        -9.7060   -3.6570    4.1210 C.3    31  ALA31       0.1597
     20  C        -10.1500   -5.0570    4.4810 C.2    31  ALA31       0.2287
     21  O        -10.7090   -5.7490    3.6690 O.2    31  ALA31      -0.2864
     22  CB        -8.2340   -3.6110    3.7730 C.3    31  ALA31       0.0319
     23  N        -13.9910   -5.4420    4.2890 N.3    34  TRP34      -0.1227
     24  CA       -14.4140   -5.6200    2.9210 C.3    34  TRP34       0.1737
     25  C        -14.1480   -7.0630    2.4930 C.2    34  TRP34       0.2595
     26  O        -14.9860   -7.6840    1.8760 O.2    34  TRP34      -0.2718
     27  CB       -13.6650   -4.6820    1.9940 C.3    34  TRP34       0.0564
     28  CG       -14.2100   -3.3090    1.8880 C.ar   34  TRP34       0.0003
     29  CD1      -13.7590   -2.2100    2.5220 C.ar   34  TRP34       0.0946
     30  CD2      -15.2970   -2.8780    1.0720 C.ar   34  TRP34       0.0152
     31  NE1      -14.4940   -1.1260    2.1740 N.ar   34  TRP34      -0.2442
     32  CE2      -15.4470   -1.5070    1.2780 C.ar   34  TRP34       0.0810
     33  CE3      -16.1580   -3.5210    0.1930 C.ar   34  TRP34       0.0012
     34  CZ2      -16.4110   -0.7720    0.6430 C.ar   34  TRP34       0.0191
     35  CZ3      -17.1120   -2.7950   -0.4290 C.ar   34  TRP34       0.0001
     36  CH2      -17.2350   -1.4330   -0.2100 C.ar   34  TRP34       0.0015
     37  N        -12.9730   -7.5770    2.8480 N.am   35  GLN35      -0.1979
     38  CA       -12.5790   -8.9350    2.4980 C.3    35  GLN35       0.1601
     39  C        -13.5450   -9.9340    3.1110 C.2    35  GLN35       0.2287
     40  O        -13.9560  -10.8590    2.4530 O.2    35  GLN35      -0.2864
     41  CB       -11.1280   -9.2140    2.9200 C.3    35  GLN35       0.0394
     42  CG       -10.1000   -8.7670    1.8890 C.3    35  GLN35       0.0908
     43  CD        -8.7240   -8.4000    2.4500 C.2    35  GLN35       0.2608
     44  OE1       -8.2720   -8.9300    3.4680 O.2    35  GLN35      -0.2717
     45  NE2       -8.0430   -7.4980    1.7600 N.am   35  GLN35      -0.0878
     46  N        -16.9840   -9.7730    1.2150 N.3    38  TYR38      -0.1241
     47  CA       -16.9420  -10.4570   -0.0660 C.3    38  TYR38       0.1605
     48  C        -16.9440  -11.9870    0.0990 C.2    38  TYR38       0.2264
     49  O        -17.6810  -12.6920   -0.5600 O.2    38  TYR38      -0.2867
     50  CB       -15.6980  -10.0560   -0.8500 C.3    38  TYR38       0.0534
     51  CG       -15.8690   -8.8720   -1.7640 C.ar   38  TYR38      -0.0201
     52  CD1      -16.7160   -8.9280   -2.8530 C.ar   38  TYR38      -0.0009
     53  CD2      -15.1680   -7.7130   -1.5550 C.ar   38  TYR38      -0.0009
     54  CE1      -16.8750   -7.8500   -3.6840 C.ar   38  TYR38       0.0417
     55  CE2      -15.3140   -6.6350   -2.3840 C.ar   38  TYR38       0.0417
     56  CZ       -16.1710   -6.7050   -3.4460 C.ar   38  TYR38       0.1957
     57  OH       -16.3080   -5.6230   -4.2650 O.3    38  TYR38      -0.2866
     58  N        -21.7530    0.6320   -4.3800 N.3    57  ILE57      -0.1245
     59  CA       -21.7300    0.2260   -3.0020 C.3    57  ILE57       0.1561
     60  C        -21.0610    1.3480   -2.2610 C.2    57  ILE57       0.2260
     61  O        -20.1350    1.9370   -2.7520 O.2    57  ILE57      -0.2867
     62  CB       -20.9170   -1.0460   -2.7940 C.3    57  ILE57       0.0252
     63  CG1      -21.4610   -2.1730   -3.6430 C.3    57  ILE57       0.0019
     64  CG2      -20.9460   -1.4490   -1.3420 C.3    57  ILE57       0.0019
     65  CD1      -20.4700   -3.2840   -3.8480 C.3    57  ILE57       0.0001
     66  N         -7.7850    0.4590   -6.3630 N.3   105  VAL105     -0.1231
     67  CA        -8.2620    0.5250   -5.0050 C.3   105  VAL105      0.1678
     68  C         -7.4070   -0.4230   -4.2060 C.2   105  VAL105      0.2434
     69  O         -7.0570   -1.4540   -4.7380 O.2   105  VAL105     -0.2733
     70  CB        -9.7060    0.0520   -4.9130 C.3   105  VAL105      0.0265
     71  CG1      -10.1750   -0.0290   -3.4800 C.3   105  VAL105      0.0020
     72  CG2      -10.6140    0.9370   -5.7390 C.3   105  VAL105      0.0020
     73  N         -7.0720   -0.0840   -2.9720 N.am  106  PRO106     -0.2729
     74  CA        -7.4970    1.1630   -2.3450 C.3   106  PRO106      0.1401
     75  C         -6.4380    2.2390   -2.2480 C.2   106  PRO106      0.2269
     76  O         -6.7310    3.2840   -1.7020 O.2   106  PRO106     -0.2865
     77  CB        -7.8130    0.7110   -0.9350 C.3   106  PRO106      0.0296
     78  CG        -6.8060   -0.3410   -0.6930 C.3   106  PRO106      0.0237
     79  CD        -6.8050   -1.1140   -1.9660 C.3   106  PRO106      0.0939
     80  N         -6.8530    6.0600   -0.8150 N.3   110  GLN110     -0.1245
     81  CA        -6.2000    6.5720    0.3700 C.3   110  GLN110      0.1566
     82  C         -5.4300    7.8310    0.0780 C.2   110  GLN110      0.2260
     83  O         -5.5080    8.7840    0.8250 O.2   110  GLN110     -0.2867
     84  CB        -5.2040    5.5550    0.9270 C.3   110  GLN110      0.0367
     85  CG        -5.7710    4.1920    1.2540 C.3   110  GLN110      0.0905
     86  CD        -4.7000    3.1270    1.4760 C.2   110  GLN110      0.2608
     87  OE1       -4.9620    1.9460    1.3190 O.2   110  GLN110     -0.2717
     88  NE2       -3.5050    3.5390    1.8550 N.am  110  GLN110     -0.0878
     89  N        -17.2750    6.7980    0.4320 N.3   135  GLU135     -0.1245
     90  CA       -16.6370    6.4200   -0.8110 C.3   135  GLU135      0.1567
     91  C        -17.7050    5.6520   -1.5500 C.2   135  GLU135      0.2260
     92  O        -18.3790    4.8160   -0.9800 O.2   135  GLU135     -0.2867
     93  CB       -15.4330    5.5160   -0.5790 C.3   135  GLU135      0.0388
     94  CG       -14.3280    6.1140    0.2480 C.3   135  GLU135      0.1160
     95  CD       -13.6540    5.1100    1.1590 C.2   135  GLU135      0.3649
     96  OE1      -13.7050    3.9020    0.9000 O.co2 135  GLU135     -0.2457
     97  OE2      -13.0630    5.5390    2.1540 O.co2 135  GLU135     -0.2457
     98  N        -18.3730    3.1650   -4.7010 N.3   137  TYR137     -0.1241
     99  CA       -17.7210    2.2730   -5.6560 C.3   137  TYR137      0.1605
    100  C        -18.6520    1.7490   -6.7330 C.2   137  TYR137      0.2264
    101  O        -19.5040    0.9270   -6.4870 O.2   137  TYR137     -0.2867
    102  CB       -17.0950    1.1000   -4.9080 C.3   137  TYR137      0.0534
    103  CG       -16.0160    1.5200   -3.9650 C.ar  137  TYR137     -0.0201
    104  CD1      -14.7440    1.7330   -4.4100 C.ar  137  TYR137     -0.0009
    105  CD2      -16.2790    1.7380   -2.6370 C.ar  137  TYR137     -0.0009
    106  CE1      -13.7530    2.1360   -3.5650 C.ar  137  TYR137      0.0417
    107  CE2      -15.2900    2.1430   -1.7800 C.ar  137  TYR137      0.0417
    108  CZ       -14.0260    2.3470   -2.2570 C.ar  137  TYR137      0.1957
    109  OH       -13.0240    2.7490   -1.4410 O.3   137  TYR137     -0.2866
    110  N        -11.6560   -2.8260  -10.0950 N.3   142  THR142     -0.1203
    111  CA       -10.9590   -2.0710   -9.0600 C.3   142  THR142      0.1994
    112  C         -9.4770   -1.9750   -9.3300 C.2   142  THR142      0.2618
    113  O         -8.8340   -1.0000   -8.9870 O.2   142  THR142     -0.2717
    114  CB       -11.1650   -2.7250   -7.6920 C.3   142  THR142      0.1784
    115  OG1      -12.5480   -2.6570   -7.3480 O.3   142  THR142     -0.2211
    116  CG2      -10.3760   -2.0320   -6.6360 C.3   142  THR142      0.0376
    117  N         -8.9590   -3.0240   -9.9350 N.am  143  THR143     -0.1952
    118  CA        -7.5460   -3.1550  -10.2590 C.3   143  THR143      0.1897
    119  C         -7.0320   -2.1430  -11.2680 C.2   143  THR143      0.2313
    120  O         -5.9010   -1.6800  -11.1870 O.2   143  THR143     -0.2863
    121  CB        -7.2780   -4.5630  -10.7700 C.3   143  THR143      0.1794
    122  OG1       -8.2370   -4.8600  -11.7900 O.3   143  THR143     -0.2208
    123  CG2       -7.4610   -5.5500   -9.6190 C.3   143  THR143      0.0378
    124  N         -9.7350    3.1470  -12.9760 N.3   147  TYR147     -0.1241
    125  CA       -10.9270    3.0570  -12.1510 C.3   147  TYR147      0.1605
    126  C        -11.1610    4.3110  -11.3320 C.2   147  TYR147      0.2264
    127  O        -10.2360    4.9080  -10.8120 O.2   147  TYR147     -0.2867
    128  CB       -10.8490    1.8780  -11.2020 C.3   147  TYR147      0.0534
    129  CG       -12.0780    1.7340  -10.3590 C.ar  147  TYR147     -0.0201
    130  CD1      -13.1690    1.0540  -10.8230 C.ar  147  TYR147     -0.0009
    131  CD2      -12.1530    2.2950   -9.1020 C.ar  147  TYR147     -0.0009
    132  CE1      -14.3050    0.9200  -10.0620 C.ar  147  TYR147      0.0417
    133  CE2      -13.2830    2.1620   -8.3350 C.ar  147  TYR147      0.0417
    134  CZ       -14.3590    1.4790   -8.8210 C.ar  147  TYR147      0.1957
    135  OH       -15.4920    1.3370   -8.0700 O.3   147  TYR147     -0.2866
@<TRIPOS>BOND
     1   124   125    1
     2   125   126    1
     3   125   128    1
     4   122   121    1
     5   126   127    2
     6   119   120    2
     7   119   118    1
     8   128   129    1
     9   130   129   ar
    10   130   132   ar
    11   121   118    1
    12   121   123    1
    13   129   131   ar
    14   118   117    1
    15   110   111    1
    16   132   134   ar
    17   117   112   am
    18   112   111    1
    19   112   113    2
    20   131   133   ar
    21   111   114    1
    22   134   133   ar
    23   134   135    1
    24   114   115    1
    25   114   116    1
    26   100   101    2
    27   100    99    1
    28    66    67    1
    29    72    70    1
    30    99   102    1
    31    99    98    1
    32    67    70    1
    33    67    68    1
    34    70    71    1
    35   102   103    1
    36    69    68    2
    37   104   103   ar
    38   104   106   ar
    39    58    59    1
    40    57    56    1
    41    68    73   am
    42   103   105   ar
    43    65    63    1
    44    54    56   ar
    45    54    52   ar
    46    63    62    1
    47   106   108   ar
    48    56    55   ar
    49    59    62    1
    50    59    60    1
    51    73    74    1
    52    73    79    1
    53    52    51   ar
    54    62    64    1
    55    61    60    2
    56   105   107   ar
    57    55    53   ar
    58    74    75    1
    59    74    77    1
    60   108   107   ar
    61   108   109    1
    62    75    76    2
    63    79    78    1
    64    51    53   ar
    65    51    50    1
    66    91    92    2
    67    91    90    1
    68    77    78    1
    69    50    47    1
    70    80    81    1
    71    90    93    1
    72    90    89    1
    73    93    94    1
    74    49    48    2
    75    35    36   ar
    76    35    33   ar
    77    36    34   ar
    78    47    48    1
    79    47    46    1
    80    82    81    1
    81    82    83    2
    82    33    30   ar
    83    94    95    1
    84    81    84    1
    85    34    32   ar
    86    96    95   ar
    87    84    85    1
    88    30    32   ar
    89    30    28   ar
    90    95    97   ar
    91    85    86    1
    92    32    31   ar
    93    87    86    2
    94    86    88   am
    95    45    43   am
    96    26    25    2
    97    28    27    1
    98    28    29   ar
    99    42    43    1
   100    42    41    1
   101    27    24    1
   102    31    29   ar
   103    43    44    2
   104    40    39    2
   105    25    37   am
   106    25    24    1
   107    38    37    1
   108    38    41    1
   109    38    39    1
   110    24    23    1
   111    21    20    2
   112    22    19    1
   113    19    20    1
   114    19    18    1
   115    16    14    1
   116    13    12    2
   117    18    12   am
   118     8     7    2
   119    12    11    1
   120    14    11    1
   121    14    15    1
   122     9     7   am
   123     7     6    1
   124    11    10    1
   125    15    17    1
   126     4     3    2
   127     6     5    1
   128     5     2    1
   129     2     3    1
   130     2     1    1
