@<TRIPOS>MOLECULE
tmp/5kcdA01.pdb
 214 202 0 0 0
SMALL
GASTEIGER

@<TRIPOS>ATOM
      1  N         32.2070   11.2620    5.8770 N.3    39  MET39      -0.1245
      2  CA        31.9020   12.6300    6.2920 C.3    39  MET39       0.1570
      3  C         32.2150   13.6260    5.1660 C.2    39  MET39       0.2261
      4  O         31.4990   14.6100    4.9870 O.2    39  MET39      -0.2867
      5  CB        32.6810   13.0040    7.5540 C.3    39  MET39       0.0387
      6  CG        32.0750   12.4480    8.8220 C.3    39  MET39       0.0595
      7  SD        30.3300   12.9490    9.0130 S.3    39  MET39      -0.1393
      8  CE        30.5410   14.7280    9.1120 C.3    39  MET39       0.0692
      9  N         29.3150   13.3910    2.5730 N.3    42  LEU42      -0.1231
     10  CA        28.0770   13.9960    3.0410 C.3    42  LEU42       0.1693
     11  C         28.2170   15.5100    3.1350 C.2    42  LEU42       0.2592
     12  O         27.2770   16.2550    2.8240 O.2    42  LEU42      -0.2718
     13  CB        27.6660   13.3950    4.3960 C.3    42  LEU42       0.0284
     14  CG        27.4450   11.8820    4.3740 C.3    42  LEU42       0.0019
     15  CD1       27.0170   11.3360    5.7380 C.3    42  LEU42       0.0001
     16  CD2       26.4220   11.5210    3.3160 C.3    42  LEU42       0.0001
     17  N         29.3810   15.9710    3.5810 N.am   43  THR43      -0.1953
     18  CA        29.5920   17.4030    3.7500 C.3    43  THR43       0.1897
     19  C         29.5760   18.1050    2.3930 C.2    43  THR43       0.2313
     20  O         28.9500   19.1580    2.2350 O.2    43  THR43      -0.2863
     21  CB        30.9090   17.6890    4.4870 C.3    43  THR43       0.1794
     22  OG1       30.8000   17.1890    5.8270 O.3    43  THR43      -0.2208
     23  CG2       31.1790   19.1670    4.5320 C.3    43  THR43       0.0378
     24  N         28.1310   17.0400   -0.4020 N.3    45  LEU45      -0.1231
     25  CA        26.7400   16.9880   -0.8730 C.3    45  LEU45       0.1693
     26  C         25.8700   18.0730   -0.2270 C.2    45  LEU45       0.2591
     27  O         25.2090   18.8550   -0.9260 O.2    45  LEU45      -0.2718
     28  CB        26.1300   15.6080   -0.5920 C.3    45  LEU45       0.0284
     29  CG        24.6740   15.3750   -1.0440 C.3    45  LEU45       0.0019
     30  CD1       24.5180   15.5550   -2.5320 C.3    45  LEU45       0.0001
     31  CD2       24.2080   13.9790   -0.6230 C.3    45  LEU45       0.0001
     32  N         25.8920   18.1270    1.1040 N.am   46  ALA46      -0.1980
     33  CA        25.0930   19.0980    1.8400 C.3    46  ALA46       0.1597
     34  C         25.4420   20.5160    1.4200 C.2    46  ALA46       0.2287
     35  O         24.5530   21.3510    1.2440 O.2    46  ALA46      -0.2864
     36  CB        25.2870   18.9240    3.3500 C.3    46  ALA46       0.0319
     37  N         23.9530   21.2600   -1.8240 N.3    49  GLU49      -0.1245
     38  CA        22.5070   21.3630   -1.6280 C.3    49  GLU49       0.1567
     39  C         22.0880   22.6910   -1.0140 C.2    49  GLU49       0.2260
     40  O         21.0030   23.2110   -1.3090 O.2    49  GLU49      -0.2867
     41  CB        21.9980   20.2390   -0.7370 C.3    49  GLU49       0.0388
     42  CG        22.0100   18.8730   -1.3820 C.3    49  GLU49       0.1160
     43  CD        21.3280   17.8580   -0.5050 C.2    49  GLU49       0.3649
     44  OE1       22.0090   17.2680    0.3690 O.co2  49  GLU49      -0.2457
     45  OE2       20.0950   17.6740   -0.6560 O.co2  49  GLU49      -0.2457
     46  N         18.2290   24.7160    8.2810 N.3    79  TRP79      -0.1227
     47  CA        18.8620   24.0660    7.1230 C.3    79  TRP79       0.1737
     48  C         19.0020   22.5320    7.2580 C.2    79  TRP79       0.2595
     49  O         18.7840   21.8200    6.2870 O.2    79  TRP79      -0.2718
     50  CB        20.2410   24.6950    6.8510 C.3    79  TRP79       0.0564
     51  CG        21.3080   24.4160    7.9060 C.ar   79  TRP79       0.0003
     52  CD1       21.5530   25.1350    9.0520 C.ar   79  TRP79       0.0946
     53  CD2       22.2530   23.3410    7.9000 C.ar   79  TRP79       0.0152
     54  NE1       22.5940   24.5630    9.7610 N.ar   79  TRP79      -0.2442
     55  CE2       23.0510   23.4650    9.0610 C.ar   79  TRP79       0.0810
     56  CE3       22.5090   22.2730    7.0240 C.ar   79  TRP79       0.0012
     57  CZ2       24.0720   22.5630    9.3760 C.ar   79  TRP79       0.0191
     58  CZ3       23.5260   21.3760    7.3340 C.ar   79  TRP79       0.0001
     59  CH2       24.3020   21.5350    8.4870 C.ar   79  TRP79       0.0015
     60  N         19.3480   22.0300    8.4460 N.am   80  LEU80      -0.1980
     61  CA        19.5310   20.5790    8.5860 C.3    80  LEU80       0.1596
     62  C         18.1720   19.8770    8.6050 C.2    80  LEU80       0.2287
     63  O         18.0080   18.8080    7.9990 O.2    80  LEU80      -0.2864
     64  CB        20.3630   20.2400    9.8390 C.3    80  LEU80       0.0297
     65  CG        20.7460   18.7530   10.0160 C.3    80  LEU80       0.0022
     66  CD1       21.4580   18.2190    8.7530 C.3    80  LEU80       0.0001
     67  CD2       21.6670   18.5220   11.2230 C.3    80  LEU80       0.0001
     68  N         17.2770   19.6450    4.9720 N.3    83  LEU83      -0.1231
     69  CA        18.0350   18.5980    4.2840 C.3    83  LEU83       0.1693
     70  C         17.4670   17.2470    4.6750 C.2    83  LEU83       0.2591
     71  O         17.3360   16.3450    3.8600 O.2    83  LEU83      -0.2718
     72  CB        19.5280   18.6500    4.6420 C.3    83  LEU83       0.0284
     73  CG        20.3630   19.7870    4.0370 C.3    83  LEU83       0.0019
     74  CD1       21.8570   19.6540    4.4550 C.3    83  LEU83       0.0001
     75  CD2       20.2100   19.8550    2.5210 C.3    83  LEU83       0.0001
     76  N         17.1560   17.1210    5.9570 N.am   84  MET84      -0.1979
     77  CA        16.6320   15.8750    6.4860 C.3    84  MET84       0.1605
     78  C         15.2620   15.5130    5.9430 C.2    84  MET84       0.2287
     79  O         15.0230   14.3540    5.6050 O.2    84  MET84      -0.2864
     80  CB        16.5630   15.9430    8.0090 C.3    84  MET84       0.0413
     81  CG        17.9490   15.7410    8.6550 C.3    84  MET84       0.0598
     82  SD        17.7870   15.7750   10.4600 S.3    84  MET84      -0.1393
     83  CE        19.3690   15.1060   10.9180 C.3    84  MET84       0.0692
     84  N         15.7540   14.2170    2.5350 N.3    87  LEU87      -0.1245
     85  CA        16.3410   12.8640    2.5260 C.3    87  LEU87       0.1561
     86  C         15.2800   11.8000    2.8090 C.2    87  LEU87       0.2260
     87  O         15.1820   10.7720    2.1390 O.2    87  LEU87      -0.2867
     88  CB        17.4500   12.7570    3.5680 C.3    87  LEU87       0.0270
     89  CG        18.0740   11.3730    3.7300 C.3    87  LEU87       0.0019
     90  CD1       18.8110   11.0270    2.4180 C.3    87  LEU87       0.0001
     91  CD2       19.0400   11.3780    4.9270 C.3    87  LEU87       0.0001
     92  N         12.9110   11.3520   -0.2540 N.3    90  ARG90      -0.1245
     93  CA        13.3620   10.6400   -1.4400 C.3    90  ARG90       0.1563
     94  C         13.7220    9.2050   -1.0890 C.2    90  ARG90       0.2260
     95  O         13.8030    8.3510   -1.9690 O.2    90  ARG90      -0.2867
     96  CB        14.5260   11.3650   -2.1300 C.3    90  ARG90       0.0307
     97  CG        15.7430   11.6490   -1.3330 C.3    90  ARG90       0.0489
     98  CD        16.7340   12.4820   -2.1990 C.3    90  ARG90       0.2205
     99  NE        17.9550   12.7500   -1.4540 N.pl3  90  ARG90      -0.0865
    100  CZ        18.1500   13.8380   -0.7120 C.cat  90  ARG90       0.5346
    101  NH1       17.2200   14.7840   -0.6710 N.pl3  90  ARG90       0.1354
    102  NH2       19.2820   13.9940   -0.0300 N.pl3  90  ARG90       0.1354
    103  N         20.7360    9.2990   -0.1420 N.3   100  PHE100     -0.1241
    104  CA        21.3680   10.6160   -0.0450 C.3   100  PHE100      0.1605
    105  C         21.4640   11.2670   -1.4080 C.2   100  PHE100      0.2264
    106  O         21.3250   12.4810   -1.5460 O.2   100  PHE100     -0.2867
    107  CB        22.7570   10.5030    0.5780 C.3   100  PHE100      0.0534
    108  CG        22.7220   10.2730    2.0430 C.ar  100  PHE100     -0.0203
    109  CD1       22.7060   11.3510    2.9180 C.ar  100  PHE100     -0.0042
    110  CD2       22.6630    8.9770    2.5590 C.ar  100  PHE100     -0.0042
    111  CE1       22.6520   11.1520    4.2810 C.ar  100  PHE100     -0.0003
    112  CE2       22.6000    8.7650    3.9360 C.ar  100  PHE100     -0.0003
    113  CZ        22.6010    9.8630    4.8030 C.ar  100  PHE100     -0.0000
    114  N         30.6650    6.2470   10.6900 N.3   114  VAL114     -0.1231
    115  CA        30.8700    7.5090   11.3670 C.3   114  VAL114      0.1692
    116  C         30.3430    7.4190   12.7910 C.2   114  VAL114      0.2592
    117  O         29.1960    7.0280   13.0200 O.2   114  VAL114     -0.2718
    118  CB        30.1760    8.6540   10.6110 C.3   114  VAL114      0.0266
    119  CG1       30.2710    9.9460   11.3870 C.3   114  VAL114      0.0020
    120  CG2       30.7810    8.8110    9.2030 C.3   114  VAL114      0.0020
    121  N         31.1850    7.7760   13.7490 N.am  115  GLU115     -0.1966
    122  CA        30.8280    7.7200   15.1590 C.3   115  GLU115      0.1733
    123  C         29.5860    8.5610   15.4500 C.2   115  GLU115      0.2617
    124  O         29.5420    9.7350   15.0930 O.2   115  GLU115     -0.2715
    125  CB        32.0110    8.1980   16.0020 C.3   115  GLU115      0.0429
    126  CG        31.8490    8.0510   17.4970 C.3   115  GLU115      0.1163
    127  CD        33.1230    8.4170   18.2420 C.2   115  GLU115      0.3649
    128  OE1       33.0340    8.8670   19.4040 O.co2 115  GLU115     -0.2457
    129  OE2       34.2190    8.2510   17.6630 O.co2 115  GLU115     -0.2457
    130  N         28.5910    7.9590   16.0950 N.am  116  GLY116     -0.1940
    131  CA        27.3780    8.6680   16.4650 C.3   116  GLY116      0.2014
    132  C         26.3340    8.8190   15.3780 C.2   116  GLY116      0.2638
    133  O         25.2460    9.3390   15.6360 O.2   116  GLY116     -0.2714
    134  N         26.6420    8.3770   14.1590 N.am  117  MET117     -0.1976
    135  CA        25.7140    8.6020   13.0620 C.3   117  MET117      0.1605
    136  C         24.6360    7.5320   12.9310 C.2   117  MET117      0.2287
    137  O         23.5270    7.8430   12.4990 O.2   117  MET117     -0.2864
    138  CB        26.4680    8.7250   11.7310 C.3   117  MET117      0.0413
    139  CG        25.6570    9.4340   10.6490 C.3   117  MET117      0.0598
    140  SD        26.6540    9.8340    9.1900 S.3   117  MET117     -0.1393
    141  CE        27.1230    8.1830    8.7130 C.3   117  MET117      0.0692
    142  N         21.2620    8.3250   14.4200 N.3   120  ILE120     -0.1231
    143  CA        20.4270    9.2650   13.6740 C.3   120  ILE120      0.1692
    144  C         19.9200    8.6240   12.3750 C.2   120  ILE120      0.2592
    145  O         18.7920    8.8690   11.9540 O.2   120  ILE120     -0.2718
    146  CB        21.1670   10.5840   13.3350 C.3   120  ILE120      0.0266
    147  CG1       21.8310   11.1760   14.5810 C.3   120  ILE120      0.0019
    148  CG2       20.1920   11.5890   12.6940 C.3   120  ILE120      0.0020
    149  CD1       20.9280   11.2120   15.7790 C.3   120  ILE120      0.0001
    150  N         20.7690    7.8090   11.7470 N.am  121  PHE121     -0.1976
    151  CA        20.3470    7.0610   10.5630 C.3   121  PHE121      0.1639
    152  C         19.0860    6.2560   10.8670 C.2   121  PHE121      0.2290
    153  O         18.1520    6.2450   10.0670 O.2   121  PHE121     -0.2864
    154  CB        21.4510    6.1140   10.0740 C.3   121  PHE121      0.0560
    155  CG        22.3160    6.6830    8.9920 C.ar  121  PHE121     -0.0200
    156  CD1       22.8840    5.8470    8.0410 C.ar  121  PHE121     -0.0042
    157  CD2       22.5810    8.0460    8.9220 C.ar  121  PHE121     -0.0042
    158  CE1       23.6840    6.3490    7.0370 C.ar  121  PHE121     -0.0003
    159  CE2       23.3930    8.5550    7.9120 C.ar  121  PHE121     -0.0003
    160  CZ        23.9460    7.7000    6.9750 C.ar  121  PHE121     -0.0000
    161  N         16.0710    8.5090   11.0020 N.3   124  LEU124     -0.1245
    162  CA        15.7100    8.9430    9.6560 C.3   124  LEU124      0.1561
    163  C         14.9860    7.8440    8.8820 C.2   124  LEU124      0.2260
    164  O         13.9840    8.1010    8.2270 O.2   124  LEU124     -0.2867
    165  CB        16.9580    9.3800    8.8790 C.3   124  LEU124      0.0270
    166  CG        17.5930   10.6610    9.4180 C.3   124  LEU124      0.0019
    167  CD1       19.0130   10.7760    8.9130 C.3   124  LEU124      0.0001
    168  CD2       16.7540   11.8610    8.9790 C.3   124  LEU124      0.0001
    169  N         21.8300   15.7920   15.4040 N.3   204  GLY204     -0.1225
    170  CA        22.8140   15.8150   14.3290 C.3   204  GLY204      0.1811
    171  C         23.7430   17.0070   14.4400 C.2   204  GLY204      0.2280
    172  O         24.9540   16.8720   14.2540 O.2   204  GLY204     -0.2866
    173  N         26.4410   16.4610   16.9860 N.3   207  HIS207     -0.1226
    174  CA        27.4910   15.5830   16.4670 C.3   207  HIS207      0.1752
    175  C         28.3480   16.2830   15.4130 C.2   207  HIS207      0.2595
    176  O         29.5670   16.0930   15.3890 O.2   207  HIS207     -0.2718
    177  CB        26.8960   14.2970   15.8790 C.3   207  HIS207      0.0759
    178  CG        26.5820   13.2460   16.9030 C.ar  207  HIS207      0.0818
    179  ND1       25.2920   12.9500   17.2980 N.ar  207  HIS207     -0.2268
    180  CD2       27.3840   12.4210   17.6090 C.ar  207  HIS207      0.1154
    181  CE1       25.3200   11.9890   18.2010 C.ar  207  HIS207      0.1986
    182  NE2       26.5750   11.6460   18.4110 N.ar  207  HIS207     -0.2212
    183  N         27.7210   17.0890   14.5570 N.am  208  LEU208     -0.1980
    184  CA        28.4670   17.8140   13.5170 C.3   208  LEU208      0.1596
    185  C         29.4810   18.7410   14.1710 C.2   208  LEU208      0.2287
    186  O         30.6500   18.8130   13.7550 O.2   208  LEU208     -0.2864
    187  CB        27.5170   18.6020   12.6090 C.3   208  LEU208      0.0297
    188  CG        28.0430   19.2140   11.3060 C.3   208  LEU208      0.0022
    189  CD1       28.7260   18.1550   10.4520 C.3   208  LEU208      0.0001
    190  CD2       26.8830   19.8300   10.5530 C.3   208  LEU208      0.0001
    191  N         32.3810   16.6460   15.4210 N.3   211  MET211     -0.1245
    192  CA        33.2820   16.2960   14.3480 C.3   211  MET211      0.1570
    193  C         34.1910   17.4350   13.9380 C.2   211  MET211      0.2261
    194  O         35.3310   17.2010   13.6730 O.2   211  MET211     -0.2867
    195  CB        32.5540   15.7920   13.1000 C.3   211  MET211      0.0387
    196  CG        31.5880   14.6660   13.3420 C.3   211  MET211      0.0595
    197  SD        32.2240   13.1070   12.8010 S.3   211  MET211     -0.1393
    198  CE        32.9230   12.5640   14.3210 C.3   211  MET211      0.0692
    199  N         35.1560   21.5950    6.8810 N.3   219  LEU219     -0.1245
    200  CA        33.8300   22.0990    6.5470 C.3   219  LEU219      0.1561
    201  C         33.9740   23.3580    5.7060 C.2   219  LEU219      0.2260
    202  O         34.9390   24.1030    5.8680 O.2   219  LEU219     -0.2867
    203  CB        33.0250   22.3960    7.8060 C.3   219  LEU219      0.0270
    204  CG        32.1230   21.2790    8.3320 C.3   219  LEU219      0.0019
    205  CD1       32.9230   20.0870    8.8120 C.3   219  LEU219      0.0001
    206  CD2       31.2390   21.8200    9.4460 C.3   219  LEU219      0.0001
    207  N         29.2160   26.2360    5.7130 N.3   223  LEU223     -0.1245
    208  CA        28.7900   25.2660    6.7180 C.3   223  LEU223      0.1561
    209  C         29.3200   25.6590    8.0900 C.2   223  LEU223      0.2260
    210  O         28.6360   25.4720    9.0840 O.2   223  LEU223     -0.2867
    211  CB        29.2650   23.8640    6.3400 C.3   223  LEU223      0.0270
    212  CG        28.3930   22.6160    6.4890 C.3   223  LEU223      0.0019
    213  CD1       26.9110   22.8850    6.2610 C.3   223  LEU223      0.0001
    214  CD2       28.8760   21.5860    5.4870 C.3   223  LEU223      0.0001
@<TRIPOS>BOND
     1    30    29    1
     2    98    99    1
     3    98    97    1
     4    96    93    1
     5    96    97    1
     6    95    94    2
     7    37    38    1
     8    38    39    1
     9    38    41    1
    10   106   105    2
    11    99   100    2
    12    93    94    1
    13    93    92    1
    14   105   104    1
    15    42    41    1
    16    42    43    1
    17    40    39    2
    18    29    31    1
    19    29    28    1
    20    27    26    2
    21    25    28    1
    22    25    24    1
    23    25    26    1
    24   100   101    1
    25   100   102    1
    26    45    43   ar
    27    43    44   ar
    28    26    32   am
    29   103   104    1
    30   104   107    1
    31   107   108    1
    32    32    33    1
    33    35    34    2
    34    34    33    1
    35    33    36    1
    36   108   110   ar
    37   108   109   ar
    38    87    86    2
    39    20    19    2
    40    19    18    1
    41    90    89    1
    42    75    73    1
    43    85    84    1
    44    85    86    1
    45    85    88    1
    46   110   112   ar
    47     9    10    1
    48    12    11    2
    49   109   111   ar
    50    10    11    1
    51    10    13    1
    52    11    17   am
    53    16    14    1
    54    88    89    1
    55    17    18    1
    56    89    91    1
    57    18    21    1
    58    71    70    2
    59   112   113   ar
    60    73    74    1
    61    73    72    1
    62   111   113   ar
    63    69    72    1
    64    69    70    1
    65    69    68    1
    66    14    13    1
    67    14    15    1
    68    21    23    1
    69    21    22    1
    70    70    76   am
    71     4     3    2
    72     3     2    1
    73   214   212    1
    74    79    78    2
    75   201   202    2
    76   201   200    1
    77   207   208    1
    78     1     2    1
    79    78    77    1
    80    76    77    1
    81   213   212    1
    82    49    48    2
    83     2     5    1
    84   211   212    1
    85   211   208    1
    86    77    80    1
    87   200   199    1
    88   200   203    1
    89   208   209    1
    90    50    47    1
    91    50    51    1
    92   160   158   ar
    93   160   159   ar
    94    56    58   ar
    95    56    53   ar
    96   158   156   ar
    97    47    48    1
    98    47    46    1
    99    48    60   am
   100    58    59   ar
   101     5     6    1
   102   203   204    1
   103    53    51   ar
   104    53    55   ar
   105    51    52   ar
   106   159   157   ar
   107    63    62    2
   108    80    81    1
   109   156   155   ar
   110   209   210    2
   111   164   163    2
   112   204   205    1
   113   204   206    1
   114    60    61    1
   115    59    57   ar
   116    61    62    1
   117    61    64    1
   118    81    82    1
   119   141   140    1
   120    66    65    1
   121     6     7    1
   122   165   166    1
   123   165   162    1
   124   163   162    1
   125   167   166    1
   126   157   155   ar
   127   168   166    1
   128   155   154    1
   129     7     8    1
   130    52    54   ar
   131    55    57   ar
   132    55    54   ar
   133   140   139    1
   134   120   118    1
   135   162   161    1
   136    64    65    1
   137    65    67    1
   138   153   152    2
   139   154   151    1
   140   189   188    1
   141    82    83    1
   142   190   188    1
   143   151   152    1
   144   151   150    1
   145   118   115    1
   146   118   119    1
   147   139   138    1
   148   114   115    1
   149   188   187    1
   150   115   116    1
   151   138   135    1
   152   150   144   am
   153   145   144    2
   154   144   143    1
   155   137   136    2
   156   187   184    1
   157   148   146    1
   158   116   117    2
   159   116   121   am
   160   197   196    1
   161   197   198    1
   162   136   135    1
   163   135   134    1
   164   195   196    1
   165   195   192    1
   166   146   143    1
   167   146   147    1
   168   184   185    1
   169   184   183    1
   170   194   193    2
   171   143   142    1
   172   121   122    1
   173   186   185    2
   174   193   192    1
   175   134   132   am
   176   172   171    2
   177   170   171    1
   178   170   169    1
   179   192   191    1
   180   183   175   am
   181   147   149    1
   182   124   123    2
   183   122   123    1
   184   122   125    1
   185   132   133    2
   186   132   131    1
   187   176   175    2
   188   175   174    1
   189   123   130   am
   190   177   174    1
   191   177   178    1
   192   125   126    1
   193   130   131    1
   194   174   173    1
   195   178   179   ar
   196   178   180   ar
   197   179   181   ar
   198   126   127    1
   199   180   182   ar
   200   129   127   ar
   201   181   182   ar
   202   127   128   ar
