@<TRIPOS>MOLECULE
tmp/5kchA00.pdb
 134 132 0 0 0
SMALL
GASTEIGER

@<TRIPOS>ATOM
      1  N         20.8450   64.1040   10.0390 N.3   107  PHE107     -0.1227
      2  CA        20.3040   63.1100    9.0930 C.3   107  PHE107      0.1736
      3  C         21.4080   62.7350    8.0810 C.2   107  PHE107      0.2595
      4  O         21.8220   63.5600    7.2550 O.2   107  PHE107     -0.2718
      5  CB        19.0710   63.6760    8.3710 C.3   107  PHE107      0.0547
      6  CG        17.8290   63.8730    9.2530 C.ar  107  PHE107     -0.0202
      7  CD1       17.7010   63.2810   10.5110 C.ar  107  PHE107     -0.0042
      8  CD2       16.7520   64.5940    8.7630 C.ar  107  PHE107     -0.0042
      9  CE1       16.5080   63.4860   11.2830 C.ar  107  PHE107     -0.0003
     10  CE2       15.5760   64.7870    9.5100 C.ar  107  PHE107     -0.0003
     11  CZ        15.4670   64.2490   10.7740 C.ar  107  PHE107     -0.0000
     12  N         21.8650   61.4860    8.1080 N.am  108  PHE108     -0.1976
     13  CA        22.9920   61.1040    7.2640 C.3   108  PHE108      0.1639
     14  C         22.4960   60.6980    5.8880 C.2   108  PHE108      0.2290
     15  O         21.3130   60.3810    5.7040 O.2   108  PHE108     -0.2864
     16  CB        23.7810   59.9380    7.8910 C.3   108  PHE108      0.0560
     17  CG        24.6210   60.3230    9.0970 C.ar  108  PHE108     -0.0200
     18  CD1       25.8600   60.9460    8.9210 C.ar  108  PHE108     -0.0042
     19  CD2       24.2180   59.9690   10.3990 C.ar  108  PHE108     -0.0042
     20  CE1       26.6580   61.2950   10.0110 C.ar  108  PHE108     -0.0003
     21  CE2       25.0230   60.2850   11.5120 C.ar  108  PHE108     -0.0003
     22  CZ        26.2470   60.9680   11.3250 C.ar  108  PHE108     -0.0000
     23  N         22.7330   58.1710    4.1320 N.3   110  ASP110     -0.1225
     24  CA        22.2090   56.8300    3.9110 C.3   110  ASP110      0.1805
     25  C         20.9300   56.5430    4.6900 C.2   110  ASP110      0.2598
     26  O         20.4440   55.4090    4.6560 O.2   110  ASP110     -0.2718
     27  CB        23.2910   55.7950    4.2460 C.3   110  ASP110      0.1424
     28  CG        23.6980   55.7790    5.7170 C.2   110  ASP110      0.3668
     29  OD1       23.3270   56.6800    6.5310 O.co2 110  ASP110     -0.2456
     30  OD2       24.4560   54.8210    6.0700 O.co2 110  ASP110     -0.2456
     31  N         20.3920   57.5270    5.4140 N.am  111  GLY111     -0.1942
     32  CA        19.1650   57.3470    6.1560 C.3   111  GLY111      0.2014
     33  C         19.2990   57.1480    7.6510 C.2   111  GLY111      0.2639
     34  O         18.2690   57.0760    8.3310 O.2   111  GLY111     -0.2714
     35  N         20.5070   57.0500    8.2030 N.am  112  TYR112     -0.1959
     36  CA        20.5770   56.9460    9.6630 C.3   112  TYR112      0.1771
     37  C         20.5330   58.3400   10.2930 C.2   112  TYR112      0.2619
     38  O         20.7420   59.3550    9.6230 O.2   112  TYR112     -0.2715
     39  CB        21.8350   56.1760   10.0950 C.3   112  TYR112      0.0574
     40  CG        21.8080   54.6680    9.7860 C.ar  112  TYR112     -0.0198
     41  CD1       21.1300   53.7760   10.6130 C.ar  112  TYR112     -0.0009
     42  CD2       22.4750   54.1460    8.6770 C.ar  112  TYR112     -0.0009
     43  CE1       21.1190   52.3840   10.3400 C.ar  112  TYR112      0.0417
     44  CE2       22.4540   52.7710    8.3910 C.ar  112  TYR112      0.0417
     45  CZ        21.7810   51.8980    9.2300 C.ar  112  TYR112      0.1957
     46  OH        21.7680   50.5310    8.9580 O.3   112  TYR112     -0.2866
     47  N         20.1900   58.3890   11.5830 N.am  113  ALA113     -0.1977
     48  CA        20.0890   59.6480   12.3540 C.3   113  ALA113      0.1597
     49  C         20.7720   59.5380   13.7180 C.2   113  ALA113      0.2287
     50  O         20.6920   58.4960   14.3770 O.2   113  ALA113     -0.2864
     51  CB        18.6320   60.0170   12.5780 C.3   113  ALA113      0.0319
     52  N         20.7390   58.6930   -2.7490 N.3   137  ASP137     -0.1239
     53  CA        19.5390   57.8860   -2.5340 C.3   137  ASP137      0.1674
     54  C         18.2750   58.7430   -2.6400 C.2   137  ASP137      0.2266
     55  O         18.0410   59.6280   -1.8100 O.2   137  ASP137     -0.2867
     56  CB        19.6430   57.1960   -1.1660 C.3   137  ASP137      0.1410
     57  CG        18.4220   56.3080   -0.8280 C.2   137  ASP137      0.3668
     58  OD1       17.2570   56.7740   -0.8440 O.co2 137  ASP137     -0.2456
     59  OD2       18.6490   55.1230   -0.4940 O.co2 137  ASP137     -0.2456
     60  N         15.0440   58.2150   -2.0800 N.3   139  SER139     -0.1202
     61  CA        14.0940   58.2670   -0.9680 C.3   139  SER139      0.2020
     62  C         14.6310   59.1160    0.1800 C.2   139  SER139      0.2619
     63  O         13.8740   59.8910    0.7890 O.2   139  SER139     -0.2717
     64  CB        13.7480   56.8620   -0.4750 C.3   139  SER139      0.2103
     65  OG        14.7980   56.3160    0.2940 O.3   139  SER139     -0.2182
     66  N         15.9250   59.0130    0.4730 N.am  140  CYS140     -0.1969
     67  CA        16.5010   59.8460    1.5280 C.3   140  CYS140      0.1712
     68  C         16.4910   61.3190    1.1260 C.2   140  CYS140      0.2296
     69  O         16.0940   62.1830    1.9240 O.2   140  CYS140     -0.2864
     70  CB        17.9240   59.3900    1.8650 C.3   140  CYS140      0.0983
     71  SG        18.0580   57.8140    2.8160 S.3   140  CYS140     -0.0798
     72  N         12.9350   62.8290    1.3500 N.3   143  PHE143     -0.1227
     73  CA        12.5110   63.0710    2.7300 C.3   143  PHE143      0.1736
     74  C         13.1630   64.3270    3.2950 C.2   143  PHE143      0.2595
     75  O         12.4920   65.1610    3.9060 O.2   143  PHE143     -0.2718
     76  CB        12.8370   61.8920    3.6460 C.3   143  PHE143      0.0547
     77  CG        12.3140   62.0630    5.0740 C.ar  143  PHE143     -0.0202
     78  CD1       11.0760   61.5420    5.4520 C.ar  143  PHE143     -0.0042
     79  CD2       13.0770   62.6990    6.0450 C.ar  143  PHE143     -0.0042
     80  CE1       10.6070   61.6830    6.7600 C.ar  143  PHE143     -0.0003
     81  CE2       12.6190   62.8400    7.3480 C.ar  143  PHE143     -0.0003
     82  CZ        11.3800   62.3340    7.7100 C.ar  143  PHE143     -0.0000
     83  N         14.4740   64.4720    3.1110 N.am  144  ILE144     -0.1980
     84  CA        15.1500   65.6490    3.6520 C.3   144  ILE144      0.1595
     85  C         14.6830   66.9390    2.9530 C.2   144  ILE144      0.2287
     86  O         14.5230   67.9680    3.6160 O.2   144  ILE144     -0.2864
     87  CB        16.6710   65.4420    3.5900 C.3   144  ILE144      0.0276
     88  CG1       17.0510   64.3360    4.6050 C.3   144  ILE144      0.0022
     89  CG2       17.4390   66.7850    3.8710 C.3   144  ILE144      0.0022
     90  CD1       18.3660   63.6560    4.3280 C.3   144  ILE144      0.0001
     91  N         15.6320   55.7840   15.3440 N.3   199  ILE199     -0.1231
     92  CA        14.8800   56.2850   14.1930 C.3   199  ILE199      0.1692
     93  C         14.2490   57.6330   14.5410 C.2   199  ILE199      0.2592
     94  O         13.7990   57.8310   15.6680 O.2   199  ILE199     -0.2718
     95  CB        13.8040   55.2530   13.7760 C.3   199  ILE199      0.0266
     96  CG1       14.5130   53.9780   13.2860 C.3   199  ILE199      0.0019
     97  CG2       12.8810   55.8030   12.7120 C.3   199  ILE199      0.0020
     98  CD1       13.5520   52.7840   12.9710 C.3   199  ILE199      0.0001
     99  N         14.2240   58.5740   13.5870 N.am  200  TYR200     -0.1976
    100  CA        13.5170   59.8440   13.8320 C.3   200  TYR200      0.1639
    101  C         11.9970   59.6390   13.9680 C.2   200  TYR200      0.2290
    102  O         11.3920   58.8770   13.2180 O.2   200  TYR200     -0.2864
    103  CB        13.8240   60.8370   12.6960 C.3   200  TYR200      0.0560
    104  CG        13.0010   62.1040   12.6580 C.ar  200  TYR200     -0.0198
    105  CD1       13.0250   63.0070   13.7050 C.ar  200  TYR200     -0.0009
    106  CD2       12.2410   62.4130   11.5370 C.ar  200  TYR200     -0.0009
    107  CE1       12.2670   64.1990   13.6470 C.ar  200  TYR200      0.0417
    108  CE2       11.4640   63.5890   11.4640 C.ar  200  TYR200      0.0417
    109  CZ        11.4860   64.4640   12.5280 C.ar  200  TYR200      0.1957
    110  OH        10.7290   65.6210   12.4480 O.3   200  TYR200     -0.2866
    111  N          9.6660   59.8190   10.9790 N.3   203  SER203     -0.1202
    112  CA        10.0880   59.0390    9.8200 C.3   203  SER203      0.2020
    113  C          8.9180   58.2400    9.2600 C.2   203  SER203      0.2619
    114  O          8.0930   57.6940   10.0020 O.2   203  SER203     -0.2717
    115  CB        11.2550   58.0960   10.1620 C.3   203  SER203      0.2103
    116  OG        11.5040   57.1320    9.1080 O.3   203  SER203     -0.2182
    117  N          8.8540   58.1740    7.9300 N.am  204  THR204     -0.1938
    118  CA         7.8170   57.3710    7.2950 C.3   204  THR204      0.2028
    119  C          8.0530   55.8700    7.4800 C.2   204  THR204      0.2642
    120  O          7.1790   55.0740    7.1140 O.2   204  THR204     -0.2714
    121  CB         7.7010   57.7500    5.8090 C.3   204  THR204      0.1808
    122  OG1        9.0040   57.7770    5.2040 O.3   204  THR204     -0.2208
    123  CG2        7.0780   59.1560    5.6720 C.3   204  THR204      0.0379
    124  N          9.1900   55.4700    8.0630 N.am  205  ARG205     -0.1977
    125  CA         9.3890   54.0630    8.4700 C.3   205  ARG205      0.1597
    126  C          8.5990   53.6600    9.7140 C.2   205  ARG205      0.2287
    127  O          8.5500   52.4650   10.0260 O.2   205  ARG205     -0.2864
    128  CB        10.8800   53.7840    8.7070 C.3   205  ARG205      0.0334
    129  CG        11.7910   54.0190    7.5000 C.3   205  ARG205      0.0492
    130  CD        13.2620   53.7560    7.8460 C.3   205  ARG205      0.2205
    131  NE        13.4170   52.3680    8.3530 N.pl3 205  ARG205     -0.0865
    132  CZ        14.4200   51.9590    9.1150 C.cat 205  ARG205      0.5346
    133  NH1       15.3580   52.8240    9.5020 N.pl3 205  ARG205      0.1354
    134  NH2       14.4650   50.6860    9.5280 N.pl3 205  ARG205      0.1354
@<TRIPOS>BOND
     1    52    53    1
     2    54    53    1
     3    54    55    2
     4    53    56    1
     5    60    61    1
     6    56    57    1
     7    61    64    1
     8    61    62    1
     9    58    57   ar
    10    57    59   ar
    11    64    65    1
    12    62    66   am
    13    62    63    2
    14    66    67    1
    15    68    67    1
    16    68    69    2
    17    72    73    1
    18    67    70    1
    19    70    71    1
    20    73    74    1
    21    73    76    1
    22    85    86    2
    23    85    84    1
    24    83    74   am
    25    83    84    1
    26    74    75    2
    27    87    84    1
    28    87    89    1
    29    87    88    1
    30    76    77    1
    31    24    23    1
    32    24    27    1
    33    24    25    1
    34    27    28    1
    35    90    88    1
    36    26    25    2
    37    25    31   am
    38    77    78   ar
    39    77    79   ar
    40   122   121    1
    41    31    32    1
    42    78    80   ar
    43   123   121    1
    44    15    14    2
    45    28    30   ar
    46    28    29   ar
    47   121   118    1
    48    14    13    1
    49    79    81   ar
    50    32    33    1
    51    80    82   ar
    52   120   119    2
    53     4     3    2
    54    13    16    1
    55    13    12    1
    56   118   119    1
    57   118   117    1
    58    81    82   ar
    59   119   124   am
    60   129   130    1
    61   129   128    1
    62    33    35   am
    63    33    34    2
    64   130   131    1
    65    16    17    1
    66   117   113   am
    67   124   125    1
    68     3    12   am
    69     3     2    1
    70    35    36    1
    71   131   132    2
    72     5     2    1
    73     5     6    1
    74    44    42   ar
    75    44    45   ar
    76   125   128    1
    77   125   126    1
    78    42    40   ar
    79     8     6   ar
    80     8    10   ar
    81    18    17   ar
    82    18    20   ar
    83    46    45    1
    84     2     1    1
    85    17    19   ar
    86   116   115    1
    87   132   133    1
    88   132   134    1
    89    45    43   ar
    90     6     7   ar
    91   113   112    1
    92   113   114    2
    93    10    11   ar
    94    38    37    2
    95    36    39    1
    96    36    37    1
    97   126   127    2
    98    40    39    1
    99    40    41   ar
   100   112   115    1
   101   112   111    1
   102    20    22   ar
   103    37    47   am
   104    43    41   ar
   105    19    21   ar
   106     7     9   ar
   107    11     9   ar
   108    22    21   ar
   109   108   106   ar
   110   108   109   ar
   111   106   104   ar
   112    47    48    1
   113    48    51    1
   114    48    49    1
   115   110   109    1
   116   109   107   ar
   117   104   103    1
   118   104   105   ar
   119   103   100    1
   120    97    95    1
   121    98    96    1
   122   102   101    2
   123    96    95    1
   124    99   100    1
   125    99    93   am
   126   107   105   ar
   127    49    50    2
   128    95    92    1
   129   100   101    1
   130    92    93    1
   131    92    91    1
   132    93    94    2
