@<TRIPOS>MOLECULE
tmp/5kcjA01.pdb
 90 86 0 0 0
SMALL
GASTEIGER

@<TRIPOS>ATOM
      1  N         14.5050  -14.1270  -15.8940 N.3   112  ILE112     -0.1245
      2  CA        13.1330  -13.6420  -16.0170 C.3   112  ILE112      0.1561
      3  C         12.1990  -14.8270  -15.7910 C.2   112  ILE112      0.2260
      4  O         12.2890  -15.8340  -16.5070 O.2   112  ILE112     -0.2867
      5  CB        12.8750  -13.0270  -17.4270 C.3   112  ILE112      0.0252
      6  CG1       13.7870  -11.7890  -17.6690 C.3   112  ILE112      0.0019
      7  CG2       11.3630  -12.6520  -17.5970 C.3   112  ILE112      0.0019
      8  CD1       13.9430  -11.2990  -19.1970 C.3   112  ILE112      0.0001
      9  N         13.7230   -6.0830  -21.5500 N.3   124  VAL124     -0.1231
     10  CA        13.7530   -7.0760  -22.6090 C.3   124  VAL124      0.1678
     11  C         14.9310   -8.0310  -22.2780 C.2   124  VAL124      0.2434
     12  O         15.8960   -7.6050  -21.6160 O.2   124  VAL124     -0.2733
     13  CB        13.9200   -6.4330  -24.0220 C.3   124  VAL124      0.0265
     14  CG1       12.7200   -5.5520  -24.3660 C.3   124  VAL124      0.0020
     15  CG2       15.2210   -5.6420  -24.1330 C.3   124  VAL124      0.0020
     16  N         14.8550   -9.3190  -22.6770 N.am  125  PRO125     -0.2718
     17  CA        15.9840  -10.2360  -22.4100 C.3   125  PRO125      0.1535
     18  C         17.2560   -9.8180  -23.1530 C.2   125  PRO125      0.2599
     19  O         17.1930   -9.4780  -24.3490 O.2   125  PRO125     -0.2715
     20  CB        15.4710  -11.5810  -22.9350 C.3   125  PRO125      0.0310
     21  CG        14.4270  -11.2430  -23.9280 C.3   125  PRO125      0.0237
     22  CD        13.7580  -10.0110  -23.3940 C.3   125  PRO125      0.0939
     23  N         18.4170   -9.8560  -22.4790 N.am  126  PHE126     -0.1960
     24  CA        19.6510   -9.4560  -23.1640 C.3   126  PHE126      0.1771
     25  C         20.5570  -10.6430  -23.4950 C.2   126  PHE126      0.2619
     26  O         21.5060  -10.4980  -24.2780 O.2   126  PHE126     -0.2715
     27  CB        20.3810   -8.3530  -22.3880 C.3   126  PHE126      0.0574
     28  CG        20.6510   -8.6340  -20.9250 C.ar  126  PHE126     -0.0200
     29  CD1       21.7540   -9.3870  -20.5360 C.ar  126  PHE126     -0.0042
     30  CD2       19.8360   -8.0970  -19.9360 C.ar  126  PHE126     -0.0042
     31  CE1       22.0290   -9.6120  -19.1820 C.ar  126  PHE126     -0.0003
     32  CE2       20.1240   -8.3040  -18.5840 C.ar  126  PHE126     -0.0003
     33  CZ        21.2110   -9.0710  -18.2170 C.ar  126  PHE126     -0.0000
     34  N         20.2680  -11.8090  -22.8730 N.am  127  VAL127     -0.1963
     35  CA        20.9240  -13.1200  -23.0380 C.3   127  VAL127      0.1727
     36  C         19.8190  -14.1690  -22.9710 C.2   127  VAL127      0.2616
     37  O         19.0210  -14.1420  -22.0240 O.2   127  VAL127     -0.2715
     38  CB        21.9650  -13.4510  -21.9140 C.3   127  VAL127      0.0290
     39  CG1       22.6030  -14.8340  -22.1230 C.3   127  VAL127      0.0023
     40  CG2       23.0440  -12.3980  -21.8060 C.3   127  VAL127      0.0023
     41  N         19.8170  -15.1240  -23.9260 N.am  128  GLU128     -0.1977
     42  CA        18.9010  -16.2470  -23.9230 C.3   128  GLU128      0.1602
     43  C         19.3130  -17.2410  -22.8260 C.2   128  GLU128      0.2287
     44  O         20.4880  -17.5810  -22.6960 O.2   128  GLU128     -0.2864
     45  CB        18.8690  -16.9760  -25.2870 C.3   128  GLU128      0.0415
     46  CG        17.9280  -18.1850  -25.2730 C.3   128  GLU128      0.1163
     47  CD        17.8890  -19.0790  -26.4970 C.2   128  GLU128      0.3649
     48  OE1       18.9660  -19.4240  -27.0310 O.co2 128  GLU128     -0.2457
     49  OE2       16.7730  -19.5000  -26.8730 O.co2 128  GLU128     -0.2457
     50  N         12.5650  -21.9130  -22.0400 N.3   237  THR237     -0.1203
     51  CA        13.4090  -20.8330  -22.5380 C.3   237  THR237      0.1994
     52  C         12.9260  -19.4910  -21.9890 C.2   237  THR237      0.2619
     53  O         11.7210  -19.2130  -21.8820 O.2   237  THR237     -0.2717
     54  CB        13.6110  -20.8820  -24.0750 C.3   237  THR237      0.1784
     55  OG1       14.1870  -19.6590  -24.5390 O.3   237  THR237     -0.2211
     56  CG2       12.3500  -21.1710  -24.8400 C.3   237  THR237      0.0376
     57  N         13.8850  -18.7040  -21.5900 N.am  238  THR238     -0.1938
     58  CA        13.6970  -17.4020  -21.0140 C.3   238  THR238      0.2028
     59  C         14.9520  -16.6150  -21.3350 C.2   238  THR238      0.2642
     60  O         15.6160  -16.8850  -22.3350 O.2   238  THR238     -0.2714
     61  CB        13.2900  -17.5000  -19.5200 C.3   238  THR238      0.1808
     62  OG1       12.9930  -16.1910  -19.0310 O.3   238  THR238     -0.2208
     63  CG2       14.3310  -18.1870  -18.6650 C.3   238  THR238      0.0379
     64  N         15.2280  -15.6070  -20.5390 N.am  239  GLY239     -0.1954
     65  CA        16.4090  -14.7920  -20.7340 C.3   239  GLY239      0.1869
     66  C         16.8400  -14.1210  -19.4670 C.2   239  GLY239      0.2309
     67  O         16.1130  -14.1500  -18.4770 O.2   239  GLY239     -0.2863
     68  N         17.7180   -2.9770  -27.0540 N.3   259  LEU259     -0.1245
     69  CA        17.3270   -3.3430  -28.4320 C.3   259  LEU259      0.1561
     70  C         18.2200   -2.6770  -29.4870 C.2   259  LEU259      0.2260
     71  O         18.5100   -3.2820  -30.5230 O.2   259  LEU259     -0.2867
     72  CB        15.8500   -3.0150  -28.6590 C.3   259  LEU259      0.0270
     73  CG        14.8740   -3.9180  -27.9080 C.3   259  LEU259      0.0019
     74  CD1       13.4660   -3.3800  -28.0030 C.3   259  LEU259      0.0001
     75  CD2       14.9740   -5.3510  -28.4100 C.3   259  LEU259      0.0001
     76  N         21.3810   -4.6890  -29.4600 N.3   262  VAL262     -0.1245
     77  CA        21.1250   -5.9550  -30.1710 C.3   262  VAL262      0.1561
     78  C         21.2420   -5.7190  -31.6760 C.2   262  VAL262      0.2260
     79  O         22.0730   -6.3530  -32.3260 O.2   262  VAL262     -0.2867
     80  CB        19.7900   -6.6580  -29.7800 C.3   262  VAL262      0.0252
     81  CG1       19.5980   -7.9390  -30.5910 C.3   262  VAL262      0.0019
     82  CG2       19.7360   -6.9670  -28.2880 C.3   262  VAL262      0.0019
     83  N         25.8280   -6.2660  -28.9000 N.3   267  MET267     -0.1245
     84  CA        25.5260   -7.4160  -28.0690 C.3   267  MET267      0.1570
     85  C         26.3310   -8.6150  -28.4910 C.2   267  MET267      0.2261
     86  O         26.8620   -9.3040  -27.6270 O.2   267  MET267     -0.2867
     87  CB        24.0200   -7.7460  -28.0420 C.3   267  MET267      0.0387
     88  CG        23.2090   -6.8180  -27.1580 C.3   267  MET267      0.0595
     89  SD        23.5410   -6.8240  -25.3660 S.3   267  MET267     -0.1393
     90  CE        24.0230   -8.4380  -25.1150 C.3   267  MET267      0.0692
@<TRIPOS>BOND
     1    79    78    2
     2    78    77    1
     3    81    80    1
     4    71    70    2
     5    77    80    1
     6    77    76    1
     7    80    82    1
     8    70    69    1
     9    83    84    1
    10    72    69    1
    11    72    73    1
    12    85    84    1
    13    85    86    2
    14    69    68    1
    15    75    73    1
    16    84    87    1
    17    87    88    1
    18    74    73    1
    19    88    89    1
    20    48    47   ar
    21    49    47   ar
    22    47    46    1
    23    89    90    1
    24    45    46    1
    25    45    42    1
    26    56    54    1
    27    55    54    1
    28    14    13    1
    29    19    18    2
    30    26    25    2
    31    15    13    1
    32    54    51    1
    33    13    10    1
    34    21    22    1
    35    21    20    1
    36    41    42    1
    37    41    36   am
    38    42    43    1
    39    25    24    1
    40    25    34   am
    41    22    16    1
    42    24    23    1
    43    24    27    1
    44    18    23   am
    45    18    17    1
    46    35    36    1
    47    35    34    1
    48    35    38    1
    49    36    37    2
    50    20    17    1
    51    43    44    2
    52    16    17    1
    53    16    11   am
    54    10    11    1
    55    10     9    1
    56    51    50    1
    57    51    52    1
    58    27    28    1
    59    60    59    2
    60    11    12    2
    61    39    38    1
    62    52    53    2
    63    52    57   am
    64    38    40    1
    65    57    58    1
    66    59    58    1
    67    59    64   am
    68    58    61    1
    69    28    29   ar
    70    28    30   ar
    71    65    64    1
    72    65    66    1
    73    29    31   ar
    74    30    32   ar
    75    61    62    1
    76    61    63    1
    77    66    67    2
    78     8     6    1
    79    31    33   ar
    80    32    33   ar
    81     6     5    1
    82     7     5    1
    83     5     2    1
    84     4     3    2
    85     2     1    1
    86     2     3    1
