@<TRIPOS>MOLECULE
tmp/5kcjB00.pdb
 84 81 0 0 0
SMALL
GASTEIGER

@<TRIPOS>ATOM
      1  N         10.5880   -8.4440  -32.5310 N.3   121  ILE121     -0.1245
      2  CA        10.7980   -7.3760  -31.5630 C.3   121  ILE121      0.1561
      3  C         12.0610   -6.6340  -32.0040 C.2   121  ILE121      0.2260
      4  O         13.1140   -7.2470  -32.1330 O.2   121  ILE121     -0.2867
      5  CB        10.9610   -7.9650  -30.1380 C.3   121  ILE121      0.0252
      6  CG1        9.7540   -8.8380  -29.7610 C.3   121  ILE121      0.0019
      7  CG2       11.2000   -6.8550  -29.1320 C.3   121  ILE121      0.0019
      8  CD1        9.9860   -9.8290  -28.5580 C.3   121  ILE121      0.0001
      9  N          6.9560  -10.1850  -23.5150 N.3   133  LYS133     -0.1231
     10  CA         8.1740  -10.9850  -23.4170 C.3   133  LYS133      0.1678
     11  C          8.0940  -11.9810  -24.6010 C.2   133  LYS133      0.2434
     12  O          6.9740  -12.2830  -25.0660 O.2   133  LYS133     -0.2733
     13  CB         8.2140  -11.7410  -22.0750 C.3   133  LYS133      0.0284
     14  CG         8.6180  -10.8540  -20.8940 C.3   133  LYS133      0.0035
     15  CD        10.0880  -10.4280  -20.9920 C.3   133  LYS133      0.0206
     16  CE        10.5000   -9.4880  -19.8730 C.3   133  LYS133      0.1093
     17  NZ         9.8790   -8.1380  -20.0010 N.3   133  LYS133     -0.1314
     18  N          9.2320  -12.4600  -25.1520 N.am  134  PRO134     -0.2729
     19  CA         9.1510  -13.2660  -26.3780 C.3   134  PRO134      0.1401
     20  C          8.4720  -14.6250  -26.2410 C.2   134  PRO134      0.2269
     21  O          8.5600  -15.2560  -25.1920 O.2   134  PRO134     -0.2865
     22  CB        10.6220  -13.3960  -26.8310 C.3   134  PRO134      0.0296
     23  CG        11.3300  -12.3070  -26.1330 C.3   134  PRO134      0.0237
     24  CD        10.6380  -12.1660  -24.8060 C.3   134  PRO134      0.0939
     25  N          9.0080  -16.8270  -28.7910 N.3   136  LYS136     -0.1231
     26  CA         9.9350  -17.5960  -29.6330 C.3   136  LYS136      0.1693
     27  C         11.1930  -16.7730  -29.8810 C.2   136  LYS136      0.2592
     28  O         11.1010  -15.5880  -30.1980 O.2   136  LYS136     -0.2718
     29  CB         9.2560  -17.9250  -30.9810 C.3   136  LYS136      0.0285
     30  CG        10.1680  -18.5660  -32.0410 C.3   136  LYS136      0.0035
     31  CD        10.0390  -20.0910  -32.0410 C.3   136  LYS136      0.0206
     32  CE        11.1890  -20.7390  -32.7710 C.3   136  LYS136      0.1093
     33  NZ        11.3440  -22.1650  -32.3770 N.3   136  LYS136     -0.1314
     34  N         12.3640  -17.4110  -29.7500 N.am  137  TYR137     -0.1976
     35  CA        13.6550  -16.8410  -30.0770 C.3   137  TYR137      0.1639
     36  C         14.1500  -17.6360  -31.2370 C.2   137  TYR137      0.2290
     37  O         14.0960  -18.8600  -31.2210 O.2   137  TYR137     -0.2864
     38  CB        14.6530  -16.9250  -28.9230 C.3   137  TYR137      0.0560
     39  CG        15.9010  -16.0750  -29.1130 C.ar  137  TYR137     -0.0198
     40  CD1       15.8220  -14.7900  -29.6480 C.ar  137  TYR137     -0.0009
     41  CD2       17.1430  -16.5160  -28.6650 C.ar  137  TYR137     -0.0009
     42  CE1       16.9500  -13.9750  -29.7490 C.ar  137  TYR137      0.0417
     43  CE2       18.2720  -15.7070  -28.7490 C.ar  137  TYR137      0.0417
     44  CZ        18.1710  -14.4370  -29.2930 C.ar  137  TYR137      0.1957
     45  OH        19.2820  -13.6390  -29.3880 O.3   137  TYR137     -0.2866
     46  N         20.1590  -12.7290  -34.4310 N.3   241  ARG241     -0.1231
     47  CA        19.1890  -13.4150  -33.6060 C.3   241  ARG241      0.1694
     48  C         18.1180  -12.4710  -33.1500 C.2   241  ARG241      0.2593
     49  O         18.4090  -11.3480  -32.7310 O.2   241  ARG241     -0.2718
     50  CB        19.8600  -14.1390  -32.4420 C.3   241  ARG241      0.0321
     51  CG        20.7850  -15.2710  -32.8890 C.3   241  ARG241      0.0489
     52  CD        21.0520  -16.2290  -31.7510 C.3   241  ARG241      0.2205
     53  NE        22.2210  -15.8290  -30.9750 N.pl3 241  ARG241     -0.0865
     54  CZ        22.6080  -16.4120  -29.8440 C.cat 241  ARG241      0.5346
     55  NH1       21.9040  -17.4170  -29.3290 N.pl3 241  ARG241      0.1354
     56  NH2       23.6910  -15.9850  -29.2080 N.pl3 241  ARG241      0.1354
     57  N         16.8620  -12.9090  -33.2720 N.am  242  SER242     -0.1938
     58  CA        15.7220  -12.0730  -32.9090 C.3   242  SER242      0.2055
     59  C         14.5910  -12.9070  -32.3610 C.2   242  SER242      0.2643
     60  O         14.5390  -14.1100  -32.5970 O.2   242  SER242     -0.2714
     61  CB        15.2530  -11.2770  -34.1260 C.3   242  SER242      0.2130
     62  OG        14.9020  -12.1530  -35.1870 O.3   242  SER242     -0.2179
     63  N         13.7190  -12.2720  -31.6070 N.am  243  GLY243     -0.1954
     64  CA        12.5690  -12.9300  -31.0070 C.3   243  GLY243      0.1869
     65  C         11.2330  -12.4030  -31.5160 C.2   243  GLY243      0.2309
     66  O         11.1550  -11.2650  -32.0110 O.2   243  GLY243     -0.2863
     67  N          5.2180  -16.2260  -20.1540 N.3   263  LEU263     -0.1245
     68  CA         6.2000  -16.7620  -19.1940 C.3   263  LEU263      0.1561
     69  C          5.6420  -18.0420  -18.5990 C.2   263  LEU263      0.2260
     70  O          6.3400  -19.0430  -18.5830 O.2   263  LEU263     -0.2867
     71  CB         6.4900  -15.7390  -18.0630 C.3   263  LEU263      0.0270
     72  CG         7.2020  -14.4290  -18.4910 C.3   263  LEU263      0.0019
     73  CD1        7.4540  -13.5240  -17.3100 C.3   263  LEU263      0.0001
     74  CD2        8.5040  -14.7070  -19.1680 C.3   263  LEU263      0.0001
     75  N          5.9560  -20.7700  -21.2210 N.3   266  HIS266     -0.1241
     76  CA         7.3210  -21.2590  -21.4500 C.3   266  HIS266      0.1621
     77  C          7.6840  -22.2090  -20.2920 C.2   266  HIS266      0.2264
     78  O          8.1860  -23.3070  -20.5190 O.2   266  HIS266     -0.2867
     79  CB         8.3380  -20.1010  -21.4700 C.3   266  HIS266      0.0745
     80  CG         8.4450  -19.3690  -22.7760 C.ar  266  HIS266      0.0817
     81  ND1        8.9310  -19.9910  -23.9220 N.ar  266  HIS266     -0.2268
     82  CD2        8.2100  -18.0650  -23.0570 C.ar  266  HIS266      0.1154
     83  CE1        8.9490  -19.0520  -24.8590 C.ar  266  HIS266      0.1986
     84  NE2        8.5330  -17.8820  -24.3860 N.ar  266  HIS266     -0.2212
@<TRIPOS>BOND
     1    62    61    1
     2    46    47    1
     3    61    58    1
     4    47    48    1
     5    47    50    1
     6    57    48   am
     7    57    58    1
     8    48    49    2
     9    58    59    1
    10    51    50    1
    11    51    52    1
    12    32    33    1
    13    32    31    1
    14    60    59    2
    15     1     2    1
    16    59    63   am
    17     4     3    2
    18    31    30    1
    19    30    29    1
    20    66    65    2
    21     3     2    1
    22    52    53    1
    23    63    64    1
    24     2     5    1
    25    65    64    1
    26    36    37    2
    27    36    35    1
    28    29    26    1
    29    53    54    2
    30    28    27    2
    31     5     6    1
    32     5     7    1
    33    35    34    1
    34    35    38    1
    35    27    34   am
    36    27    26    1
    37    54    55    1
    38    54    56    1
    39     6     8    1
    40    42    40   ar
    41    42    44   ar
    42    40    39   ar
    43    26    25    1
    44    45    44    1
    45    44    43   ar
    46    39    38    1
    47    39    41   ar
    48    43    41   ar
    49    22    19    1
    50    22    23    1
    51    19    20    1
    52    19    18    1
    53    20    21    2
    54    23    24    1
    55    18    24    1
    56    18    11   am
    57    12    11    2
    58    83    84   ar
    59    83    81   ar
    60    11    10    1
    61    84    82   ar
    62    81    80   ar
    63     9    10    1
    64    10    13    1
    65    82    80   ar
    66    80    79    1
    67    13    14    1
    68    79    76    1
    69    76    75    1
    70    76    77    1
    71    15    14    1
    72    15    16    1
    73    78    77    2
    74    67    68    1
    75    17    16    1
    76    68    69    1
    77    68    71    1
    78    74    72    1
    79    69    70    2
    80    72    71    1
    81    72    73    1
