@<TRIPOS>MOLECULE
tmp/5kcmB00.pdb
 252 247 0 0 0
SMALL
GASTEIGER

@<TRIPOS>ATOM
      1  N         50.9000  130.5550  -17.4060 N.3   248  PHE248     -0.1241
      2  CA        50.2690  129.3880  -16.7960 C.3   248  PHE248      0.1605
      3  C         49.9870  128.3100  -17.8410 C.2   248  PHE248      0.2264
      4  O         50.2810  127.1300  -17.6230 O.2   248  PHE248     -0.2867
      5  CB        48.9800  129.8090  -16.0770 C.3   248  PHE248      0.0534
      6  CG        48.2020  128.6590  -15.4760 C.ar  248  PHE248     -0.0203
      7  CD1       48.4970  128.2030  -14.2040 C.ar  248  PHE248     -0.0042
      8  CD2       47.1450  128.0760  -16.1520 C.ar  248  PHE248     -0.0042
      9  CE1       47.7880  127.1530  -13.6330 C.ar  248  PHE248     -0.0003
     10  CE2       46.4170  127.0250  -15.5760 C.ar  248  PHE248     -0.0003
     11  CZ        46.7500  126.5670  -14.3210 C.ar  248  PHE248     -0.0000
     12  N         52.6850  127.1620  -11.7190 N.3   264  HIS264     -0.1226
     13  CA        51.4390  126.8770  -11.0230 C.3   264  HIS264      0.1752
     14  C         51.2030  127.8920   -9.9140 C.2   264  HIS264      0.2597
     15  O         52.1030  128.6290   -9.5090 O.2   264  HIS264     -0.2718
     16  CB        51.4370  125.4470  -10.4720 C.3   264  HIS264      0.0759
     17  CG        51.4790  124.4180  -11.5560 C.ar  264  HIS264      0.0818
     18  ND1       50.3450  124.0060  -12.2280 N.ar  264  HIS264     -0.2268
     19  CD2       52.5210  123.7810  -12.1420 C.ar  264  HIS264      0.1154
     20  CE1       50.6860  123.1370  -13.1630 C.ar  264  HIS264      0.1986
     21  NE2       52.0000  122.9830  -13.1330 N.ar  264  HIS264     -0.2212
     22  N         49.9600  127.9370   -9.4400 N.am  265  SER265     -0.1938
     23  CA        49.5460  128.9630   -8.4920 C.3   265  SER265      0.2055
     24  C         49.8240  128.5810   -7.0390 C.2   265  SER265      0.2643
     25  O         50.0360  129.4700   -6.2060 O.2   265  SER265     -0.2714
     26  CB        48.0560  129.2880   -8.6890 C.3   265  SER265      0.2130
     27  OG        47.1960  128.2520   -8.1840 O.3   265  SER265     -0.2179
     28  N         49.8130  127.2910   -6.7010 N.am  266  LEU266     -0.1963
     29  CA        49.9880  126.8700   -5.3060 C.3   266  LEU266      0.1728
     30  C         48.9970  127.5840   -4.3860 C.2   266  LEU266      0.2616
     31  O         49.3410  128.0350   -3.2870 O.2   266  LEU266     -0.2715
     32  CB        51.4320  127.0950   -4.8300 C.3   266  LEU266      0.0311
     33  CG        52.4400  125.9800   -5.1830 C.3   266  LEU266      0.0022
     34  CD1       52.7510  125.9350   -6.6820 C.3   266  LEU266      0.0001
     35  CD2       53.7100  126.1150   -4.3790 C.3   266  LEU266      0.0001
     36  N         47.7400  127.6650   -4.8160 N.am  267  LEU267     -0.1963
     37  CA        46.6930  128.2530   -3.9830 C.3   267  LEU267      0.1728
     38  C         45.6660  127.2340   -3.4920 C.2   267  LEU267      0.2616
     39  O         44.7930  127.5840   -2.6860 O.2   267  LEU267     -0.2715
     40  CB        45.9790  129.3740   -4.7500 C.3   267  LEU267      0.0311
     41  CG        46.8220  130.4910   -5.3950 C.3   267  LEU267      0.0022
     42  CD1       45.9500  131.4510   -6.2130 C.3   267  LEU267      0.0001
     43  CD2       47.6140  131.2450   -4.3470 C.3   267  LEU267      0.0001
     44  N         45.7620  125.9840   -3.9380 N.am  268  SER268     -0.1950
     45  CA        44.7750  124.9700   -3.5810 C.3   268  SER268      0.1924
     46  C         44.6540  124.7920   -2.0700 C.2   268  SER268      0.2314
     47  O         43.5450  124.5920   -1.5630 O.2   268  SER268     -0.2863
     48  CB        45.1240  123.6380   -4.2430 C.3   268  SER268      0.2116
     49  OG        46.4400  123.2390   -3.8880 O.3   268  SER268     -0.2180
     50  N         42.3690  127.8830   -0.9740 N.3   271  ILE271     -0.1231
     51  CA        41.0020  127.7760   -1.4480 C.3   271  ILE271      0.1692
     52  C         40.2550  126.6880   -0.6820 C.2   271  ILE271      0.2592
     53  O         39.1170  126.8980   -0.2470 O.2   271  ILE271     -0.2718
     54  CB        40.9950  127.5130   -2.9720 C.3   271  ILE271      0.0266
     55  CG1       41.8740  128.5470   -3.7000 C.3   271  ILE271      0.0019
     56  CG2       39.5690  127.5130   -3.4850 C.3   271  ILE271      0.0020
     57  CD1       41.9300  128.4290   -5.2500 C.3   271  ILE271      0.0001
     58  N         40.8950  125.5170   -0.4730 N.am  272  ASN272     -0.1974
     59  CA        40.1830  124.3560    0.0590 C.3   272  ASN272      0.1688
     60  C         39.8700  124.4720    1.5460 C.2   272  ASN272      0.2292
     61  O         39.0380  123.7080    2.0360 O.2   272  ASN272     -0.2864
     62  CB        40.9640  123.0610   -0.1960 C.3   272  ASN272      0.1181
     63  CG        40.9840  122.6860   -1.6610 C.2   272  ASN272      0.2629
     64  OD1       40.2450  123.2730   -2.4510 O.2   272  ASN272     -0.2716
     65  ND2       41.8230  121.7140   -2.0350 N.am  272  ASN272     -0.0877
     66  N         43.3830  128.7390  -16.6320 N.3   302  PHE302     -0.1241
     67  CA        43.3830  128.8180  -15.1690 C.3   302  PHE302      0.1605
     68  C         41.9640  128.7540  -14.6110 C.2   302  PHE302      0.2264
     69  O         41.6780  128.0000  -13.6700 O.2   302  PHE302     -0.2867
     70  CB        44.0660  130.1090  -14.7180 C.3   302  PHE302      0.0534
     71  CG        44.0880  130.3030  -13.2130 C.ar  302  PHE302     -0.0203
     72  CD1       44.9170  129.5310  -12.4110 C.ar  302  PHE302     -0.0042
     73  CD2       43.2990  131.2670  -12.6150 C.ar  302  PHE302     -0.0042
     74  CE1       44.9620  129.7110  -11.0450 C.ar  302  PHE302     -0.0003
     75  CE2       43.3320  131.4570  -11.2390 C.ar  302  PHE302     -0.0003
     76  CZ        44.1640  130.6670  -10.4530 C.ar  302  PHE302     -0.0000
     77  N         40.2390  125.3330  -14.6430 N.3   305  GLN305     -0.1231
     78  CA        40.6070  124.3670  -13.6110 C.3   305  GLN305      0.1698
     79  C         39.7610  124.5300  -12.3560 C.2   305  GLN305      0.2592
     80  O         39.5580  123.5480  -11.6280 O.2   305  GLN305     -0.2718
     81  CB        42.0860  124.4910  -13.2320 C.3   305  GLN305      0.0381
     82  CG        43.0550  124.5300  -14.3760 C.3   305  GLN305      0.0905
     83  CD        42.8480  123.3910  -15.3470 C.2   305  GLN305      0.2608
     84  OE1       42.8160  122.2190  -14.9490 O.2   305  GLN305     -0.2717
     85  NE2       42.7350  123.7180  -16.6370 N.am  305  GLN305     -0.0878
     86  N         39.2030  125.7230  -12.1320 N.am  306  ILE306     -0.1980
     87  CA        38.5390  126.0380  -10.8780 C.3   306  ILE306      0.1595
     88  C         37.0220  125.9450  -10.9990 C.2   306  ILE306      0.2287
     89  O         36.3810  125.2500  -10.1970 O.2   306  ILE306     -0.2864
     90  CB        38.9680  127.4250  -10.3600 C.3   306  ILE306      0.0276
     91  CG1       40.4560  127.4100   -9.9730 C.3   306  ILE306      0.0022
     92  CG2       38.1030  127.8510   -9.1810 C.3   306  ILE306      0.0022
     93  CD1       41.0510  128.8070   -9.6750 C.3   306  ILE306      0.0001
     94  N         37.0940  121.9180  -13.4220 N.3   309  TRP309     -0.1227
     95  CA        37.4410  120.6720  -12.7330 C.3   309  TRP309      0.1737
     96  C         37.0190  120.7000  -11.2680 C.2   309  TRP309      0.2595
     97  O         36.3470  119.7810  -10.7950 O.2   309  TRP309     -0.2718
     98  CB        38.9420  120.3850  -12.8630 C.3   309  TRP309      0.0564
     99  CG        39.2520  119.7850  -14.1760 C.ar  309  TRP309      0.0003
    100  CD1       40.0190  120.3310  -15.1610 C.ar  309  TRP309      0.0946
    101  CD2       38.7610  118.5330  -14.6870 C.ar  309  TRP309      0.0152
    102  NE1       40.0460  119.4880  -16.2530 N.ar  309  TRP309     -0.2442
    103  CE2       39.2870  118.3780  -15.9830 C.ar  309  TRP309      0.0810
    104  CE3       37.9410  117.5250  -14.1660 C.ar  309  TRP309      0.0012
    105  CZ2       39.0050  117.2680  -16.7730 C.ar  309  TRP309      0.0191
    106  CZ3       37.6570  116.4230  -14.9510 C.ar  309  TRP309      0.0001
    107  CH2       38.1870  116.3020  -16.2420 C.ar  309  TRP309      0.0015
    108  N         37.4070  121.7430  -10.5230 N.am  310  ARG310     -0.1980
    109  CA        37.2390  121.6620   -9.0780 C.3   310  ARG310      0.1597
    110  C         35.7630  121.6180   -8.6960 C.2   310  ARG310      0.2287
    111  O         35.3510  120.7940   -7.8760 O.2   310  ARG310     -0.2864
    112  CB        37.9500  122.8320   -8.4060 C.3   310  ARG310      0.0334
    113  CG        37.7250  122.9240   -6.8890 C.3   310  ARG310      0.0492
    114  CD        38.4380  124.1780   -6.3120 C.3   310  ARG310      0.2205
    115  NE        38.4830  124.1120   -4.8500 N.pl3 310  ARG310     -0.0865
    116  CZ        37.5360  124.6320   -4.0750 C.cat 310  ARG310      0.5346
    117  NH1       36.4980  125.2440   -4.6460 N.pl3 310  ARG310      0.1354
    118  NH2       37.6200  124.5530   -2.7550 N.pl3 310  ARG310      0.1354
    119  N         34.4330  118.0830   -9.7290 N.3   313  MET313     -0.1245
    120  CA        34.7720  117.0000   -8.8000 C.3   313  MET313      0.1570
    121  C         33.8690  117.0210   -7.5760 C.2   313  MET313      0.2261
    122  O         33.4370  115.9610   -7.1000 O.2   313  MET313     -0.2867
    123  CB        36.2390  117.0710   -8.3380 C.3   313  MET313      0.0387
    124  CG        37.2470  116.9960   -9.4440 C.3   313  MET313      0.0595
    125  SD        36.8200  115.6900  -10.6030 S.3   313  MET313     -0.1393
    126  CE        38.4610  115.1820  -11.1310 C.3   313  MET313      0.0692
    127  N         53.3930  118.9150   -1.4620 N.3   362  TYR362     -0.1227
    128  CA        52.7820  119.3950   -2.6900 C.3   362  TYR362      0.1736
    129  C         53.4660  118.7630   -3.9010 C.2   362  TYR362      0.2595
    130  O         54.6720  118.5010   -3.8840 O.2   362  TYR362     -0.2718
    131  CB        52.8710  120.9300   -2.7810 C.3   362  TYR362      0.0548
    132  CG        52.4560  121.4860   -4.1230 C.ar  362  TYR362     -0.0200
    133  CD1       51.1250  121.7340   -4.4040 C.ar  362  TYR362     -0.0009
    134  CD2       53.4000  121.7650   -5.1090 C.ar  362  TYR362     -0.0009
    135  CE1       50.7340  122.2460   -5.6450 C.ar  362  TYR362      0.0417
    136  CE2       53.0170  122.2780   -6.3490 C.ar  362  TYR362      0.0417
    137  CZ        51.6850  122.5100   -6.6080 C.ar  362  TYR362      0.1957
    138  OH        51.2860  123.0120   -7.8270 O.3   362  TYR362     -0.2866
    139  N         52.6730  118.5130   -4.9460 N.am  363  ALA363     -0.1966
    140  CA        53.1510  118.2060   -6.2940 C.3   363  ALA363      0.1728
    141  C         52.1320  118.7860   -7.2580 C.2   363  ALA363      0.2616
    142  O         50.9540  118.9090   -6.9090 O.2   363  ALA363     -0.2715
    143  CB        53.3130  116.7010   -6.5550 C.3   363  ALA363      0.0334
    144  N         52.5710  119.1800   -8.4550 N.am  364  HIS364     -0.1959
    145  CA        51.5640  119.7880   -9.3190 C.3   364  HIS364      0.1787
    146  C         50.8130  118.7250  -10.1200 C.2   364  HIS364      0.2620
    147  O         51.1350  117.5400  -10.0890 O.2   364  HIS364     -0.2715
    148  CB        52.1530  120.8980  -10.1990 C.3   364  HIS364      0.0785
    149  CG        53.4130  120.5450  -10.9290 C.ar  364  HIS364      0.0821
    150  ND1       53.4170  120.0680  -12.2230 N.ar  364  HIS364     -0.2267
    151  CD2       54.7160  120.6810  -10.5760 C.ar  364  HIS364      0.1154
    152  CE1       54.6640  119.8970  -12.6260 C.ar  364  HIS364      0.1986
    153  NE2       55.4720  120.2560  -11.6460 N.ar  364  HIS364     -0.2212
    154  N         49.7540  119.1650  -10.7910 N.am  365  HIS365     -0.1973
    155  CA        48.7410  118.2410  -11.2780 C.3   365  HIS365      0.1656
    156  C         49.3330  117.1650  -12.1870 C.2   365  HIS365      0.2291
    157  O         49.0010  115.9750  -12.0590 O.2   365  HIS365     -0.2864
    158  CB        47.6430  119.0030  -12.0190 C.3   365  HIS365      0.0771
    159  CG        46.6100  118.1050  -12.6200 C.ar  365  HIS365      0.0820
    160  ND1       45.6970  117.4050  -11.8580 N.ar  365  HIS365     -0.2267
    161  CD2       46.3750  117.7590  -13.9060 C.ar  365  HIS365      0.1154
    162  CE1       44.9330  116.6760  -12.6560 C.ar  365  HIS365      0.1986
    163  NE2       45.3220  116.8790  -13.9030 N.ar  365  HIS365     -0.2212
    164  N         50.9950  114.4190  -10.0950 N.3   368  ARG368     -0.1231
    165  CA        50.0550  113.5030   -9.4620 C.3   368  ARG368      0.1694
    166  C         49.4330  112.5660  -10.4860 C.2   368  ARG368      0.2591
    167  O         49.1330  111.4060  -10.1630 O.2   368  ARG368     -0.2718
    168  CB        48.9640  114.2860   -8.7390 C.3   368  ARG368      0.0321
    169  CG        49.4970  115.3230   -7.7800 C.3   368  ARG368      0.0489
    170  CD        48.4450  115.7760   -6.7410 C.3   368  ARG368      0.2205
    171  NE        48.7740  117.1280   -6.2700 N.pl3 368  ARG368     -0.0865
    172  CZ        48.1910  117.7830   -5.2640 C.cat 368  ARG368      0.5346
    173  NH1       47.2320  117.2100   -4.5460 N.pl3 368  ARG368      0.1354
    174  NH2       48.6000  119.0280   -4.9640 N.pl3 368  ARG368      0.1354
    175  N         49.2360  113.0470  -11.7250 N.am  369  LEU369     -0.1980
    176  CA        48.5170  112.2810  -12.7300 C.3   369  LEU369      0.1596
    177  C         49.4520  111.3670  -13.5190 C.2   369  LEU369      0.2287
    178  O         49.2340  110.1540  -13.5600 O.2   369  LEU369     -0.2864
    179  CB        47.7570  113.2240  -13.6830 C.3   369  LEU369      0.0297
    180  CG        46.9520  112.5070  -14.7780 C.3   369  LEU369      0.0022
    181  CD1       45.7540  111.8410  -14.1250 C.3   369  LEU369      0.0001
    182  CD2       46.4470  113.4450  -15.8600 C.3   369  LEU369      0.0001
    183  N         47.1390  109.5930   -1.5820 N.3   390  TYR390     -0.1241
    184  CA        46.8880  110.9760   -1.9880 C.3   390  TYR390      0.1605
    185  C         46.1350  111.7440   -0.9070 C.2   390  TYR390      0.2264
    186  O         46.3710  112.9360   -0.7070 O.2   390  TYR390     -0.2867
    187  CB        46.1150  111.0300   -3.3040 C.3   390  TYR390      0.0534
    188  CG        46.9770  110.8100   -4.5120 C.ar  390  TYR390     -0.0201
    189  CD1       47.6520  111.8670   -5.1090 C.ar  390  TYR390     -0.0009
    190  CD2       47.1330  109.5380   -5.0540 C.ar  390  TYR390     -0.0009
    191  CE1       48.4540  111.6660   -6.2280 C.ar  390  TYR390      0.0417
    192  CE2       47.9320  109.3250   -6.1670 C.ar  390  TYR390      0.0417
    193  CZ        48.5890  110.3840   -6.7500 C.ar  390  TYR390      0.1957
    194  OH        49.3800  110.1600   -7.8570 O.3   390  TYR390     -0.2866
    195  N         46.7300  119.9890    0.4390 N.3   396  ASP396     -0.1225
    196  CA        45.4560  120.4370   -0.1050 C.3   396  ASP396      0.1805
    197  C         44.4300  119.3100   -0.2340 C.2   396  ASP396      0.2597
    198  O         43.4010  119.5100   -0.8800 O.2   396  ASP396     -0.2718
    199  CB        45.6660  121.1010   -1.4680 C.3   396  ASP396      0.1424
    200  CG        46.3290  120.1640   -2.4980 C.2   396  ASP396      0.3668
    201  OD1       46.3730  118.9420   -2.2450 O.co2 396  ASP396     -0.2456
    202  OD2       46.8080  120.6510   -3.5590 O.co2 396  ASP396     -0.2456
    203  N         44.6600  118.1490    0.3930 N.am  397  ALA397     -0.1979
    204  CA        43.7960  116.9820    0.1970 C.3   397  ALA397      0.1597
    205  C         42.5920  117.0340    1.1290 C.2   397  ALA397      0.2287
    206  O         42.7350  117.2280    2.3360 O.2   397  ALA397     -0.2864
    207  CB        44.5540  115.6720    0.4340 C.3   397  ALA397      0.0319
    208  N         37.5310  116.3750   -3.1140 N.3   401  VAL401     -0.1231
    209  CA        38.2730  116.7710   -4.3060 C.3   401  VAL401      0.1692
    210  C         39.3050  115.7230   -4.7020 C.2   401  VAL401      0.2591
    211  O         39.5200  115.4870   -5.8920 O.2   401  VAL401     -0.2718
    212  CB        38.9210  118.1690   -4.1260 C.3   401  VAL401      0.0266
    213  CG1       39.8730  118.2090   -2.9610 C.3   401  VAL401      0.0020
    214  CG2       39.6660  118.5770   -5.3920 C.3   401  VAL401      0.0020
    215  N         39.9310  115.0800   -3.7140 N.am  402  GLU402     -0.1979
    216  CA        40.9380  114.0470   -3.9650 C.3   402  GLU402      0.1602
    217  C         40.3190  112.7740   -4.5230 C.2   402  GLU402      0.2287
    218  O         40.8610  112.1710   -5.4510 O.2   402  GLU402     -0.2864
    219  CB        41.6990  113.7330   -2.6640 C.3   402  GLU402      0.0415
    220  CG        42.5190  112.4110   -2.6990 C.3   402  GLU402      0.1163
    221  CD        41.7270  111.2100   -2.1990 C.2   402  GLU402      0.3649
    222  OE1       40.8300  111.3880   -1.3450 O.co2 402  GLU402     -0.2457
    223  OE2       41.9920  110.0830   -2.6580 O.co2 402  GLU402     -0.2457
    224  N         39.4810  112.7040   -8.2700 N.3   405  ASN405     -0.1225
    225  CA        40.7200  112.7770   -9.0510 C.3   405  ASN405      0.1785
    226  C         41.4680  111.4420   -9.0480 C.2   405  ASN405      0.2597
    227  O         42.0870  111.0670  -10.0540 O.2   405  ASN405     -0.2718
    228  CB        41.6130  113.8940   -8.5120 C.3   405  ASN405      0.1169
    229  CG        41.3580  115.2250   -9.1960 C.2   405  ASN405      0.2627
    230  OD1       41.6360  115.3780  -10.3860 O.2   405  ASN405     -0.2716
    231  ND2       40.7960  116.1920   -8.4540 N.am  405  ASN405     -0.0877
    232  N         41.4440  110.7300   -7.9220 N.am  406  VAL406     -0.1980
    233  CA        42.1160  109.4330   -7.8260 C.3   406  VAL406      0.1595
    234  C         41.2850  108.3400   -8.4840 C.2   406  VAL406      0.2287
    235  O         41.7520  107.6580   -9.4010 O.2   406  VAL406     -0.2864
    236  CB        42.4170  109.0780   -6.3580 C.3   406  VAL406      0.0276
    237  CG1       43.0030  107.6810   -6.2750 C.3   406  VAL406      0.0022
    238  CG2       43.3860  110.0960   -5.7390 C.3   406  VAL406      0.0022
    239  N         39.8000  110.2060  -12.3810 N.3   409  MET409     -0.1230
    240  CA        40.7070  110.6780  -13.4130 C.3   409  MET409      0.1702
    241  C         41.9420  109.7950  -13.5420 C.2   409  MET409      0.2593
    242  O         42.3100  109.3980  -14.6480 O.2   409  MET409     -0.2718
    243  CB        41.1270  112.1190  -13.1460 C.3   409  MET409      0.0401
    244  CG        41.7870  112.6990  -14.3770 C.3   409  MET409      0.0596
    245  SD        42.4610  114.3270  -14.0720 S.3   409  MET409     -0.1393
    246  CE        40.9470  115.2830  -14.1390 C.3   409  MET409      0.0692
    247  N         42.6240  109.5260  -12.4290 N.am  410  SER410     -0.1952
    248  CA        43.9240  108.8630  -12.4660 C.3   410  SER410      0.1924
    249  C         43.7890  107.3460  -12.6450 C.2   410  SER410      0.2314
    250  O         44.3310  106.7680  -13.5870 O.2   410  SER410     -0.2863
    251  CB        44.6800  109.1880  -11.1780 C.3   410  SER410      0.2116
    252  OG        45.8970  108.4900  -11.1130 O.3   410  SER410     -0.2180
@<TRIPOS>BOND
     1     3     4    2
     2     3     2    1
     3     1     2    1
     4     2     5    1
     5   105   107   ar
     6   105   103   ar
     7    85    83   am
     8    66    67    1
     9   102   103   ar
    10   102   100   ar
    11   107   106   ar
    12     8    10   ar
    13     8     6   ar
    14     5     6    1
    15   103   101   ar
    16   182   180    1
    17    10    11   ar
    18     6     7   ar
    19    83    84    2
    20    83    82    1
    21    67    70    1
    22    67    68    1
    23   100    99   ar
    24   106   104   ar
    25   180   181    1
    26   180   179    1
    27    70    71    1
    28   101    99   ar
    29   101   104   ar
    30   242   241    2
    31    77    78    1
    32    68    69    2
    33   244   245    1
    34   244   243    1
    35    82    81    1
    36    11     9   ar
    37     7     9   ar
    38    99    98    1
    39   246   245    1
    40   161   163   ar
    41   161   159   ar
    42   163   162   ar
    43   179   176    1
    44    78    81    1
    45    78    79    1
    46   250   249    2
    47   178   177    2
    48   241   240    1
    49   241   247   am
    50   177   176    1
    51    94    95    1
    52   240   243    1
    53   240   239    1
    54    71    73   ar
    55    71    72   ar
    56    20    21   ar
    57    20    18   ar
    58    21    19   ar
    59    98    95    1
    60    95    96    1
    61   176   175    1
    62   162   160   ar
    63   249   248    1
    64   152   150   ar
    65   152   153   ar
    66   159   158    1
    67   159   160   ar
    68    73    75   ar
    69   248   247    1
    70   248   251    1
    71    72    74   ar
    72    79    86   am
    73    79    80    2
    74    18    17   ar
    75   150   149   ar
    76   156   157    2
    77   156   155    1
    78    19    17   ar
    79    86    87    1
    80   158   155    1
    81   175   166   am
    82    12    13    1
    83   153   151   ar
    84    17    16    1
    85   155   154    1
    86    96    97    2
    87    96   108   am
    88    75    76   ar
    89   251   252    1
    90   126   125    1
    91    74    76   ar
    92    13    16    1
    93    13    14    1
    94    88    87    1
    95    88    89    2
    96   149   151   ar
    97   149   148    1
    98    87    90    1
    99   154   146   am
   100   125   124    1
   101   108   109    1
   102   166   167    2
   103   166   165    1
   104   230   229    2
   105    90    91    1
   106    90    92    1
   107   148   145    1
   108   146   147    2
   109   146   145    1
   110   164   165    1
   111   227   226    2
   112    91    93    1
   113    14    15    2
   114    14    22   am
   115   119   120    1
   116   165   168    1
   117   124   123    1
   118    22    23    1
   119   235   234    2
   120   145   144    1
   121   229   228    1
   122   229   231   am
   123   109   110    1
   124   109   112    1
   125   225   226    1
   126   225   228    1
   127   225   224    1
   128   226   232   am
   129   120   123    1
   130   120   121    1
   131   168   169    1
   132   110   111    2
   133    26    23    1
   134    26    27    1
   135    23    24    1
   136   234   233    1
   137   144   141   am
   138   112   113    1
   139   232   233    1
   140   194   193    1
   141   138   137    1
   142   233   236    1
   143   169   170    1
   144   121   122    2
   145   141   142    2
   146   141   140    1
   147    24    28   am
   148    24    25    2
   149   113   114    1
   150   193   191   ar
   151   193   192   ar
   152   170   171    1
   153    28    29    1
   154    34    33    1
   155   137   136   ar
   156   137   135   ar
   157   143   140    1
   158   236   237    1
   159   236   238    1
   160   136   134   ar
   161   114   115    1
   162   140   139    1
   163   171   172    2
   164   191   189   ar
   165    42    41    1
   166   192   190   ar
   167   211   210    2
   168   135   133   ar
   169   218   217    2
   170    41    40    1
   171    41    43    1
   172   214   212    1
   173    29    32    1
   174    29    30    1
   175   172   174    1
   176   172   173    1
   177    57    55    1
   178    33    32    1
   179    33    35    1
   180   189   188   ar
   181   134   132   ar
   182   190   188   ar
   183   139   129   am
   184   115   116    2
   185    36    30   am
   186    36    37    1
   187    40    37    1
   188   210   209    1
   189   210   215   am
   190   117   116    1
   191   217   216    1
   192   188   187    1
   193   133   132   ar
   194    30    31    2
   195   209   212    1
   196   209   208    1
   197    48    49    1
   198    48    45    1
   199   212   213    1
   200   132   131    1
   201   116   118    1
   202    37    38    1
   203   216   215    1
   204   216   219    1
   205    44    45    1
   206    44    38   am
   207   129   130    2
   208   129   128    1
   209    55    54    1
   210    45    46    1
   211   202   200   ar
   212    38    39    2
   213    56    54    1
   214   187   184    1
   215    54    51    1
   216   131   128    1
   217   220   219    1
   218   220   221    1
   219   128   127    1
   220   223   221   ar
   221   200   201   ar
   222   200   199    1
   223    64    63    2
   224   221   222   ar
   225    46    47    2
   226    65    63   am
   227   184   183    1
   228   184   185    1
   229    63    62    1
   230   199   196    1
   231    51    50    1
   232    51    52    1
   233   185   186    2
   234   198   197    2
   235    52    58   am
   236    52    53    2
   237    58    59    1
   238   197   196    1
   239   197   203   am
   240    62    59    1
   241   196   195    1
   242    59    60    1
   243   204   203    1
   244   204   207    1
   245   204   205    1
   246   205   206    2
   247    60    61    2
