@<TRIPOS>MOLECULE
tmp/5kcoA00.pdb
 99 97 0 0 0
SMALL
GASTEIGER

@<TRIPOS>ATOM
      1  N         20.7080   64.3030    9.9990 N.3   107  PHE107     -0.1241
      2  CA        20.1220   63.3410    9.0630 C.3   107  PHE107      0.1605
      3  C         21.2440   62.9740    8.0540 C.2   107  PHE107      0.2264
      4  O         21.6240   63.8010    7.2200 O.2   107  PHE107     -0.2867
      5  CB        18.9170   63.9420    8.3650 C.3   107  PHE107      0.0534
      6  CG        17.6820   64.1810    9.2170 C.ar  107  PHE107     -0.0203
      7  CD1       17.4470   63.5700   10.4630 C.ar  107  PHE107     -0.0042
      8  CD2       16.6910   64.9890    8.6940 C.ar  107  PHE107     -0.0042
      9  CE1       16.2320   63.7660   11.1540 C.ar  107  PHE107     -0.0003
     10  CE2       15.5050   65.2070    9.4060 C.ar  107  PHE107     -0.0003
     11  CZ        15.2870   64.5870   10.6090 C.ar  107  PHE107     -0.0000
     12  N         20.1170   57.7240    5.2920 N.3   111  GLY111     -0.1210
     13  CA        18.8790   57.5740    6.0290 C.3   111  GLY111      0.1956
     14  C         18.9430   57.4020    7.5520 C.2   111  GLY111      0.2612
     15  O         17.8610   57.4700    8.2100 O.2   111  GLY111     -0.2717
     16  N         20.1220   57.2510    8.1390 N.am  112  TYR112     -0.1962
     17  CA        20.2510   57.1750    9.6060 C.3   112  TYR112      0.1771
     18  C         20.1840   58.5900   10.2130 C.2   112  TYR112      0.2619
     19  O         20.3320   59.5870    9.5110 O.2   112  TYR112     -0.2715
     20  CB        21.5320   56.4490   10.0110 C.3   112  TYR112      0.0574
     21  CG        21.4870   54.9290    9.7500 C.ar  112  TYR112     -0.0198
     22  CD1       20.8310   54.0500   10.6210 C.ar  112  TYR112     -0.0009
     23  CD2       22.0950   54.3810    8.6360 C.ar  112  TYR112     -0.0009
     24  CE1       20.7810   52.6700   10.3600 C.ar  112  TYR112      0.0417
     25  CE2       22.0550   53.0140    8.3690 C.ar  112  TYR112      0.0417
     26  CZ        21.4100   52.1660    9.2430 C.ar  112  TYR112      0.1957
     27  OH        21.3930   50.8130    8.9510 O.3   112  TYR112     -0.2866
     28  N         19.8960   58.6520   11.5010 N.am  113  ALA113     -0.1977
     29  CA        19.7850   59.8980   12.2740 C.3   113  ALA113      0.1597
     30  C         20.4730   59.7430   13.6260 C.2   113  ALA113      0.2287
     31  O         20.3600   58.6640   14.2660 O.2   113  ALA113     -0.2864
     32  CB        18.3210   60.2440   12.4920 C.3   113  ALA113      0.0319
     33  N         14.7610   58.5830   -2.1020 N.3   139  SER139     -0.1202
     34  CA        13.7640   58.6570   -1.0450 C.3   139  SER139      0.2020
     35  C         14.2710   59.4980    0.1420 C.2   139  SER139      0.2619
     36  O         13.4770   60.2790    0.7020 O.2   139  SER139     -0.2717
     37  CB        13.3000   57.2690   -0.6030 C.3   139  SER139      0.2103
     38  OG        12.6300   56.6210   -1.6810 O.3   139  SER139     -0.2182
     39  N         15.5680   59.3690    0.4420 N.am  140  CYS140     -0.1969
     40  CA        16.1720   60.2120    1.4730 C.3   140  CYS140      0.1712
     41  C         16.2070   61.6890    1.0420 C.2   140  CYS140      0.2296
     42  O         15.8320   62.5820    1.8210 O.2   140  CYS140     -0.2864
     43  CB        17.5640   59.7100    1.8260 C.3   140  CYS140      0.0983
     44  SG        18.2430   60.5250    3.2720 S.3   140  CYS140     -0.0798
     45  N         12.6090   63.2420    1.2080 N.3   143  PHE143     -0.1227
     46  CA        12.1810   63.4180    2.6080 C.3   143  PHE143      0.1736
     47  C         12.8630   64.6430    3.2450 C.2   143  PHE143      0.2595
     48  O         12.2040   65.4740    3.9080 O.2   143  PHE143     -0.2718
     49  CB        12.4820   62.1700    3.4680 C.3   143  PHE143      0.0547
     50  CG        11.9210   62.2660    4.8620 C.ar  143  PHE143     -0.0202
     51  CD1       10.6540   61.7080    5.1790 C.ar  143  PHE143     -0.0042
     52  CD2       12.6470   62.8440    5.8780 C.ar  143  PHE143     -0.0042
     53  CE1       10.1580   61.7550    6.4750 C.ar  143  PHE143     -0.0003
     54  CE2       12.1460   62.9280    7.1760 C.ar  143  PHE143     -0.0003
     55  CZ        10.8790   62.3850    7.4770 C.ar  143  PHE143     -0.0000
     56  N         14.1880   64.7340    3.0460 N.am  144  ILE144     -0.1980
     57  CA        14.9540   65.8490    3.6540 C.3   144  ILE144      0.1595
     58  C         14.5530   67.2090    3.0240 C.2   144  ILE144      0.2287
     59  O         14.4230   68.1750    3.7620 O.2   144  ILE144     -0.2864
     60  CB        16.4810   65.5370    3.6460 C.3   144  ILE144      0.0276
     61  CG1       16.7320   64.3220    4.5800 C.3   144  ILE144      0.0022
     62  CG2       17.2620   66.7920    4.0410 C.3   144  ILE144      0.0022
     63  CD1       18.1000   63.7190    4.5250 C.3   144  ILE144      0.0001
     64  N         14.1250   58.6740   13.6350 N.3   200  TYR200     -0.1241
     65  CA        13.4660   59.9950   13.8200 C.3   200  TYR200      0.1605
     66  C         11.9480   59.8250   14.0310 C.2   200  TYR200      0.2264
     67  O         11.3160   59.0520   13.2840 O.2   200  TYR200     -0.2867
     68  CB        13.7550   60.9060   12.5810 C.3   200  TYR200      0.0534
     69  CG        12.9880   62.2140   12.5380 C.ar  200  TYR200     -0.0201
     70  CD1       13.0210   63.1200   13.6100 C.ar  200  TYR200     -0.0009
     71  CD2       12.2020   62.5440   11.4400 C.ar  200  TYR200     -0.0009
     72  CE1       12.2920   64.3110   13.5640 C.ar  200  TYR200      0.0417
     73  CE2       11.4330   63.7030   11.3940 C.ar  200  TYR200      0.0417
     74  CZ        11.4800   64.5820   12.4640 C.ar  200  TYR200      0.1957
     75  OH        10.6550   65.7060   12.4030 O.3   200  TYR200     -0.2866
     76  N          9.6510   60.0660   11.0240 N.3   203  SER203     -0.1202
     77  CA         9.9230   59.1450    9.8990 C.3   203  SER203      0.2020
     78  C          8.6850   58.3730    9.4660 C.2   203  SER203      0.2619
     79  O          7.9750   57.7940   10.3000 O.2   203  SER203     -0.2717
     80  CB        11.0370   58.1480   10.2640 C.3   203  SER203      0.2103
     81  OG        11.2230   57.2050    9.1830 O.3   203  SER203     -0.2182
     82  N          8.4870   58.3160    8.1550 N.am  204  THR204     -0.1938
     83  CA         7.4600   57.4550    7.5620 C.3   204  THR204      0.2028
     84  C          7.7670   55.9500    7.6570 C.2   204  THR204      0.2642
     85  O          6.9650   55.1330    7.2030 O.2   204  THR204     -0.2714
     86  CB         7.2130   57.8600    6.0750 C.3   204  THR204      0.1808
     87  OG1        8.4550   57.9150    5.3650 O.3   204  THR204     -0.2208
     88  CG2        6.5180   59.2090    6.0410 C.3   204  THR204      0.0379
     89  N          8.9230   55.5550    8.1890 N.am  205  ARG205     -0.1977
     90  CA         9.1870   54.1260    8.5750 C.3   205  ARG205      0.1597
     91  C          8.3920   53.7250    9.8360 C.2   205  ARG205      0.2287
     92  O          8.3210   52.5140   10.1320 O.2   205  ARG205     -0.2864
     93  CB        10.6660   53.8350    8.7620 C.3   205  ARG205      0.0334
     94  CG        11.4760   53.9350    7.4680 C.3   205  ARG205      0.0492
     95  CD        12.9430   53.7480    7.6380 C.3   205  ARG205      0.2205
     96  NE        13.1850   52.4350    8.2300 N.pl3 205  ARG205     -0.0865
     97  CZ        14.2190   52.1240    9.0030 C.cat 205  ARG205      0.5346
     98  NH1       15.1400   53.0510    9.2940 N.pl3 205  ARG205      0.1354
     99  NH2       14.3180   50.9320    9.5360 N.pl3 205  ARG205      0.1354
@<TRIPOS>BOND
     1    33    34    1
     2    38    37    1
     3    34    37    1
     4    34    35    1
     5    35    39   am
     6    35    36    2
     7    39    40    1
     8    41    40    1
     9    41    42    2
    10    45    46    1
    11    40    43    1
    12    43    44    1
    13    46    47    1
    14    46    49    1
    15    58    57    1
    16    58    59    2
    17    56    47   am
    18    56    57    1
    19    47    48    2
    20    49    50    1
    21    60    57    1
    22    60    62    1
    23    60    61    1
    24    63    61    1
    25    50    51   ar
    26    50    52   ar
    27    51    53   ar
    28    12    13    1
    29    87    86    1
    30    52    54   ar
    31    13    14    1
    32    88    86    1
    33    86    83    1
    34    53    55   ar
    35    54    55   ar
    36    85    84    2
    37     4     3    2
    38    94    95    1
    39    94    93    1
    40    14    16   am
    41    14    15    2
    42    83    84    1
    43    83    82    1
    44    95    96    1
    45    84    89   am
    46     3     2    1
    47    16    17    1
    48    82    78   am
    49    89    90    1
    50    96    97    2
    51     5     2    1
    52     5     6    1
    53    25    23   ar
    54    25    26   ar
    55    90    93    1
    56    90    91    1
    57    23    21   ar
    58     8     6   ar
    59     8    10   ar
    60    27    26    1
    61    97    98    1
    62    97    99    1
    63     2     1    1
    64    81    80    1
    65     6     7   ar
    66    26    24   ar
    67    10    11   ar
    68    78    77    1
    69    78    79    2
    70    19    18    2
    71    17    20    1
    72    17    18    1
    73    21    20    1
    74    21    22   ar
    75    91    92    2
    76    77    80    1
    77    77    76    1
    78    18    28   am
    79    24    22   ar
    80     7     9   ar
    81    11     9   ar
    82    73    71   ar
    83    73    74   ar
    84    71    69   ar
    85    28    29    1
    86    29    32    1
    87    29    30    1
    88    75    74    1
    89    74    72   ar
    90    69    68    1
    91    69    70   ar
    92    68    65    1
    93    67    66    2
    94    72    70   ar
    95    30    31    2
    96    64    65    1
    97    65    66    1
