@<TRIPOS>MOLECULE
tmp/5kcuA01.pdb
 229 216 0 0 0
SMALL
GASTEIGER

@<TRIPOS>ATOM
      1  N        -27.8260  -37.7480   -5.3640 N.3    30  GLU30      -0.1245
      2  CA       -27.5070  -36.5980   -6.2020 C.3    30  GLU30       0.1567
      3  C        -28.1070  -35.3230   -5.6210 C.2    30  GLU30       0.2260
      4  O        -27.4780  -34.2640   -5.6350 O.2    30  GLU30      -0.2867
      5  CB       -28.0080  -36.8150   -7.6310 C.3    30  GLU30       0.0388
      6  CG       -27.7070  -35.6860   -8.5690 C.3    30  GLU30       0.1160
      7  CD       -28.0720  -35.9070  -10.0050 C.2    30  GLU30       0.3649
      8  OE1      -28.6570  -36.9180  -10.3310 O.co2  30  GLU30      -0.2457
      9  OE2      -27.9410  -35.0210  -10.8630 O.co2  30  GLU30      -0.2457
     10  N        -25.9300  -32.3220   -3.4660 N.3    34  MET34      -0.1245
     11  CA       -26.0280  -30.9680   -3.9900 C.3    34  MET34       0.1570
     12  C        -26.6700  -30.0360   -2.9690 C.2    34  MET34       0.2261
     13  O        -26.3710  -28.8440   -2.9320 O.2    34  MET34      -0.2867
     14  CB       -26.8210  -30.9600   -5.3000 C.3    34  MET34       0.0387
     15  CG       -26.6690  -29.6850   -6.1150 C.3    34  MET34       0.0595
     16  SD       -24.9490  -29.2550   -6.4640 S.3    34  MET34      -0.1393
     17  CE       -24.3080  -30.8130   -7.0750 C.3    34  MET34       0.0692
     18  N        -23.9890  -29.0060   -0.2650 N.3    37  LEU37      -0.1231
     19  CA       -22.9970  -28.1130   -0.8510 C.3    37  LEU37       0.1693
     20  C        -23.5750  -26.7310   -1.1380 C.2    37  LEU37       0.2592
     21  O        -22.9330  -25.7170   -0.8710 O.2    37  LEU37      -0.2718
     22  CB       -22.4270  -28.7190   -2.1350 C.3    37  LEU37       0.0284
     23  CG       -21.6960  -30.0530   -1.9700 C.3    37  LEU37       0.0019
     24  CD1      -21.1050  -30.5090   -3.2940 C.3    37  LEU37       0.0001
     25  CD2      -20.6170  -29.9450   -0.9040 C.3    37  LEU37       0.0001
     26  N        -24.7850  -26.6990   -1.6880 N.am   38  THR38      -0.1953
     27  CA       -25.4660  -25.4420   -1.9830 C.3    38  THR38       0.1897
     28  C        -25.6850  -24.6320   -0.7090 C.2    38  THR38       0.2313
     29  O        -25.4120  -23.4330   -0.6700 O.2    38  THR38      -0.2863
     30  CB       -26.8210  -25.6880   -2.6760 C.3    38  THR38       0.1794
     31  OG1      -26.5980  -26.2380   -3.9800 O.3    38  THR38      -0.2208
     32  CG2      -27.6070  -24.3950   -2.8070 C.3    38  THR38       0.0378
     33  N        -24.0240  -24.9280    2.1560 N.3    40  LEU40      -0.1231
     34  CA       -22.7160  -24.5430    2.6730 C.3    40  LEU40       0.1693
     35  C        -22.1170  -23.3670    1.9050 C.2    40  LEU40       0.2591
     36  O        -21.6380  -22.4030    2.5050 O.2    40  LEU40      -0.2718
     37  CB       -21.7590  -25.7360    2.6240 C.3    40  LEU40       0.0284
     38  CG       -20.2940  -25.4750    2.9810 C.3    40  LEU40       0.0019
     39  CD1      -20.1660  -24.9530    4.4040 C.3    40  LEU40       0.0001
     40  CD2      -19.4680  -26.7400    2.7880 C.3    40  LEU40       0.0001
     41  N        -22.1430  -23.4550    0.5790 N.am   41  ALA41      -0.1980
     42  CA       -21.5860  -22.4090   -0.2720 C.3    41  ALA41       0.1597
     43  C        -22.3200  -21.0860   -0.0780 C.2    41  ALA41       0.2287
     44  O        -21.7070  -20.0200   -0.0870 O.2    41  ALA41      -0.2864
     45  CB       -21.6350  -22.8330   -1.7350 C.3    41  ALA41       0.0319
     46  N        -21.1680  -19.5210    3.0820 N.3    44  GLU44      -0.1245
     47  CA       -19.7970  -19.0600    2.8850 C.3    44  GLU44       0.1567
     48  C        -19.7490  -17.7280    2.1450 C.2    44  GLU44       0.2260
     49  O        -18.8760  -16.8970    2.4010 O.2    44  GLU44      -0.2867
     50  CB       -18.9820  -20.0990    2.1160 C.3    44  GLU44       0.0388
     51  CG       -18.5780  -21.3150    2.9280 C.3    44  GLU44       0.1160
     52  CD       -17.6740  -22.2450    2.1430 C.2    44  GLU44       0.3649
     53  OE1      -18.1990  -23.0730    1.3720 O.co2  44  GLU44      -0.2457
     54  OE2      -16.4370  -22.1390    2.2860 O.co2  44  GLU44      -0.2457
     55  N        -16.1470  -15.3950   -7.2440 N.3    74  TRP74      -0.1227
     56  CA       -16.6740  -16.0640   -6.0490 C.3    74  TRP74       0.1737
     57  C        -16.4640  -17.5810   -6.0220 C.2    74  TRP74       0.2595
     58  O        -16.2030  -18.1450   -4.9600 O.2    74  TRP74      -0.2718
     59  CB       -18.1660  -15.7540   -5.8660 C.3    74  TRP74       0.0564
     60  CG       -19.0770  -16.3640   -6.8820 C.ar   74  TRP74       0.0003
     61  CD1      -19.4700  -15.8140   -8.0670 C.ar   74  TRP74       0.0946
     62  CD2      -19.7260  -17.6380   -6.7970 C.ar   74  TRP74       0.0152
     63  NE1      -20.3190  -16.6670   -8.7270 N.ar   74  TRP74      -0.2442
     64  CE2      -20.4920  -17.7970   -7.9680 C.ar   74  TRP74       0.0810
     65  CE3      -19.7300  -18.6640   -5.8460 C.ar   74  TRP74       0.0012
     66  CZ2      -21.2530  -18.9370   -8.2160 C.ar   74  TRP74       0.0191
     67  CZ3      -20.4860  -19.7970   -6.0930 C.ar   74  TRP74       0.0001
     68  CH2      -21.2370  -19.9230   -7.2680 C.ar   74  TRP74       0.0015
     69  N        -16.5680  -18.2470   -7.1680 N.am   75  LEU75      -0.1980
     70  CA       -16.3900  -19.6980   -7.1820 C.3    75  LEU75       0.1596
     71  C        -14.9080  -20.0650   -7.1140 C.2    75  LEU75       0.2287
     72  O        -14.5400  -21.0540   -6.4790 O.2    75  LEU75      -0.2864
     73  CB       -17.0390  -20.3240   -8.4190 C.3    75  LEU75       0.0297
     74  CG       -17.1090  -21.8550   -8.4040 C.3    75  LEU75       0.0022
     75  CD1      -17.8210  -22.3510   -7.1450 C.3    75  LEU75       0.0001
     76  CD2      -17.7940  -22.3880   -9.6520 C.3    75  LEU75       0.0001
     77  N        -14.0800  -19.6820   -3.4570 N.3    78  LEU78      -0.1231
     78  CA       -14.5880  -20.8440   -2.7340 C.3    78  LEU78       0.1693
     79  C        -13.7060  -22.0620   -2.9810 C.2    78  LEU78       0.2591
     80  O        -13.4200  -22.8280   -2.0600 O.2    78  LEU78      -0.2718
     81  CB       -16.0310  -21.1640   -3.1390 C.3    78  LEU78       0.0284
     82  CG       -17.1580  -20.2800   -2.6040 C.3    78  LEU78       0.0019
     83  CD1      -18.5060  -20.7610   -3.1240 C.3    78  LEU78       0.0001
     84  CD2      -17.1470  -20.2570   -1.0810 C.3    78  LEU78       0.0001
     85  N        -13.2750  -22.2310   -4.2280 N.am   79  MET79      -0.1979
     86  CA       -12.4850  -23.3930   -4.6190 C.3    79  MET79       0.1605
     87  C        -11.0820  -23.3940   -4.0210 C.2    79  MET79       0.2287
     88  O        -10.6250  -24.4230   -3.5220 O.2    79  MET79      -0.2864
     89  CB       -12.3930  -23.4890   -6.1450 C.3    79  MET79       0.0413
     90  CG       -13.6130  -24.1240   -6.7950 C.3    79  MET79       0.0598
     91  SD       -13.5460  -24.0780   -8.5930 S.3    79  MET79      -0.1393
     92  CE       -14.9270  -25.1350   -9.0140 C.3    79  MET79       0.0692
     93  N        -11.4220  -24.3100   -0.5030 N.3    82  LEU82      -0.1245
     94  CA       -11.6450  -25.7480   -0.3920 C.3    82  LEU82       0.1561
     95  C        -10.3390  -26.5150   -0.5420 C.2    82  LEU82       0.2260
     96  O        -10.0280  -27.4040    0.2520 O.2    82  LEU82      -0.2867
     97  CB       -12.6470  -26.2160   -1.4500 C.3    82  LEU82       0.0270
     98  CG       -12.8140  -27.7300   -1.6050 C.3    82  LEU82       0.0019
     99  CD1      -13.3730  -28.3400   -0.3280 C.3    82  LEU82       0.0001
    100  CD2      -13.6990  -28.0610   -2.7940 C.3    82  LEU82       0.0001
    101  N         -7.8310  -26.0520    2.6620 N.3    85  ARG85      -0.1245
    102  CA        -8.1090  -26.8200    3.8710 C.3    85  ARG85       0.1563
    103  C         -8.2090  -28.3170    3.5830 C.2    85  ARG85       0.2260
    104  O         -8.5040  -29.1070    4.4760 O.2    85  ARG85      -0.2867
    105  CB        -9.3920  -26.3220    4.5460 C.3    85  ARG85       0.0307
    106  CG       -10.6490  -26.4470    3.7030 C.3    85  ARG85       0.0489
    107  CD       -11.8470  -25.8510    4.4310 C.3    85  ARG85       0.2205
    108  NE       -13.0860  -26.0130    3.6760 N.pl3  85  ARG85      -0.0865
    109  CZ       -13.5710  -25.1100    2.8300 C.cat  85  ARG85       0.5346
    110  NH1      -12.9210  -23.9720    2.6240 N.pl3  85  ARG85       0.1354
    111  NH2      -14.7050  -25.3460    2.1860 N.pl3  85  ARG85       0.1354
    112  N        -14.7010  -30.2280    2.5280 N.3    95  PHE95      -0.1241
    113  CA       -15.7210  -29.2040    2.3230 C.3    95  PHE95       0.1605
    114  C        -16.0560  -28.5200    3.6390 C.2    95  PHE95       0.2264
    115  O        -16.2070  -27.3010    3.7070 O.2    95  PHE95      -0.2867
    116  CB       -16.9790  -29.8180    1.7090 C.3    95  PHE95       0.0534
    117  CG       -16.8270  -30.1810    0.2640 C.ar   95  PHE95      -0.0203
    118  CD1      -17.0670  -29.2440   -0.7220 C.ar   95  PHE95      -0.0042
    119  CD2      -16.4360  -31.4560   -0.1100 C.ar   95  PHE95      -0.0042
    120  CE1      -16.9250  -29.5700   -2.0510 C.ar   95  PHE95      -0.0003
    121  CE2      -16.2920  -31.7870   -1.4450 C.ar   95  PHE95      -0.0003
    122  CZ       -16.5380  -30.8420   -2.4170 C.ar   95  PHE95      -0.0000
    123  N        -22.9770  -37.1710   -8.0450 N.3   109  VAL109     -0.1231
    124  CA       -23.4530  -36.1440   -8.9560 C.3   109  VAL109      0.1692
    125  C        -22.7980  -36.3320  -10.3200 C.2   109  VAL109      0.2592
    126  O        -21.5740  -36.4150  -10.4220 O.2   109  VAL109     -0.2718
    127  CB       -23.1600  -34.7370   -8.4230 C.3   109  VAL109      0.0266
    128  CG1      -23.8970  -33.7100   -9.2460 C.3   109  VAL109      0.0020
    129  CG2      -23.5790  -34.6370   -6.9650 C.3   109  VAL109      0.0020
    130  N        -23.6190  -36.4040  -11.3630 N.am  110  GLU110     -0.1966
    131  CA       -23.1400  -36.7300  -12.7040 C.3   110  GLU110      0.1733
    132  C        -22.2790  -35.6290  -13.3170 C.2   110  GLU110      0.2617
    133  O        -22.7750  -34.7770  -14.0520 O.2   110  GLU110     -0.2715
    134  CB       -24.3230  -37.0280  -13.6270 C.3   110  GLU110      0.0429
    135  CG       -25.2220  -38.0890  -13.0030 C.3   110  GLU110      0.1163
    136  CD       -24.6940  -39.4960  -13.0940 C.2   110  GLU110      0.3649
    137  OE1      -23.6140  -39.6670  -13.6650 O.co2 110  GLU110     -0.2457
    138  OE2      -25.3690  -40.4450  -12.5900 O.co2 110  GLU110     -0.2457
    139  N        -20.9840  -35.6630  -13.0210 N.am  111  GLY111     -0.1940
    140  CA       -20.0530  -34.7110  -13.5930 C.3   111  GLY111      0.2014
    141  C        -19.1980  -34.0080  -12.5570 C.2   111  GLY111      0.2638
    142  O        -18.3860  -33.1450  -12.8930 O.2   111  GLY111     -0.2714
    143  N        -19.3860  -34.3660  -11.2910 N.am  112  MET112     -0.1976
    144  CA       -18.6050  -33.7660  -10.2190 C.3   112  MET112      0.1605
    145  C        -17.2120  -34.3740  -10.1730 C.2   112  MET112      0.2287
    146  O        -16.2570  -33.7230   -9.7560 O.2   112  MET112     -0.2864
    147  CB       -19.3100  -33.9370   -8.8720 C.3   112  MET112      0.0413
    148  CG       -18.6350  -33.1310   -7.7830 C.3   112  MET112      0.0598
    149  SD       -19.3410  -33.3860   -6.1920 S.3   112  MET112     -0.1393
    150  CE       -20.0100  -31.8400   -5.8770 C.3   112  MET112      0.0692
    151  N        -14.3710  -32.4120  -11.9800 N.3   115  ILE115     -0.1231
    152  CA       -13.8950  -31.2540  -11.2360 C.3   115  ILE115      0.1692
    153  C        -13.3100  -31.6810   -9.8930 C.2   115  ILE115      0.2592
    154  O        -12.3940  -31.0420   -9.3750 O.2   115  ILE115     -0.2718
    155  CB       -15.0160  -30.2190  -11.0200 C.3   115  ILE115      0.0266
    156  CG1      -15.7340  -29.9420  -12.3430 C.3   115  ILE115      0.0019
    157  CG2      -14.4530  -28.9310  -10.4360 C.3   115  ILE115      0.0020
    158  CD1      -16.6920  -28.7750  -12.2960 C.3   115  ILE115      0.0001
    159  N        -13.8350  -32.7730   -9.3440 N.am  116  PHE116     -0.1976
    160  CA       -13.3090  -33.3470   -8.1100 C.3   116  PHE116      0.1639
    161  C        -11.8240  -33.6620   -8.2520 C.2   116  PHE116      0.2290
    162  O        -11.0140  -33.2760   -7.4120 O.2   116  PHE116     -0.2864
    163  CB       -14.0790  -34.6160   -7.7380 C.3   116  PHE116      0.0560
    164  CG       -14.1430  -34.8790   -6.2620 C.ar  116  PHE116     -0.0200
    165  CD1      -15.2930  -34.5930   -5.5440 C.ar  116  PHE116     -0.0042
    166  CD2      -13.0570  -35.4150   -5.5910 C.ar  116  PHE116     -0.0042
    167  CE1      -15.3590  -34.8370   -4.1850 C.ar  116  PHE116     -0.0003
    168  CE2      -13.1150  -35.6610   -4.2320 C.ar  116  PHE116     -0.0003
    169  CZ       -14.2690  -35.3720   -3.5290 C.ar  116  PHE116     -0.0000
    170  N         -9.7030  -30.5660   -8.4480 N.3   119  LEU119     -0.1245
    171  CA        -9.5470  -29.9760   -7.1230 C.3   119  LEU119      0.1561
    172  C         -8.5200  -30.7470   -6.2980 C.2   119  LEU119      0.2260
    173  O         -7.6800  -30.1500   -5.6240 O.2   119  LEU119     -0.2867
    174  CB       -10.8920  -29.9350   -6.3950 C.3   119  LEU119      0.0270
    175  CG       -11.9150  -28.9490   -6.9650 C.3   119  LEU119      0.0019
    176  CD1      -13.3140  -29.2620   -6.4620 C.3   119  LEU119      0.0001
    177  CD2      -11.5250  -27.5170   -6.6260 C.3   119  LEU119      0.0001
    178  N        -17.1270  -25.2960  -13.4890 N.3   202  GLY202     -0.1225
    179  CA       -18.0530  -25.3070  -12.3740 C.3   202  GLY202      0.1811
    180  C        -19.2970  -24.4850  -12.6440 C.2   202  GLY202      0.2280
    181  O        -20.4150  -24.9660  -12.4600 O.2   202  GLY202     -0.2866
    182  N        -21.9350  -26.0320  -15.0170 N.3   205  HIS205     -0.1226
    183  CA       -22.8650  -27.0360  -14.5290 C.3   205  HIS205      0.1752
    184  C        -23.9490  -26.4400  -13.6220 C.2   205  HIS205      0.2595
    185  O        -25.0120  -27.0310  -13.4560 O.2   205  HIS205     -0.2718
    186  CB       -22.1230  -28.1400  -13.7690 C.3   205  HIS205      0.0759
    187  CG       -21.1210  -28.9040  -14.5890 C.ar  205  HIS205      0.0818
    188  ND1      -19.7830  -28.6060  -14.5790 N.ar  205  HIS205     -0.2268
    189  CD2      -21.2820  -29.9380  -15.4510 C.ar  205  HIS205      0.1154
    190  CE1      -19.1420  -29.4460  -15.3910 C.ar  205  HIS205      0.1986
    191  NE2      -20.0310  -30.2500  -15.9300 N.ar  205  HIS205     -0.2212
    192  N        -23.6680  -25.2980  -13.0030 N.am  206  LEU206     -0.1980
    193  CA       -24.6500  -24.6510  -12.1340 C.3   206  LEU206      0.1596
    194  C        -25.7970  -24.0950  -12.9630 C.2   206  LEU206      0.2287
    195  O        -26.9510  -24.1000  -12.5360 O.2   206  LEU206     -0.2864
    196  CB       -24.0000  -23.5380  -11.3140 C.3   206  LEU206      0.0297
    197  CG       -22.9420  -23.9980  -10.3110 C.3   206  LEU206      0.0022
    198  CD1      -22.2430  -22.8150   -9.6500 C.3   206  LEU206      0.0001
    199  CD2      -23.5590  -24.9060   -9.2650 C.3   206  LEU206      0.0001
    200  N        -26.7080  -25.5100  -15.6150 N.3   208  SER208     -0.1202
    201  CA       -27.3730  -26.6990  -16.1460 C.3   208  SER208      0.2020
    202  C        -28.1510  -27.4630  -15.0710 C.2   208  SER208      0.2618
    203  O        -28.8270  -28.4490  -15.3710 O.2   208  SER208     -0.2717
    204  CB       -26.3520  -27.6280  -16.8090 C.3   208  SER208      0.2103
    205  OG       -25.5810  -28.3160  -15.8410 O.3   208  SER208     -0.2182
    206  N        -28.0330  -27.0190  -13.8200 N.am  209  MET209     -0.1979
    207  CA       -28.8960  -27.5120  -12.7400 C.3   209  MET209      0.1605
    208  C        -29.8990  -26.5090  -12.2080 C.2   209  MET209      0.2287
    209  O        -30.8050  -26.8740  -11.4590 O.2   209  MET209     -0.2864
    210  CB       -28.0980  -28.0280  -11.5490 C.3   209  MET209      0.0413
    211  CG       -27.5440  -29.4150  -11.6880 C.3   209  MET209      0.0598
    212  SD       -26.7700  -29.8090  -10.1120 S.3   209  MET209     -0.1393
    213  CE       -26.4180  -31.5480  -10.3430 C.3   209  MET209      0.0692
    214  N        -31.2460  -23.8190   -5.3450 N.3   214  LEU214     -0.1245
    215  CA       -30.3190  -22.6930   -5.3600 C.3   214  LEU214      0.1561
    216  C        -30.9740  -21.4350   -4.7970 C.2   214  LEU214      0.2260
    217  O        -32.0780  -21.0660   -5.1980 O.2   214  LEU214     -0.2867
    218  CB       -29.8130  -22.4340   -6.7810 C.3   214  LEU214      0.0270
    219  CG       -29.0820  -23.5900   -7.4530 C.3   214  LEU214      0.0019
    220  CD1      -28.8060  -23.3000   -8.9130 C.3   214  LEU214      0.0001
    221  CD2      -27.7820  -23.9230   -6.7450 C.3   214  LEU214      0.0001
    222  N        -27.4010  -17.0460   -4.7130 N.3   218  LEU218     -0.1245
    223  CA       -26.6340  -17.9080   -5.6060 C.3   218  LEU218      0.1561
    224  C        -27.0910  -17.7500   -7.0510 C.2   218  LEU218      0.2260
    225  O        -26.2760  -17.7840   -7.9740 O.2   218  LEU218     -0.2867
    226  CB       -26.7490  -19.3720   -5.1770 C.3   218  LEU218      0.0270
    227  CG       -25.7630  -19.8440   -4.1080 C.3   218  LEU218      0.0019
    228  CD1      -26.1010  -21.2500   -3.6550 C.3   218  LEU218      0.0001
    229  CD2      -24.3420  -19.7880   -4.6410 C.3   218  LEU218      0.0001
@<TRIPOS>BOND
     1   204   201    1
     2   204   205    1
     3   201   200    1
     4   201   202    1
     5   191   189   ar
     6   191   190   ar
     7   189   187   ar
     8   190   188   ar
     9   203   202    2
    10   202   206   am
    11   182   183    1
    12   187   188   ar
    13   187   186    1
    14   183   186    1
    15   183   184    1
    16   133   132    2
    17   206   207    1
    18   137   136   ar
    19   134   135    1
    20   134   131    1
    21   184   185    2
    22   184   192   am
    23   140   139    1
    24   140   141    1
    25   178   179    1
    26   132   139   am
    27   132   131    1
    28   136   135    1
    29   136   138   ar
    30   192   193    1
    31   194   195    2
    32   194   193    1
    33   142   141    2
    34   207   208    1
    35   207   210    1
    36   131   130    1
    37   180   181    2
    38   180   179    1
    39   141   143   am
    40   156   158    1
    41   156   155    1
    42   208   209    2
    43   193   196    1
    44   151   152    1
    45   211   210    1
    46   211   212    1
    47   130   125   am
    48   196   197    1
    49   143   144    1
    50   152   155    1
    51   152   153    1
    52   155   157    1
    53     9     7   ar
    54   126   125    2
    55   213   212    1
    56     8     7   ar
    57   125   124    1
    58   197   198    1
    59   197   199    1
    60   144   145    1
    61   144   147    1
    62   145   146    2
    63     7     6    1
    64   153   154    2
    65   153   159   am
    66    76    74    1
    67   159   160    1
    68   128   127    1
    69    92    91    1
    70   124   127    1
    71   124   123    1
    72   220   219    1
    73   147   148    1
    74    63    61   ar
    75    63    64   ar
    76    91    90    1
    77     6     5    1
    78   170   171    1
    79   127   129    1
    80    73    74    1
    81    73    70    1
    82    74    75    1
    83   161   160    1
    84   161   162    2
    85    66    64   ar
    86    66    68   ar
    87   160   163    1
    88    61    60   ar
    89   225   224    2
    90    64    62   ar
    91   148   149    1
    92   163   164    1
    93     5     2    1
    94   219   218    1
    95   219   221    1
    96    68    67   ar
    97    55    56    1
    98    70    69    1
    99    70    71    1
   100    69    57   am
   101   171   174    1
   102   171   172    1
   103    71    72    2
   104    17    16    1
   105   224   223    1
   106   175   177    1
   107   175   176    1
   108   175   174    1
   109    60    62   ar
   110    60    59    1
   111    62    65   ar
   112    90    89    1
   113   218   215    1
   114    16    15    1
   115   172   173    2
   116   164   166   ar
   117   164   165   ar
   118     2     3    1
   119     2     1    1
   120   149   150    1
   121    89    86    1
   122    15    14    1
   123    67    65   ar
   124    56    57    1
   125    56    59    1
   126    57    58    2
   127     4     3    2
   128   223   226    1
   129   223   222    1
   130   166   168   ar
   131   165   167   ar
   132   215   214    1
   133   215   216    1
   134    14    11    1
   135   217   216    2
   136   226   227    1
   137   229   227    1
   138    86    85    1
   139    86    87    1
   140   168   169   ar
   141    85    79   am
   142   167   169   ar
   143   227   228    1
   144    87    88    2
   145    11    10    1
   146    11    12    1
   147    31    30    1
   148    77    78    1
   149    24    23    1
   150    81    78    1
   151    81    82    1
   152    83    82    1
   153    79    78    1
   154    79    80    2
   155    12    13    2
   156    32    30    1
   157   100    98    1
   158    30    27    1
   159    82    84    1
   160   122   120   ar
   161   122   121   ar
   162    22    23    1
   163    22    19    1
   164   120   118   ar
   165    27    26    1
   166    27    28    1
   167    23    25    1
   168    45    42    1
   169    26    20   am
   170    98    97    1
   171    98    99    1
   172    97    94    1
   173   121   119   ar
   174    20    21    2
   175    20    19    1
   176    19    18    1
   177   118   117   ar
   178    28    29    2
   179    95    94    1
   180    95    96    2
   181    93    94    1
   182    42    43    1
   183    42    41    1
   184   119   117   ar
   185    44    43    2
   186   117   116    1
   187    41    35   am
   188    53    52   ar
   189   116   113    1
   190    35    36    2
   191    35    34    1
   192    50    47    1
   193    50    51    1
   194    52    54   ar
   195    52    51    1
   196    48    49    2
   197    48    47    1
   198    33    34    1
   199   111   109    1
   200   113   112    1
   201   113   114    1
   202    37    34    1
   203    37    38    1
   204   110   109    1
   205   101   102    1
   206    40    38    1
   207   109   108    2
   208    47    46    1
   209    38    39    1
   210   103   102    1
   211   103   104    2
   212   114   115    2
   213   108   107    1
   214   106   107    1
   215   106   105    1
   216   102   105    1
