@<TRIPOS>MOLECULE
tmp/5kcvA00.pdb
 172 163 0 0 0
SMALL
GASTEIGER

@<TRIPOS>ATOM
      1  N         -5.6670    6.9730  -22.9990 N.3    40  ASN40      -0.1225
      2  CA        -6.0500    5.9760  -23.9720 C.3    40  ASN40       0.1785
      3  C         -7.5360    5.6750  -23.9320 C.2    40  ASN40       0.2597
      4  O         -8.0310    5.0100  -24.8280 O.2    40  ASN40      -0.2718
      5  CB        -5.2280    4.6910  -23.7650 C.3    40  ASN40       0.1169
      6  CG        -3.7870    4.8290  -24.2650 C.2    40  ASN40       0.2627
      7  OD1       -2.8240    4.5650  -23.5460 O.2    40  ASN40      -0.2716
      8  ND2       -3.6500    5.2330  -25.5080 N.am   40  ASN40      -0.0877
      9  N         -8.2330    6.1460  -22.8920 N.am   41  ASN41      -0.1974
     10  CA        -9.7010    6.0530  -22.8050 C.3    41  ASN41       0.1688
     11  C        -10.4170    6.7640  -23.9590 C.2    41  ASN41       0.2292
     12  O        -11.4390    6.3140  -24.4310 O.2    41  ASN41      -0.2864
     13  CB       -10.1890    6.6510  -21.4880 C.3    41  ASN41       0.1181
     14  CG        -9.6210    5.9400  -20.2660 C.2    41  ASN41       0.2629
     15  OD1       -8.4290    6.0170  -19.9970 O.2    41  ASN41      -0.2716
     16  ND2      -10.4880    5.2570  -19.5070 N.am   41  ASN41      -0.0877
     17  N        -11.7340   -1.8040  -24.7600 N.3    66  GLN66      -0.1231
     18  CA       -10.5760   -1.2830  -24.0350 C.3    66  GLN66       0.1698
     19  C        -10.2440   -2.2480  -22.9190 C.2    66  GLN66       0.2592
     20  O        -11.0180   -2.3710  -21.9360 O.2    66  GLN66      -0.2718
     21  CB       -10.8970    0.0750  -23.4480 C.3    66  GLN66       0.0381
     22  CG       -11.1430    1.1460  -24.4890 C.3    66  GLN66       0.0905
     23  CD       -11.5300    2.4870  -23.9020 C.2    66  GLN66       0.2608
     24  OE1      -11.3980    3.4780  -24.5880 O.2    66  GLN66      -0.2717
     25  NE2      -12.0100    2.5330  -22.6230 N.am   66  GLN66      -0.0878
     26  N         -9.0990   -2.9200  -23.0720 N.am   67  TRP67      -0.1976
     27  CA        -8.6640   -3.9580  -22.1450 C.3    67  TRP67       0.1640
     28  C         -9.6940   -5.1130  -22.1330 C.2    67  TRP67       0.2290
     29  O         -9.7130   -5.8420  -23.1140 O.2    67  TRP67      -0.2864
     30  CB        -8.3200   -3.3940  -20.7460 C.3    67  TRP67       0.0576
     31  CG        -7.6970   -4.4140  -19.8130 C.ar   67  TRP67       0.0006
     32  CD1       -8.2590   -4.9630  -18.6760 C.ar   67  TRP67       0.0946
     33  CD2       -6.4270   -5.0280  -19.9550 C.ar   67  TRP67       0.0152
     34  NE1       -7.3790   -5.8440  -18.0790 N.ar   67  TRP67      -0.2442
     35  CE2       -6.2430   -5.8970  -18.8480 C.ar   67  TRP67       0.0810
     36  CE3       -5.3940   -4.8930  -20.8730 C.ar   67  TRP67       0.0012
     37  CZ2       -5.0690   -6.6600  -18.6750 C.ar   67  TRP67       0.0191
     38  CZ3       -4.2140   -5.6350  -20.6760 C.ar   67  TRP67       0.0001
     39  CH2       -4.0780   -6.5170  -19.6040 C.ar   67  TRP67       0.0015
     40  N        -13.1060   -4.5090  -21.4130 N.3    69  THR69      -0.1218
     41  CA       -14.3760   -3.8090  -21.2180 C.3    69  THR69       0.1862
     42  C        -14.7880   -3.1350  -22.5250 C.2    69  THR69       0.2287
     43  O        -13.9480   -2.5450  -23.2160 O.2    69  THR69      -0.2866
     44  CB       -14.2590   -2.7390  -20.0870 C.3    69  THR69       0.1770
     45  OG1      -13.8580   -3.3500  -18.8210 O.3    69  THR69      -0.2211
     46  CG2      -15.6150   -2.0390  -19.9120 C.3    69  THR69       0.0375
     47  N        -16.7050   -0.2410  -24.6670 N.3    71  ILE71      -0.1245
     48  CA       -16.9920    1.1950  -24.5220 C.3    71  ILE71       0.1561
     49  C        -17.7380    1.6960  -25.7430 C.2    71  ILE71       0.2260
     50  O        -17.3430    1.4320  -26.8680 O.2    71  ILE71      -0.2867
     51  CB       -15.7000    2.0530  -24.4010 C.3    71  ILE71       0.0252
     52  CG1      -14.9400    1.7270  -23.1300 C.3    71  ILE71       0.0019
     53  CG2      -16.0150    3.5380  -24.3460 C.3    71  ILE71       0.0019
     54  CD1      -15.7910    1.7890  -21.8830 C.3    71  ILE71       0.0001
     55  N         -0.2130   -5.2540  -16.3800 N.3   136  SER136     -0.1217
     56  CA         0.3580   -4.1690  -15.5790 C.3   136  SER136      0.1889
     57  C          1.1660   -4.8220  -14.4650 C.2   136  SER136      0.2288
     58  O          0.6340   -5.5790  -13.6630 O.2   136  SER136     -0.2866
     59  CB        -0.7570   -3.2670  -14.9620 C.3   136  SER136      0.2089
     60  OG        -1.2660   -2.2630  -15.8550 O.3   136  SER136     -0.2183
     61  N         -3.9400   -4.0640   -9.0320 N.3   141  LEU141     -0.1231
     62  CA        -4.7940   -4.1590  -10.1850 C.3   141  LEU141      0.1693
     63  C         -5.1260   -5.6440  -10.4420 C.2   141  LEU141      0.2592
     64  O         -4.5030   -6.5450   -9.8760 O.2   141  LEU141     -0.2718
     65  CB        -4.1220   -3.5260  -11.4110 C.3   141  LEU141      0.0284
     66  CG        -3.7840   -2.0420  -11.2730 C.3   141  LEU141      0.0019
     67  CD1       -3.0870   -1.5650  -12.5180 C.3   141  LEU141      0.0001
     68  CD2       -4.9870   -1.1570  -11.0370 C.3   141  LEU141      0.0001
     69  N         -6.1350   -5.8710  -11.2810 N.am  142  THR142     -0.1953
     70  CA        -6.6350   -7.1900  -11.5520 C.3   142  THR142      0.1897
     71  C         -5.9080   -7.7250  -12.7800 C.2   142  THR142      0.2313
     72  O         -6.0590   -7.1780  -13.8940 O.2   142  THR142     -0.2863
     73  CB        -8.1560   -7.1810  -11.8070 C.3   142  THR142      0.1794
     74  OG1       -8.8260   -7.0750  -10.5650 O.3   142  THR142     -0.2208
     75  CG2       -8.6050   -8.4930  -12.4520 C.3   142  THR142      0.0378
     76  N         -1.5170    3.2840  -13.1090 N.3   195  LEU195     -0.1245
     77  CA        -2.3750    3.3510  -14.3240 C.3   195  LEU195      0.1561
     78  C         -2.2780    4.6470  -15.0650 C.2   195  LEU195      0.2260
     79  O         -2.3840    4.6860  -16.2780 O.2   195  LEU195     -0.2867
     80  CB        -3.8700    3.1780  -14.0070 C.3   195  LEU195      0.0270
     81  CG        -4.5110    1.7960  -14.0990 C.3   195  LEU195      0.0019
     82  CD1       -5.9360    1.9110  -13.6040 C.3   195  LEU195      0.0001
     83  CD2       -4.4630    1.2610  -15.5200 C.3   195  LEU195      0.0001
     84  N          0.3250    3.7410  -17.9140 N.3   199  LYS199     -0.1245
     85  CA        -0.6000    3.3360  -18.9900 C.3   199  LYS199      0.1561
     86  C         -1.3830    4.4670  -19.6610 C.2   199  LYS199      0.2260
     87  O         -2.0610    4.2370  -20.6680 O.2   199  LYS199     -0.2867
     88  CB        -1.5790    2.3240  -18.4470 C.3   199  LYS199      0.0271
     89  CG        -0.9350    1.0680  -17.8640 C.3   199  LYS199      0.0035
     90  CD        -0.2540    0.2410  -18.9350 C.3   199  LYS199      0.0206
     91  CE         0.1930   -1.1120  -18.4040 C.3   199  LYS199      0.1093
     92  NZ         1.3680   -1.6770  -19.1530 N.3   199  LYS199     -0.1314
     93  N         -4.1080    5.7490  -18.5170 N.3   201  VAL201     -0.1231
     94  CA        -5.4770    5.2790  -18.4240 C.3   201  VAL201      0.1692
     95  C         -6.1160    5.7560  -17.1200 C.2   201  VAL201      0.2592
     96  O         -5.4780    5.7160  -16.0920 O.2   201  VAL201     -0.2718
     97  CB        -5.5220    3.7510  -18.5090 C.3   201  VAL201      0.0266
     98  CG1       -6.8630    3.2090  -18.0570 C.3   201  VAL201      0.0020
     99  CG2       -5.2760    3.3020  -19.9210 C.3   201  VAL201      0.0020
    100  N         -7.3540    6.2320  -17.1790 N.am  202  VAL202     -0.1966
    101  CA        -8.1420    6.4630  -15.9630 C.3   202  VAL202      0.1727
    102  C         -9.0810    5.3080  -15.7080 C.2   202  VAL202      0.2616
    103  O         -9.6040    4.7410  -16.6570 O.2   202  VAL202     -0.2715
    104  CB        -8.9760    7.7460  -16.0100 C.3   202  VAL202      0.0290
    105  CG1       -8.0630    8.9260  -16.1300 C.3   202  VAL202      0.0023
    106  CG2       -9.9280    7.7600  -17.1750 C.3   202  VAL202      0.0023
    107  N         -9.2800    4.9680  -14.4330 N.am  203  TYR203     -0.1960
    108  CA       -10.1500    3.8690  -14.0230 C.3   203  TYR203      0.1771
    109  C        -11.6590    4.2100  -14.0030 C.2   203  TYR203      0.2619
    110  O        -12.5110    3.3730  -14.2750 O.2   203  TYR203     -0.2715
    111  CB        -9.7180    3.3620  -12.6550 C.3   203  TYR203      0.0574
    112  CG       -10.5500    2.2040  -12.1740 C.ar  203  TYR203     -0.0198
    113  CD1      -10.5290    1.0070  -12.8200 C.ar  203  TYR203     -0.0009
    114  CD2      -11.3810    2.3260  -11.0840 C.ar  203  TYR203     -0.0009
    115  CE1      -11.3040   -0.0440  -12.3860 C.ar  203  TYR203      0.0417
    116  CE2      -12.1530    1.2780  -10.6380 C.ar  203  TYR203      0.0417
    117  CZ       -12.1010    0.0980  -11.3020 C.ar  203  TYR203      0.1957
    118  OH       -12.8470   -0.9430  -10.8630 O.3   203  TYR203     -0.2866
    119  N        -11.9850    5.4230  -13.6120 N.am  204  ARG204     -0.1963
    120  CA       -13.3350    5.9930  -13.7830 C.3   204  ARG204      0.1729
    121  C        -14.4380    5.4600  -12.9230 C.2   204  ARG204      0.2616
    122  O        -15.4760    6.1080  -12.8480 O.2   204  ARG204     -0.2715
    123  CB       -13.8410    5.8620  -15.2020 C.3   204  ARG204      0.0348
    124  CG       -13.0110    6.4960  -16.2880 C.3   204  ARG204      0.0492
    125  CD       -13.9600    6.8510  -17.4270 C.3   204  ARG204      0.2205
    126  NE       -14.6160    5.6530  -17.9230 N.pl3 204  ARG204     -0.0865
    127  CZ       -15.7070    5.6270  -18.6810 C.cat 204  ARG204      0.5346
    128  NH1      -16.3060    6.7630  -19.0370 N.pl3 204  ARG204      0.1354
    129  NH2      -16.2080    4.4430  -19.0710 N.pl3 204  ARG204      0.1354
    130  N        -14.2420    4.3090  -12.3060 N.am  205  ASP205     -0.1971
    131  CA       -15.2740    3.6940  -11.5060 C.3   205  ASP205      0.1709
    132  C        -14.7710    3.3540  -10.1610 C.2   205  ASP205      0.2293
    133  O        -15.1660    2.3580   -9.5930 O.2   205  ASP205     -0.2864
    134  CB       -15.7430    2.4050  -12.2100 C.3   205  ASP205      0.1436
    135  CG       -16.4310    2.6950  -13.4940 C.2   205  ASP205      0.3671
    136  OD1      -17.3090    3.5740  -13.4630 O.co2 205  ASP205     -0.2456
    137  OD2      -16.1260    2.0650  -14.5170 O.co2 205  ASP205     -0.2456
    138  N        -16.1140   -1.7100   -6.0610 N.3   210  ASN210     -0.1240
    139  CA       -15.0370   -2.1320   -6.9480 C.3   210  ASN210      0.1653
    140  C        -13.7270   -2.4220   -6.2340 C.2   210  ASN210      0.2266
    141  O        -12.6800   -2.5720   -6.8640 O.2   210  ASN210     -0.2867
    142  CB       -14.8890   -1.1380   -8.0960 C.3   210  ASN210      0.1155
    143  CG       -16.0480   -1.2200   -9.0770 C.2   210  ASN210      0.2627
    144  OD1      -16.9520   -2.0190   -8.9060 O.2   210  ASN210     -0.2716
    145  ND2      -16.0120   -0.4170  -10.1150 N.am  210  ASN210     -0.0877
    146  N         -8.2860   -4.0450   -7.0360 N.3   221  ILE221     -0.1231
    147  CA        -9.2090   -3.2000   -7.7930 C.3   221  ILE221      0.1692
    148  C         -9.7540   -4.0160   -8.9420 C.2   221  ILE221      0.2593
    149  O         -9.0420   -4.4810   -9.7830 O.2   221  ILE221     -0.2718
    150  CB        -8.5650   -1.9070   -8.3450 C.3   221  ILE221      0.0266
    151  CG1       -8.2330   -0.9420   -7.1890 C.3   221  ILE221      0.0019
    152  CG2       -9.5040   -1.1740   -9.3020 C.3   221  ILE221      0.0020
    153  CD1       -7.3820    0.2610   -7.5900 C.3   221  ILE221      0.0001
    154  N        -11.0610   -4.0970   -8.9600 N.am  222  THR222     -0.1939
    155  CA       -11.8810   -4.8820   -9.8600 C.3   222  THR222      0.2028
    156  C        -11.8610   -4.4730  -11.3480 C.2   222  THR222      0.2642
    157  O        -11.6910   -3.2990  -11.6550 O.2   222  THR222     -0.2714
    158  CB       -13.3000   -4.7810   -9.2770 C.3   222  THR222      0.1808
    159  OG1      -13.4810   -5.9340   -8.4690 O.3   222  THR222     -0.2208
    160  CG2      -14.3500   -4.6400  -10.3420 C.3   222  THR222      0.0379
    161  N        -12.0630   -5.4420  -12.2540 N.am  223  ASP223     -0.1971
    162  CA       -12.1890   -5.1910  -13.7320 C.3   223  ASP223      0.1709
    163  C        -13.3980   -5.9040  -14.3250 C.2   223  ASP223      0.2293
    164  O        -13.2630   -6.5440  -15.3350 O.2   223  ASP223     -0.2864
    165  CB       -10.9530   -5.7030  -14.4580 C.3   223  ASP223      0.1436
    166  CG       -10.9470   -5.3860  -15.9520 C.2   223  ASP223      0.3671
    167  OD1      -11.6210   -4.4280  -16.3960 O.co2 223  ASP223     -0.2456
    168  OD2      -10.2220   -6.0880  -16.7050 O.co2 223  ASP223     -0.2456
    169  N        -16.4220   -4.8020  -15.5460 N.3   225  GLY225     -0.1225
    170  CA       -17.3900   -3.9590  -16.2190 C.3   225  GLY225      0.1811
    171  C        -18.1370   -4.6460  -17.3640 C.2   225  GLY225      0.2280
    172  O        -17.5320   -5.1690  -18.3340 O.2   225  GLY225     -0.2866
@<TRIPOS>BOND
     1    50    49    2
     2    49    48    1
     3     8     6   am
     4     4     3    2
     5    17    18    1
     6    47    48    1
     7    24    23    2
     8    48    51    1
     9    22    23    1
    10    22    21    1
    11    12    11    2
    12    51    53    1
    13    51    52    1
    14     6     5    1
    15     6     7    2
    16    18    21    1
    17    18    19    1
    18     2     3    1
    19     2     5    1
    20     2     1    1
    21    11    10    1
    22     3     9   am
    23    23    25   am
    24    43    42    2
    25    52    54    1
    26    29    28    2
    27    26    19   am
    28    26    27    1
    29    19    20    2
    30     9    10    1
    31    10    13    1
    32    42    41    1
    33    27    28    1
    34    27    30    1
    35    13    14    1
    36    40    41    1
    37    41    44    1
    38    36    38   ar
    39    36    33   ar
    40    30    31    1
    41    38    39   ar
    42    87    86    2
    43    14    15    2
    44    14    16   am
    45    44    46    1
    46    44    45    1
    47    33    31   ar
    48    33    35   ar
    49    99    97    1
    50    31    32   ar
    51    86    85    1
    52    39    37   ar
    53    92    91    1
    54   129   127    1
    55   128   127    1
    56    85    88    1
    57    85    84    1
    58    90    91    1
    59    90    89    1
    60    35    37   ar
    61    35    34   ar
    62   127   126    2
    63    32    34   ar
    64    93    94    1
    65    97    94    1
    66    97    98    1
    67    88    89    1
    68    94    95    1
    69   172   171    2
    70   126   125    1
    71   125   124    1
    72   171   170    1
    73   100    95   am
    74   100   101    1
    75   106   104    1
    76    95    96    2
    77   168   166   ar
    78   103   102    2
    79   167   166   ar
    80    55    56    1
    81   124   123    1
    82    79    78    2
    83   170   169    1
    84   105   104    1
    85   104   101    1
    86   101   102    1
    87   166   165    1
    88    60    59    1
    89   102   107   am
    90    56    59    1
    91    56    57    1
    92    83    81    1
    93   164   163    2
    94   123   120    1
    95    78    77    1
    96   137   135   ar
    97    57    58    2
    98   165   162    1
    99   107   108    1
   100   163   162    1
   101    77    80    1
   102    77    76    1
   103   110   109    2
   104    81    80    1
   105    81    82    1
   106   108   109    1
   107   108   111    1
   108   109   119   am
   109    72    71    2
   110   120   119    1
   111   120   121    1
   112   162   161    1
   113   135   136   ar
   114   135   134    1
   115   121   122    2
   116   121   130   am
   117   113   115   ar
   118   113   112   ar
   119    71    70    1
   120   111   112    1
   121    67    66    1
   122    75    73    1
   123   115   117   ar
   124   130   131    1
   125   161   156   am
   126   134   131    1
   127   112   114   ar
   128    73    70    1
   129    73    74    1
   130   157   156    2
   131    70    69    1
   132   131   132    1
   133    65    66    1
   134    65    62    1
   135   156   155    1
   136   117   118    1
   137   117   116   ar
   138    69    63   am
   139    66    68    1
   140   114   116   ar
   141    63    62    1
   142    63    64    2
   143   160   158    1
   144    62    61    1
   145   132   133    2
   146   145   143   am
   147   155   158    1
   148   155   154    1
   149   149   148    2
   150   152   150    1
   151   158   159    1
   152   143   144    2
   153   143   142    1
   154   154   148   am
   155   148   147    1
   156   150   147    1
   157   150   151    1
   158   142   139    1
   159   147   146    1
   160   153   151    1
   161   139   140    1
   162   139   138    1
   163   141   140    2
