@<TRIPOS>MOLECULE
tmp/5kcwA01.pdb
 199 185 0 0 0
SMALL
GASTEIGER

@<TRIPOS>ATOM
      1  N        -26.1980  -32.4710   -3.4650 N.3    38  MET38      -0.1245
      2  CA       -26.2710  -31.0890   -3.9040 C.3    38  MET38       0.1570
      3  C        -26.9670  -30.2340   -2.8630 C.2    38  MET38       0.2261
      4  O        -26.6890  -29.0490   -2.7490 O.2    38  MET38      -0.2867
      5  CB       -26.9770  -30.9980   -5.2520 C.3    38  MET38       0.0387
      6  CG       -26.2080  -31.7010   -6.3780 C.3    38  MET38       0.0595
      7  SD       -24.4840  -31.1280   -6.5150 S.3    38  MET38      -0.1393
      8  CE       -24.7050  -29.3570   -6.5000 C.3    38  MET38       0.0692
      9  N        -24.2480  -29.3210   -0.3090 N.3    41  LEU41      -0.1231
     10  CA       -23.2290  -28.4330   -0.8640 C.3    41  LEU41       0.1693
     11  C        -23.7990  -27.0430   -1.1210 C.2    41  LEU41       0.2592
     12  O        -23.1430  -26.0380   -0.8710 O.2    41  LEU41      -0.2718
     13  CB       -22.6410  -29.0280   -2.1520 C.3    41  LEU41       0.0284
     14  CG       -21.8910  -30.3500   -1.9590 C.3    41  LEU41       0.0019
     15  CD1      -21.3440  -30.8840   -3.2820 C.3    41  LEU41       0.0001
     16  CD2      -20.7690  -30.1780   -0.9580 C.3    41  LEU41       0.0001
     17  N        -25.0290  -27.0000   -1.6150 N.am   42  THR42      -0.1953
     18  CA       -25.7220  -25.7440   -1.8760 C.3    42  THR42       0.1897
     19  C        -26.0030  -24.9870   -0.5770 C.2    42  THR42       0.2313
     20  O        -25.8110  -23.7760   -0.4910 O.2    42  THR42      -0.2863
     21  CB       -27.0460  -26.0020   -2.6230 C.3    42  THR42       0.1794
     22  OG1      -26.7560  -26.4240   -3.9600 O.3    42  THR42      -0.2208
     23  CG2      -27.8990  -24.7580   -2.6740 C.3    42  THR42       0.0378
     24  N        -24.3120  -25.3070    2.2250 N.3    44  LEU44      -0.1231
     25  CA       -23.0130  -24.9070    2.7280 C.3    44  LEU44       0.1693
     26  C        -22.4250  -23.7320    1.9490 C.2    44  LEU44       0.2591
     27  O        -21.9280  -22.7670    2.5360 O.2    44  LEU44      -0.2718
     28  CB       -22.0440  -26.0780    2.6750 C.3    44  LEU44       0.0284
     29  CG       -20.6000  -25.6940    3.0030 C.3    44  LEU44       0.0019
     30  CD1      -20.4730  -25.2970    4.4720 C.3    44  LEU44       0.0001
     31  CD2      -19.6750  -26.8630    2.6470 C.3    44  LEU44       0.0001
     32  N        -22.4680  -23.8310    0.6270 N.am   45  ALA45      -0.1980
     33  CA       -21.9200  -22.7770   -0.2140 C.3    45  ALA45       0.1597
     34  C        -22.6330  -21.4660    0.0470 C.2    45  ALA45       0.2287
     35  O        -22.0130  -20.4070    0.0880 O.2    45  ALA45      -0.2864
     36  CB       -22.0330  -23.1530   -1.6730 C.3    45  ALA45       0.0319
     37  N        -21.3730  -19.9520    3.1180 N.3    48  GLU48      -0.1245
     38  CA       -19.9940  -19.5070    2.9040 C.3    48  GLU48       0.1567
     39  C        -19.9290  -18.1660    2.1720 C.2    48  GLU48       0.2260
     40  O        -19.0070  -17.3660    2.3750 O.2    48  GLU48      -0.2867
     41  CB       -19.2090  -20.5420    2.1090 C.3    48  GLU48       0.0388
     42  CG       -18.7880  -21.7710    2.9250 C.3    48  GLU48       0.1160
     43  CD       -17.8640  -22.6550    2.1090 C.2    48  GLU48       0.3649
     44  OE1      -18.3710  -23.3620    1.2170 O.co2  48  GLU48      -0.2457
     45  OE2      -16.6340  -22.6090    2.3390 O.co2  48  GLU48      -0.2457
     46  N        -16.4860  -15.7400   -7.3430 N.3    78  TRP78      -0.1227
     47  CA       -16.9630  -16.4420   -6.1420 C.3    78  TRP78       0.1737
     48  C        -16.7160  -17.9600   -6.1580 C.2    78  TRP78       0.2595
     49  O        -16.3180  -18.5060   -5.1370 O.2    78  TRP78      -0.2718
     50  CB       -18.4460  -16.1610   -5.8930 C.3    78  TRP78       0.0564
     51  CG       -19.3620  -16.7570   -6.9170 C.ar   78  TRP78       0.0003
     52  CD1      -19.7560  -16.1890   -8.0860 C.ar   78  TRP78       0.0946
     53  CD2      -20.0100  -18.0340   -6.8480 C.ar   78  TRP78       0.0152
     54  NE1      -20.6080  -17.0330   -8.7610 N.ar   78  TRP78      -0.2442
     55  CE2      -20.7810  -18.1720   -8.0180 C.ar   78  TRP78       0.0810
     56  CE3      -20.0010  -19.0770   -5.9170 C.ar   78  TRP78       0.0012
     57  CZ2      -21.5390  -19.3100   -8.2820 C.ar   78  TRP78       0.0191
     58  CZ3      -20.7620  -20.2000   -6.1720 C.ar   78  TRP78       0.0001
     59  CH2      -21.5230  -20.3100   -7.3460 C.ar   78  TRP78       0.0015
     60  N        -16.9170  -18.6470   -7.2820 N.am   79  LEU79      -0.1980
     61  CA       -16.7250  -20.0970   -7.2290 C.3    79  LEU79       0.1596
     62  C        -15.2230  -20.4070   -7.1310 C.2    79  LEU79       0.2287
     63  O        -14.8190  -21.3280   -6.4240 O.2    79  LEU79      -0.2864
     64  CB       -17.3820  -20.8100   -8.4270 C.3    79  LEU79       0.0297
     65  CG       -17.3660  -22.3440   -8.4510 C.3    79  LEU79       0.0022
     66  CD1      -17.9490  -22.9420   -7.0990 C.3    79  LEU79       0.0001
     67  CD2      -18.1090  -22.8950   -9.6630 C.3    79  LEU79       0.0001
     68  N        -14.4130  -20.0900   -3.5070 N.3    82  LEU82      -0.1231
     69  CA       -14.9010  -21.2500   -2.7550 C.3    82  LEU82       0.1693
     70  C        -13.9850  -22.4440   -3.0150 C.2    82  LEU82       0.2591
     71  O        -13.6560  -23.1870   -2.0970 O.2    82  LEU82      -0.2718
     72  CB       -16.3490  -21.6090   -3.1280 C.3    82  LEU82       0.0284
     73  CG       -17.5140  -20.7040   -2.6980 C.3    82  LEU82       0.0019
     74  CD1      -18.8150  -21.3420   -3.1950 C.3    82  LEU82       0.0001
     75  CD2      -17.5580  -20.5150   -1.1670 C.3    82  LEU82       0.0001
     76  N        -13.5470  -22.6030   -4.2680 N.am   83  MET83      -0.1979
     77  CA       -12.7080  -23.7430   -4.6300 C.3    83  MET83       0.1605
     78  C        -11.3120  -23.6760   -4.0330 C.2    83  MET83       0.2287
     79  O        -10.7960  -24.6950   -3.5530 O.2    83  MET83      -0.2864
     80  CB       -12.6140  -23.8650   -6.1590 C.3    83  MET83       0.0413
     81  CG       -13.8850  -24.4030   -6.7670 C.3    83  MET83       0.0598
     82  SD       -13.8040  -24.4860   -8.5710 S.3    83  MET83      -0.1393
     83  CE       -15.1700  -25.5810   -8.9360 C.3    83  MET83       0.0692
     84  N        -11.6270  -24.6070   -0.4870 N.3    86  LEU86      -0.1245
     85  CA       -11.8120  -26.0460   -0.3510 C.3    86  LEU86       0.1561
     86  C        -10.4930  -26.8020   -0.5250 C.2    86  LEU86       0.2260
     87  O        -10.1610  -27.6980    0.2520 O.2    86  LEU86      -0.2867
     88  CB       -12.8380  -26.5280   -1.3610 C.3    86  LEU86       0.0270
     89  CG       -12.9860  -28.0350   -1.5690 C.3    86  LEU86       0.0019
     90  CD1      -13.5720  -28.6970   -0.3120 C.3    86  LEU86       0.0001
     91  CD2      -13.8760  -28.2460   -2.7660 C.3    86  LEU86       0.0001
     92  N         -8.0530  -26.3370    2.6220 N.3    89  ARG89      -0.1245
     93  CA        -8.3120  -27.0710    3.8660 C.3    89  ARG89       0.1563
     94  C         -8.3480  -28.5880    3.6390 C.2    89  ARG89       0.2260
     95  O         -8.4050  -29.3600    4.6000 O.2    89  ARG89      -0.2867
     96  CB        -9.6040  -26.5840    4.5170 C.3    89  ARG89       0.0307
     97  CG       -10.8230  -26.6170    3.6380 C.3    89  ARG89       0.0489
     98  CD       -12.0270  -26.0690    4.3930 C.3    89  ARG89       0.2205
     99  NE       -13.2600  -26.3110    3.6550 N.pl3  89  ARG89      -0.0865
    100  CZ       -13.8480  -25.4230    2.8690 C.cat  89  ARG89       0.5346
    101  NH1      -13.3230  -24.1980    2.7110 N.pl3  89  ARG89       0.1354
    102  NH2      -14.9650  -25.7590    2.2380 N.pl3  89  ARG89       0.1354
    103  N        -14.8900  -30.6200    2.6040 N.3    99  PHE99      -0.1241
    104  CA       -15.8710  -29.5810    2.3390 C.3    99  PHE99       0.1605
    105  C        -16.2080  -28.8710    3.6430 C.2    99  PHE99       0.2264
    106  O        -16.2770  -27.6410    3.6940 O.2    99  PHE99      -0.2867
    107  CB       -17.1220  -30.1650    1.6830 C.3    99  PHE99       0.0534
    108  CG       -16.9440  -30.4680    0.2170 C.ar   99  PHE99      -0.0203
    109  CD1      -17.1410  -29.4800   -0.7390 C.ar   99  PHE99      -0.0042
    110  CD2      -16.5730  -31.7320   -0.2000 C.ar   99  PHE99      -0.0042
    111  CE1      -16.9720  -29.7530   -2.0970 C.ar   99  PHE99      -0.0003
    112  CE2      -16.4000  -32.0120   -1.5550 C.ar   99  PHE99      -0.0003
    113  CZ       -16.6010  -31.0180   -2.5010 C.ar   99  PHE99      -0.0000
    114  N        -23.2180  -37.2130   -8.6900 N.3   113  VAL113     -0.1231
    115  CA       -23.8500  -36.2990   -9.6150 C.3   113  VAL113      0.1692
    116  C        -23.2750  -36.4890  -11.0090 C.2   113  VAL113      0.2591
    117  O        -22.4800  -37.3960  -11.2540 O.2   113  VAL113     -0.2718
    118  CB       -23.6580  -34.8460   -9.1470 C.3   113  VAL113      0.0266
    119  CG1      -24.6840  -33.9960   -9.8990 C.3   113  VAL113      0.0020
    120  CG2      -23.9440  -34.7950   -7.6460 C.3   113  VAL113      0.0020
    121  N        -23.6810  -35.6350  -11.9310 N.am  114  GLU114     -0.1979
    122  CA       -23.1440  -35.7170  -13.2740 C.3   114  GLU114      0.1602
    123  C        -22.1000  -34.6320  -13.4780 C.2   114  GLU114      0.2287
    124  O        -22.4060  -33.4400  -13.4440 O.2   114  GLU114     -0.2864
    125  CB       -24.2600  -35.6030  -14.3110 C.3   114  GLU114      0.0415
    126  CG       -25.2790  -36.7130  -14.2370 C.3   114  GLU114      0.1163
    127  CD       -24.7660  -38.0730  -14.5850 C.2   114  GLU114      0.3649
    128  OE1      -23.6710  -38.2060  -15.1920 O.co2 114  GLU114     -0.2457
    129  OE2      -25.5360  -39.0140  -14.3380 O.co2 114  GLU114     -0.2457
    130  N        -19.5000  -34.2630  -11.4880 N.3   116  MET116     -0.1245
    131  CA       -18.8410  -33.9730  -10.2210 C.3   116  MET116      0.1570
    132  C        -17.4690  -34.6520  -10.1450 C.2   116  MET116      0.2261
    133  O        -16.5110  -34.0450   -9.6690 O.2   116  MET116     -0.2867
    134  CB       -19.7200  -34.3930   -9.0320 C.3   116  MET116      0.0387
    135  CG       -19.1760  -33.9110   -7.7100 C.3   116  MET116      0.0595
    136  SD       -20.3610  -34.1700   -6.3930 S.3   116  MET116     -0.1393
    137  CE       -19.7490  -33.1080   -5.1010 C.3   116  MET116      0.0692
    138  N        -14.5420  -32.7460  -11.9010 N.3   119  ILE119     -0.1245
    139  CA       -14.1900  -31.5860  -11.0900 C.3   119  ILE119      0.1561
    140  C        -13.5280  -32.0440   -9.8050 C.2   119  ILE119      0.2260
    141  O        -12.5530  -31.4360   -9.3390 O.2   119  ILE119     -0.2867
    142  CB       -15.4150  -30.7360  -10.7520 C.3   119  ILE119      0.0252
    143  CG1      -16.2390  -30.4710  -12.0160 C.3   119  ILE119      0.0019
    144  CG2      -14.9910  -29.4560  -10.0540 C.3   119  ILE119      0.0019
    145  CD1      -15.6490  -29.4360  -12.9270 C.3   119  ILE119      0.0001
    146  N         -9.9160  -30.9490   -8.4540 N.3   123  LEU123     -0.1245
    147  CA        -9.7670  -30.3480   -7.1360 C.3   123  LEU123      0.1561
    148  C         -8.7160  -31.0970   -6.3270 C.2   123  LEU123      0.2260
    149  O         -7.8850  -30.4770   -5.6690 O.2   123  LEU123     -0.2867
    150  CB       -11.1100  -30.3290   -6.3900 C.3   123  LEU123      0.0270
    151  CG       -12.1050  -29.3140   -6.9650 C.3   123  LEU123      0.0019
    152  CD1      -13.5100  -29.6100   -6.4840 C.3   123  LEU123      0.0001
    153  CD2      -11.6870  -27.8770   -6.6260 C.3   123  LEU123      0.0001
    154  N        -17.1710  -26.0010  -13.4390 N.3   206  GLY206     -0.1225
    155  CA       -18.1090  -26.0970  -12.3320 C.3   206  GLY206      0.1811
    156  C        -19.3530  -25.2650  -12.5870 C.2   206  GLY206      0.2280
    157  O        -20.4750  -25.7040  -12.3530 O.2   206  GLY206     -0.2866
    158  N        -22.0480  -26.5830  -14.8940 N.3   209  HIS209     -0.1226
    159  CA       -22.8110  -27.6650  -14.2930 C.3   209  HIS209      0.1752
    160  C        -23.8780  -27.1210  -13.3520 C.2   209  HIS209      0.2595
    161  O        -24.9910  -27.6430  -13.3020 O.2   209  HIS209     -0.2718
    162  CB       -21.8920  -28.6300  -13.5560 C.3   209  HIS209      0.0759
    163  CG       -21.0810  -29.4960  -14.4660 C.ar  209  HIS209      0.0818
    164  ND1      -19.9490  -29.0450  -15.1090 N.ar  209  HIS209     -0.2268
    165  CD2      -21.2510  -30.7800  -14.8590 C.ar  209  HIS209      0.1154
    166  CE1      -19.4450  -30.0190  -15.8450 C.ar  209  HIS209      0.1986
    167  NE2      -20.2190  -31.0820  -15.7130 N.ar  209  HIS209     -0.2212
    168  N        -23.5440  -26.0630  -12.6180 N.am  210  LEU210     -0.1980
    169  CA       -24.5130  -25.4320  -11.7310 C.3   210  LEU210      0.1596
    170  C        -25.6490  -24.8410  -12.5600 C.2   210  LEU210      0.2287
    171  O        -26.8010  -24.7980  -12.1230 O.2   210  LEU210     -0.2864
    172  CB       -23.8390  -24.3620  -10.8650 C.3   210  LEU210      0.0297
    173  CG       -22.8440  -24.8920   -9.8210 C.3   210  LEU210      0.0022
    174  CD1      -22.0920  -23.7680   -9.1350 C.3   210  LEU210      0.0001
    175  CD2      -23.5620  -25.7590   -8.7900 C.3   210  LEU210      0.0001
    176  N        -27.9770  -27.7160  -13.4990 N.3   213  MET213     -0.1245
    177  CA       -28.7030  -28.0960  -12.3000 C.3   213  MET213      0.1570
    178  C        -29.8300  -27.1010  -12.0250 C.2   213  MET213      0.2261
    179  O        -30.8360  -27.4390  -11.4100 O.2   213  MET213     -0.2867
    180  CB       -27.7480  -28.1790  -11.1140 C.3   213  MET213      0.0387
    181  CG       -28.4220  -28.4610   -9.7950 C.3   213  MET213      0.0595
    182  SD       -27.2840  -29.2970   -8.6960 S.3   213  MET213     -0.1393
    183  CE       -26.5670  -30.4990   -9.8170 C.3   213  MET213      0.0692
    184  N        -32.0860  -23.9400   -5.2970 N.3   221  LEU221     -0.1245
    185  CA       -30.9280  -23.0810   -5.1130 C.3   221  LEU221      0.1561
    186  C        -31.4360  -21.7060   -4.7100 C.2   221  LEU221      0.2260
    187  O        -32.4490  -21.2400   -5.2300 O.2   221  LEU221     -0.2867
    188  CB       -30.0880  -23.0090   -6.3880 C.3   221  LEU221      0.0270
    189  CG       -29.8370  -24.3370   -7.1050 C.3   221  LEU221      0.0019
    190  CD1      -29.4800  -24.0900   -8.5580 C.3   221  LEU221      0.0001
    191  CD2      -28.7460  -25.1430   -6.4100 C.3   221  LEU221      0.0001
    192  N        -27.6710  -17.5320   -4.7380 N.3   225  LEU225     -0.1245
    193  CA       -26.8850  -18.3830   -5.6290 C.3   225  LEU225      0.1561
    194  C        -27.3220  -18.1980   -7.0870 C.2   225  LEU225      0.2260
    195  O        -26.4930  -18.2000   -8.0020 O.2   225  LEU225     -0.2867
    196  CB       -27.0060  -19.8490   -5.2110 C.3   225  LEU225      0.0270
    197  CG       -26.2640  -20.2670   -3.9360 C.3   225  LEU225      0.0019
    198  CD1      -26.9210  -21.4890   -3.3380 C.3   225  LEU225      0.0001
    199  CD2      -24.7960  -20.5600   -4.2110 C.3   225  LEU225      0.0001
@<TRIPOS>BOND
     1   166   167   ar
     2   166   164   ar
     3   167   165   ar
     4   128   127   ar
     5   164   163   ar
     6   158   159    1
     7   165   163   ar
     8   127   129   ar
     9   127   126    1
    10   163   162    1
    11   125   126    1
    12   125   122    1
    13   159   162    1
    14   159   160    1
    15   176   177    1
    16   123   124    2
    17   123   122    1
    18   154   155    1
    19   160   161    2
    20   160   168   am
    21   122   121    1
    22   145   143    1
    23   168   169    1
    24   156   157    2
    25   156   155    1
    26   170   171    2
    27   170   169    1
    28   177   178    1
    29   177   180    1
    30   178   179    2
    31   143   142    1
    32   121   116   am
    33   138   139    1
    34   169   172    1
    35   130   131    1
    36   117   116    2
    37   180   181    1
    38   139   142    1
    39   139   140    1
    40   116   115    1
    41   172   173    1
    42   142   144    1
    43   131   132    1
    44   131   134    1
    45   132   133    2
    46   119   118    1
    47   173   174    1
    48   173   175    1
    49   183   182    1
    50   140   141    2
    51   181   182    1
    52    67    65    1
    53   115   118    1
    54   115   114    1
    55   118   120    1
    56   134   135    1
    57    83    82    1
    58    54    52   ar
    59    54    55   ar
    60    82    81    1
    61   190   189    1
    62   146   147    1
    63    65    64    1
    64    65    66    1
    65    64    61    1
    66    57    55   ar
    67    57    59   ar
    68    52    51   ar
    69    55    53   ar
    70   195   194    2
    71   135   136    1
    72    59    58   ar
    73    46    47    1
    74    60    61    1
    75    60    48   am
    76    61    62    1
    77   147   150    1
    78   147   148    1
    79    62    63    2
    80   189   191    1
    81   189   188    1
    82   194   193    1
    83   151   153    1
    84   151   152    1
    85   151   150    1
    86    51    53   ar
    87    51    50    1
    88    53    56   ar
    89    81    80    1
    90     7     8    1
    91     7     6    1
    92   136   137    1
    93   188   185    1
    94     6     5    1
    95   148   149    2
    96    58    56   ar
    97    80    77    1
    98    48    47    1
    99    48    49    2
   100    47    50    1
   101   193   196    1
   102   193   192    1
   103   184   185    1
   104     5     2    1
   105   187   186    2
   106   196   197    1
   107   185   186    1
   108    77    76    1
   109    77    78    1
   110    76    70   am
   111   199   197    1
   112    78    79    2
   113    22    21    1
   114   197   198    1
   115     2     1    1
   116     2     3    1
   117    68    69    1
   118    15    14    1
   119    74    73    1
   120    72    69    1
   121    72    73    1
   122    70    69    1
   123    70    71    2
   124     3     4    2
   125    91    89    1
   126    73    75    1
   127    23    21    1
   128    21    18    1
   129   113   111   ar
   130   113   112   ar
   131    13    14    1
   132    13    10    1
   133   111   109   ar
   134    14    16    1
   135    18    17    1
   136    18    19    1
   137    36    33    1
   138    17    11   am
   139    89    88    1
   140    89    90    1
   141   112   110   ar
   142    88    85    1
   143    11    12    2
   144    11    10    1
   145    10     9    1
   146   109   108   ar
   147    19    20    2
   148    86    85    1
   149    86    87    2
   150    84    85    1
   151    33    34    1
   152    33    32    1
   153   110   108   ar
   154    34    35    2
   155   108   107    1
   156    32    26   am
   157    44    43   ar
   158   107   104    1
   159    26    27    2
   160    26    25    1
   161    41    38    1
   162    41    42    1
   163    43    45   ar
   164    43    42    1
   165    39    40    2
   166    39    38    1
   167    24    25    1
   168   102   100    1
   169   104   103    1
   170   104   105    1
   171    92    93    1
   172    31    29    1
   173    28    25    1
   174    28    29    1
   175   101   100    1
   176   100    99    2
   177    38    37    1
   178    29    30    1
   179    97    98    1
   180    97    96    1
   181    94    93    1
   182    94    95    2
   183   105   106    2
   184    99    98    1
   185    93    96    1
