@<TRIPOS>MOLECULE
tmp/5kcwB01.pdb
 206 194 0 0 0
SMALL
GASTEIGER

@<TRIPOS>ATOM
      1  N        -17.8740  -17.4940  -40.1640 N.3    39  MET39      -0.1245
      2  CA       -17.4280  -18.6460  -39.3990 C.3    39  MET39       0.1570
      3  C        -16.6680  -19.6080  -40.2920 C.2    39  MET39       0.2261
      4  O        -15.6810  -20.2050  -39.8670 O.2    39  MET39      -0.2867
      5  CB       -18.6160  -19.3530  -38.7440 C.3    39  MET39       0.0387
      6  CG       -19.3260  -18.4990  -37.7060 C.3    39  MET39       0.0595
      7  SD       -18.1880  -17.9150  -36.4360 S.3    39  MET39      -0.1393
      8  CE       -17.5010  -19.4720  -35.8880 C.3    39  MET39       0.0692
      9  N        -13.1590  -18.1890  -40.6080 N.3    42  LEU42      -0.1231
     10  CA       -12.4030  -18.4020  -39.3940 C.3    42  LEU42       0.1693
     11  C        -12.0590  -19.8740  -39.1790 C.2    42  LEU42       0.2592
     12  O        -10.9480  -20.2010  -38.7610 O.2    42  LEU42      -0.2718
     13  CB       -13.1860  -17.8610  -38.1900 C.3    42  LEU42       0.0284
     14  CG       -13.3440  -16.3390  -38.2000 C.3    42  LEU42       0.0019
     15  CD1      -14.0970  -15.8470  -36.9680 C.3    42  LEU42       0.0001
     16  CD2      -11.9880  -15.6690  -38.3000 C.3    42  LEU42       0.0001
     17  N        -13.0050  -20.7630  -39.4580 N.am   43  THR43      -0.1953
     18  CA       -12.7200  -22.1890  -39.3430 C.3    43  THR43       0.1897
     19  C        -11.6100  -22.6030  -40.3140 C.2    43  THR43       0.2313
     20  O        -10.6790  -23.3210  -39.9300 O.2    43  THR43      -0.2863
     21  CB       -13.9770  -23.0410  -39.5910 C.3    43  THR43       0.1794
     22  OG1      -14.8850  -22.8620  -38.5010 O.3    43  THR43      -0.2208
     23  CG2      -13.6310  -24.5280  -39.6810 C.3    43  THR43       0.0378
     24  N         -9.2160  -20.7730  -41.5710 N.3    45  LEU45      -0.1231
     25  CA        -7.9770  -20.2180  -41.0310 C.3    45  LEU45       0.1693
     26  C         -7.4350  -21.0260  -39.8410 C.2    45  LEU45       0.2591
     27  O         -6.2880  -21.5090  -39.8700 O.2    45  LEU45      -0.2718
     28  CB        -8.2010  -18.7530  -40.5980 C.3    45  LEU45       0.0284
     29  CG        -7.0070  -18.0050  -40.0020 C.3    45  LEU45       0.0019
     30  CD1       -5.8690  -17.8920  -41.0260 C.3    45  LEU45       0.0001
     31  CD2       -7.4240  -16.6160  -39.5290 C.3    45  LEU45       0.0001
     32  N         -8.2550  -21.1480  -38.7970 N.am   46  ALA46      -0.1980
     33  CA        -7.8570  -21.8720  -37.5950 C.3    46  ALA46       0.1597
     34  C         -7.3380  -23.2610  -37.9330 C.2    46  ALA46       0.2287
     35  O         -6.2910  -23.6630  -37.4290 O.2    46  ALA46      -0.2864
     36  CB        -9.0260  -21.9580  -36.5950 C.3    46  ALA46       0.0319
     37  N         -3.9640  -22.9920  -39.3170 N.3    49  GLU49      -0.1245
     38  CA        -3.0570  -22.5990  -38.2490 C.3    49  GLU49       0.1567
     39  C         -2.7180  -23.7730  -37.3270 C.2    49  GLU49       0.2260
     40  O         -1.5950  -23.8730  -36.8240 O.2    49  GLU49      -0.2867
     41  CB        -3.6540  -21.4740  -37.4310 C.3    49  GLU49       0.0388
     42  CG        -3.7760  -20.1370  -38.1290 C.3    49  GLU49       0.1160
     43  CD        -4.2960  -19.0800  -37.1460 C.2    49  GLU49       0.3649
     44  OE1       -5.5300  -18.9920  -36.9730 O.co2  49  GLU49      -0.2457
     45  OE2       -3.4690  -18.3720  -36.5190 O.co2  49  GLU49      -0.2457
     46  N         -4.9960  -25.7460  -27.4860 N.3    79  TRP79      -0.1227
     47  CA        -4.9910  -25.1910  -28.8550 C.3    79  TRP79       0.1737
     48  C         -5.7590  -23.8770  -28.9940 C.2    79  TRP79       0.2595
     49  O         -5.2860  -22.9810  -29.6640 O.2    79  TRP79      -0.2718
     50  CB        -5.5330  -26.1960  -29.8850 C.3    79  TRP79       0.0564
     51  CG        -6.9840  -26.4940  -29.7880 C.ar   79  TRP79       0.0003
     52  CD1       -7.5710  -27.4650  -29.0310 C.ar   79  TRP79       0.0946
     53  CD2       -8.0450  -25.8220  -30.4740 C.ar   79  TRP79       0.0152
     54  NE1       -8.9340  -27.4350  -29.1980 N.ar   79  TRP79      -0.2442
     55  CE2       -9.2500  -26.4390  -30.0820 C.ar   79  TRP79       0.0810
     56  CE3       -8.0950  -24.7560  -31.3780 C.ar   79  TRP79       0.0012
     57  CZ2      -10.4950  -26.0220  -30.5660 C.ar   79  TRP79       0.0191
     58  CZ3       -9.3370  -24.3460  -31.8600 C.ar   79  TRP79       0.0001
     59  CH2      -10.5110  -24.9790  -31.4610 C.ar   79  TRP79       0.0015
     60  N         -6.9280  -23.7520  -28.3770 N.am   80  LEU80      -0.1980
     61  CA        -7.7020  -22.5210  -28.5590 C.3    80  LEU80       0.1596
     62  C         -7.0020  -21.3540  -27.8590 C.2    80  LEU80       0.2287
     63  O         -6.8820  -20.2590  -28.4220 O.2    80  LEU80      -0.2864
     64  CB        -9.1370  -22.6750  -28.0420 C.3    80  LEU80       0.0297
     65  CG       -10.0680  -21.4710  -28.2700 C.3    80  LEU80       0.0022
     66  CD1      -10.0010  -20.9760  -29.7450 C.3    80  LEU80       0.0001
     67  CD2      -11.4850  -21.8470  -27.9240 C.3    80  LEU80       0.0001
     68  N         -4.1930  -20.2940  -30.1420 N.3    83  LEU83      -0.1231
     69  CA        -4.7360  -19.4750  -31.2340 C.3    83  LEU83       0.1693
     70  C         -5.0950  -18.0650  -30.7380 C.2    83  LEU83       0.2591
     71  O         -4.8370  -17.0650  -31.4100 O.2    83  LEU83      -0.2718
     72  CB        -5.9790  -20.1220  -31.8380 C.3    83  LEU83       0.0284
     73  CG        -5.8080  -21.3600  -32.7310 C.3    83  LEU83       0.0019
     74  CD1       -7.1590  -21.7550  -33.3040 C.3    83  LEU83       0.0001
     75  CD2       -4.8060  -21.1270  -33.8370 C.3    83  LEU83       0.0001
     76  N         -5.7010  -18.0070  -29.5580 N.am   84  MET84      -0.1979
     77  CA        -6.1920  -16.7470  -29.0140 C.3    84  MET84       0.1605
     78  C         -5.0540  -15.8070  -28.6440 C.2    84  MET84       0.2287
     79  O         -5.1080  -14.6140  -28.9600 O.2    84  MET84      -0.2864
     80  CB        -7.0780  -16.9990  -27.8040 C.3    84  MET84       0.0413
     81  CG        -8.5130  -17.4190  -28.1430 C.3    84  MET84       0.0598
     82  SD        -9.4340  -17.7730  -26.6180 S.3    84  MET84      -0.1393
     83  CE       -11.0990  -17.7140  -27.2680 C.3    84  MET84       0.0692
     84  N         -3.6630  -14.3840  -31.7730 N.3    87  LEU87      -0.1245
     85  CA        -4.5520  -13.3660  -32.2970 C.3    87  LEU87       0.1561
     86  C         -4.3820  -12.0550  -31.5430 C.2    87  LEU87       0.2260
     87  O         -4.2720  -10.9910  -32.1470 O.2    87  LEU87      -0.2867
     88  CB        -6.0070  -13.8230  -32.2220 C.3    87  LEU87       0.0270
     89  CG        -7.0340  -12.7400  -32.5610 C.3    87  LEU87       0.0019
     90  CD1       -6.8470  -12.2730  -34.0130 C.3    87  LEU87       0.0001
     91  CD2       -8.4620  -13.2190  -32.3120 C.3    87  LEU87       0.0001
     92  N         -0.9620  -10.2990  -32.4890 N.3    90  ARG90      -0.1245
     93  CA        -0.8750   -9.5990  -33.7660 C.3    90  ARG90       0.1563
     94  C         -1.9410   -8.4970  -33.8490 C.2    90  ARG90       0.2260
     95  O         -1.9230   -7.6800  -34.7660 O.2    90  ARG90      -0.2867
     96  CB        -0.9770  -10.5790  -34.9440 C.3    90  ARG90       0.0307
     97  CG        -2.2510  -11.3700  -35.0540 C.3    90  ARG90       0.0489
     98  CD        -2.1500  -12.4060  -36.1810 C.3    90  ARG90       0.2205
     99  NE        -3.3760  -13.1880  -36.2950 N.pl3  90  ARG90      -0.0865
    100  CZ        -3.5650  -14.3740  -35.7210 C.cat  90  ARG90       0.5346
    101  NH1       -2.5920  -14.9380  -35.0160 N.pl3  90  ARG90       0.1354
    102  NH2       -4.7180  -15.0120  -35.8930 N.pl3  90  ARG90       0.1354
    103  N         -7.3140  -11.1710  -37.3640 N.3   100  PHE100     -0.1241
    104  CA        -7.3370  -12.6060  -37.5700 C.3   100  PHE100      0.1605
    105  C         -6.3310  -12.9660  -38.6500 C.2   100  PHE100      0.2264
    106  O         -5.6280  -13.9570  -38.5440 O.2   100  PHE100     -0.2867
    107  CB        -8.7370  -13.0710  -37.9430 C.3   100  PHE100      0.0534
    108  CG        -9.7030  -13.0130  -36.7980 C.ar  100  PHE100     -0.0203
    109  CD1       -9.8640  -14.1040  -35.9540 C.ar  100  PHE100     -0.0042
    110  CD2      -10.4310  -11.8650  -36.5520 C.ar  100  PHE100     -0.0042
    111  CE1      -10.7420  -14.0510  -34.8980 C.ar  100  PHE100     -0.0003
    112  CE2      -11.3170  -11.8060  -35.4870 C.ar  100  PHE100     -0.0003
    113  CZ       -11.4620  -12.9050  -34.6640 C.ar  100  PHE100     -0.0000
    114  N        -22.9390  -15.5240  -30.4800 N.3   113  GLY113     -0.1210
    115  CA       -22.3940  -15.2180  -29.1690 C.3   113  GLY113      0.1956
    116  C        -20.9080  -14.9250  -29.2350 C.2   113  GLY113      0.2611
    117  O        -20.1870  -15.0370  -28.2420 O.2   113  GLY113     -0.2717
    118  N        -20.4460  -14.5420  -30.4180 N.am  114  MET114     -0.1979
    119  CA       -19.0320  -14.2840  -30.6270 C.3   114  MET114      0.1605
    120  C        -18.6030  -12.9340  -30.0770 C.2   114  MET114      0.2287
    121  O        -17.4320  -12.7470  -29.7330 O.2   114  MET114     -0.2864
    122  CB       -18.7000  -14.3620  -32.1150 C.3   114  MET114      0.0413
    123  CG       -18.5530  -15.7710  -32.6180 C.3   114  MET114      0.0598
    124  SD       -16.8450  -16.1240  -33.0360 S.3   114  MET114     -0.1393
    125  CE       -16.6130  -15.0160  -34.4100 C.3   114  MET114      0.0692
    126  N        -16.8910  -13.0520  -26.6740 N.3   117  ILE117     -0.1231
    127  CA       -15.5030  -13.4750  -26.7410 C.3   117  ILE117      0.1692
    128  C        -14.6500  -12.3890  -27.4110 C.2   117  ILE117      0.2592
    129  O        -13.5110  -12.1470  -27.0070 O.2   117  ILE117     -0.2718
    130  CB       -15.3390  -14.8000  -27.5240 C.3   117  ILE117      0.0266
    131  CG1      -16.3220  -15.8610  -27.0260 C.3   117  ILE117      0.0019
    132  CG2      -13.9220  -15.3170  -27.3720 C.3   117  ILE117      0.0020
    133  CD1      -15.9400  -16.4660  -25.7010 C.3   117  ILE117      0.0001
    134  N        -15.1940  -11.7370  -28.4370 N.am  118  PHE118     -0.1976
    135  CA       -14.4320  -10.6890  -29.1320 C.3   118  PHE118      0.1639
    136  C        -14.0790   -9.5650  -28.1730 C.2   118  PHE118      0.2290
    137  O        -12.9470   -9.0880  -28.1610 O.2   118  PHE118     -0.2864
    138  CB       -15.2050  -10.1160  -30.3180 C.3   118  PHE118      0.0560
    139  CG       -14.9900  -10.8590  -31.5910 C.ar  118  PHE118     -0.0200
    140  CD1      -14.6860  -12.2080  -31.5760 C.ar  118  PHE118     -0.0042
    141  CD2      -15.0610  -10.2030  -32.8040 C.ar  118  PHE118     -0.0042
    142  CE1      -14.4790  -12.8930  -32.7480 C.ar  118  PHE118     -0.0003
    143  CE2      -14.8540  -10.8830  -33.9810 C.ar  118  PHE118     -0.0003
    144  CZ       -14.5680  -12.2300  -33.9520 C.ar  118  PHE118     -0.0000
    145  N        -11.2160  -10.6560  -26.0340 N.3   121  LEU121     -0.1245
    146  CA        -9.9760  -10.6740  -26.7910 C.3   121  LEU121      0.1561
    147  C         -9.4350   -9.2590  -26.9940 C.2   121  LEU121      0.2260
    148  O         -8.2250   -9.0330  -26.8950 O.2   121  LEU121     -0.2867
    149  CB       -10.1880  -11.3620  -28.1510 C.3   121  LEU121      0.0270
    150  CG       -10.4210  -12.8730  -28.0450 C.3   121  LEU121      0.0019
    151  CD1      -11.1150  -13.4300  -29.2900 C.3   121  LEU121      0.0001
    152  CD2       -9.1070  -13.5980  -27.7850 C.3   121  LEU121      0.0001
    153  N        -15.3950  -19.7350  -24.9820 N.3   205  GLY205     -0.1210
    154  CA       -15.4620  -20.0540  -26.3990 C.3   205  GLY205      0.1956
    155  C        -16.0580  -21.4290  -26.6610 C.2   205  GLY205      0.2611
    156  O        -17.0420  -21.5610  -27.4020 O.2   205  GLY205     -0.2717
    157  N        -15.4710  -22.4560  -26.0550 N.am  206  MET206     -0.1979
    158  CA       -16.0210  -23.8140  -26.1510 C.3   206  MET206      0.1605
    159  C        -17.4900  -23.8460  -25.7550 C.2   206  MET206      0.2287
    160  O        -18.3140  -24.4500  -26.4480 O.2   206  MET206     -0.2864
    161  CB       -15.2410  -24.7900  -25.2650 C.3   206  MET206      0.0413
    162  CG       -13.7320  -24.7620  -25.4770 C.3   206  MET206      0.0598
    163  SD       -13.1540  -25.7250  -26.8710 S.3   206  MET206     -0.1393
    164  CE       -11.3880  -25.4570  -26.7360 C.3   206  MET206      0.0692
    165  N        -19.7940  -21.4960  -25.7520 N.3   208  HIS208     -0.1226
    166  CA       -20.6650  -20.8540  -26.7370 C.3   208  HIS208      0.1752
    167  C        -20.8260  -21.6780  -28.0060 C.2   208  HIS208      0.2595
    168  O        -21.8360  -21.5610  -28.6960 O.2   208  HIS208     -0.2718
    169  CB       -20.1440  -19.4650  -27.0970 C.3   208  HIS208      0.0759
    170  CG       -20.3380  -18.4540  -26.0130 C.ar  208  HIS208      0.0818
    171  ND1      -20.0090  -17.1250  -26.1660 N.ar  208  HIS208     -0.2268
    172  CD2      -20.8260  -18.5780  -24.7560 C.ar  208  HIS208      0.1154
    173  CE1      -20.2880  -16.4730  -25.0520 C.ar  208  HIS208      0.1986
    174  NE2      -20.7830  -17.3330  -24.1800 N.ar  208  HIS208     -0.2212
    175  N        -19.8380  -22.5090  -28.3150 N.am  209  LEU209     -0.1980
    176  CA       -19.9220  -23.3490  -29.5070 C.3   209  LEU209      0.1596
    177  C        -21.0200  -24.3960  -29.3460 C.2   209  LEU209      0.2287
    178  O        -21.6130  -24.8520  -30.3240 O.2   209  LEU209     -0.2864
    179  CB       -18.5800  -24.0220  -29.7930 C.3   209  LEU209      0.0297
    180  CG       -18.4880  -24.8250  -31.0960 C.3   209  LEU209      0.0022
    181  CD1      -18.9510  -24.0160  -32.3020 C.3   209  LEU209      0.0001
    182  CD2      -17.0770  -25.2850  -31.2950 C.3   209  LEU209      0.0001
    183  N        -17.1990  -27.4910  -39.0580 N.3   212  LEU212     -0.1245
    184  CA       -15.9070  -27.6780  -38.4620 C.3   212  LEU212      0.1561
    185  C        -15.1020  -28.7110  -39.1990 C.2   212  LEU212      0.2260
    186  O        -15.6120  -29.7440  -39.5300 O.2   212  LEU212     -0.2867
    187  CB       -16.0850  -28.1420  -37.0390 C.3   212  LEU212      0.0270
    188  CG       -16.7810  -27.1950  -36.0820 C.3   212  LEU212      0.0019
    189  CD1      -17.1600  -27.9760  -34.8510 C.3   212  LEU212      0.0001
    190  CD2      -15.8660  -26.0590  -35.6990 C.3   212  LEU212      0.0001
    191  N        -10.3770  -30.0150  -36.3440 N.3   216  LEU216     -0.1245
    192  CA       -10.9420  -29.1750  -35.2770 C.3   216  LEU216      0.1561
    193  C        -11.9000  -29.9780  -34.4180 C.2   216  LEU216      0.2260
    194  O        -11.8640  -29.8930  -33.1870 O.2   216  LEU216     -0.2867
    195  CB       -11.6560  -27.9460  -35.8510 C.3   216  LEU216      0.0270
    196  CG       -10.7490  -26.7290  -36.0590 C.3   216  LEU216      0.0019
    197  CD1      -11.3870  -25.6800  -36.9760 C.3   216  LEU216      0.0001
    198  CD2      -10.3530  -26.1130  -34.7130 C.3   216  LEU216      0.0001
    199  N        -11.8010  -30.3480  -30.5990 N.3   220  LEU220     -0.1245
    200  CA       -12.9720  -29.7390  -29.9850 C.3   220  LEU220      0.1561
    201  C        -13.6830  -30.8080  -29.1620 C.2   220  LEU220      0.2260
    202  O        -14.4230  -30.5210  -28.2190 O.2   220  LEU220     -0.2867
    203  CB       -13.8710  -29.1620  -31.0760 C.3   220  LEU220      0.0270
    204  CG       -14.8970  -28.0680  -30.8370 C.3   220  LEU220      0.0019
    205  CD1      -16.2700  -28.6670  -30.5990 C.3   220  LEU220      0.0001
    206  CD2      -14.4560  -27.1730  -29.7020 C.3   220  LEU220      0.0001
@<TRIPOS>BOND
     1    24    25    1
     2    25    28    1
     3    25    26    1
     4    30    29    1
     5     9    10    1
     6    28    29    1
     7    19    20    2
     8    19    18    1
     9     3     4    2
    10     3     2    1
    11     1     2    1
    12    29    31    1
    13    27    26    2
    14    26    32   am
    15    23    21    1
    16    21    18    1
    17    21    22    1
    18   186   185    2
    19    17    18    1
    20    17    11   am
    21     2     5    1
    22    10    11    1
    23    10    13    1
    24    37    38    1
    25   185   184    1
    26    11    12    2
    27   183   184    1
    28    32    33    1
    29     5     6    1
    30   105   106    2
    31   105   104    1
    32   184   187    1
    33    16    14    1
    34    38    41    1
    35    38    39    1
    36    14    13    1
    37    14    15    1
    38    42    41    1
    39    42    43    1
    40   107   104    1
    41   107   108    1
    42    34    33    1
    43    34    35    2
    44     6     7    1
    45    33    36    1
    46   104   103    1
    47    39    40    2
    48    43    44   ar
    49    43    45   ar
    50   187   188    1
    51   197   196    1
    52   108   110   ar
    53   108   109   ar
    54   110   112   ar
    55     7     8    1
    56   191   192    1
    57    99    98    1
    58    99   100    2
    59    98    97    1
    60   188   190    1
    61   188   189    1
    62   196   195    1
    63   196   198    1
    64   109   111   ar
    65   102   100    1
    66   195   192    1
    67   100   101    1
    68   112   113   ar
    69   192   193    1
    70    97    96    1
    71    96    93    1
    72   111   113   ar
    73    95    94    2
    74   193   194    2
    75   125   124    1
    76    90    89    1
    77   143   144   ar
    78   143   141   ar
    79   144   142   ar
    80    94    93    1
    81    75    73    1
    82    93    92    1
    83    74    73    1
    84   124   123    1
    85   141   139   ar
    86   142   140   ar
    87    73    72    1
    88   123   122    1
    89    89    91    1
    90    89    88    1
    91   181   180    1
    92    85    88    1
    93    85    84    1
    94    85    86    1
    95    87    86    2
    96   122   119    1
    97    58    59   ar
    98    58    56   ar
    99    72    69    1
   100   139   140   ar
   101   139   138    1
   102    59    57   ar
   103    71    70    2
   104    56    53   ar
   105   182   180    1
   106    69    70    1
   107    69    68    1
   108   180   179    1
   109   203   204    1
   110   203   200    1
   111   204   205    1
   112   204   206    1
   113    70    76   am
   114   119   118    1
   115   119   120    1
   116   199   200    1
   117    57    55   ar
   118   114   115    1
   119    53    55   ar
   120    53    51   ar
   121   118   116   am
   122   178   177    2
   123   138   135    1
   124    55    54   ar
   125   120   121    2
   126   200   201    1
   127    50    51    1
   128    50    47    1
   129   179   176    1
   130    51    52   ar
   131    66    65    1
   132    49    48    2
   133    76    77    1
   134   176   177    1
   135   176   175    1
   136   151   150    1
   137   116   115    1
   138   116   117    2
   139    54    52   ar
   140   201   202    2
   141   135   134    1
   142   135   136    1
   143    77    78    1
   144    77    80    1
   145    48    47    1
   146    48    60   am
   147    79    78    2
   148    47    46    1
   149   168   167    2
   150    61    60    1
   151    61    64    1
   152    61    62    1
   153   134   128   am
   154    63    62    2
   155   175   167   am
   156    65    64    1
   157    65    67    1
   158   136   137    2
   159   149   150    1
   160   149   146    1
   161    81    80    1
   162    81    82    1
   163   150   152    1
   164   167   166    1
   165   130   132    1
   166   130   131    1
   167   130   127    1
   168   128   129    2
   169   128   127    1
   170   156   155    2
   171    83    82    1
   172   169   166    1
   173   169   170    1
   174   131   133    1
   175   147   148    2
   176   147   146    1
   177   163   164    1
   178   163   162    1
   179   146   145    1
   180   127   126    1
   181   166   165    1
   182   155   154    1
   183   155   157   am
   184   160   159    2
   185   154   153    1
   186   171   170   ar
   187   171   173   ar
   188   158   157    1
   189   158   159    1
   190   158   161    1
   191   170   172   ar
   192   162   161    1
   193   173   174   ar
   194   172   174   ar
