@<TRIPOS>MOLECULE
tmp/5kcxA00.pdb
 152 142 0 0 0
SMALL
GASTEIGER

@<TRIPOS>ATOM
      1  N         17.0860   38.8540   -4.7770 N.3    11  LEU11      -0.1231
      2  CA        18.4810   38.6970   -5.1700 C.3    11  LEU11       0.1693
      3  C         18.6640   37.4020   -5.9470 C.2    11  LEU11       0.2592
      4  O         19.4640   37.3350   -6.8720 O.2    11  LEU11      -0.2718
      5  CB        19.3830   38.7030   -3.9310 C.3    11  LEU11       0.0284
      6  CG        19.4540   40.0290   -3.1660 C.3    11  LEU11       0.0019
      7  CD1       20.1710   39.8360   -1.8440 C.3    11  LEU11       0.0001
      8  CD2       20.1800   41.0620   -4.0080 C.3    11  LEU11       0.0001
      9  N         17.9110   36.3750   -5.5730 N.am   12  GLY12      -0.1957
     10  CA        17.9580   35.1180   -6.2970 C.3    12  GLY12       0.1869
     11  C         17.0380   34.0770   -5.6850 C.2    12  GLY12       0.2309
     12  O         16.5470   34.2510   -4.5650 O.2    12  GLY12      -0.2863
     13  N         18.0460   26.8010   -2.6180 N.3    16  PHE16      -0.1241
     14  CA        18.2430   27.4340   -1.3210 C.3    16  PHE16       0.1605
     15  C         17.0160   28.2450   -0.8960 C.2    16  PHE16       0.2264
     16  O         16.9720   28.7760    0.2110 O.2    16  PHE16      -0.2867
     17  CB        19.4670   28.3480   -1.3810 C.3    16  PHE16       0.0534
     18  CG        19.4560   29.2910   -2.5520 C.ar   16  PHE16      -0.0203
     19  CD1       19.9690   28.8960   -3.7790 C.ar   16  PHE16      -0.0042
     20  CD2       18.9140   30.5630   -2.4300 C.ar   16  PHE16      -0.0042
     21  CE1       19.9390   29.7550   -4.8700 C.ar   16  PHE16      -0.0003
     22  CE2       18.8800   31.4270   -3.5130 C.ar   16  PHE16      -0.0003
     23  CZ        19.3920   31.0250   -4.7340 C.ar   16  PHE16      -0.0000
     24  N         15.9600   34.5360   -1.8900 N.3    19  VAL19      -0.1245
     25  CA        16.7170   35.4880   -1.0870 C.3    19  VAL19       0.1561
     26  C         16.4760   36.9200   -1.5460 C.2    19  VAL19       0.2260
     27  O         16.6610   37.2380   -2.7200 O.2    19  VAL19      -0.2867
     28  CB        18.2300   35.2030   -1.1660 C.3    19  VAL19       0.0252
     29  CG1       18.9860   36.1510   -0.2470 C.3    19  VAL19       0.0019
     30  CG2       18.5040   33.7670   -0.7830 C.3    19  VAL19       0.0019
     31  N         20.1570   40.3770    4.1390 N.3    32  ALA32      -0.1245
     32  CA        19.5390   39.5330    3.1320 C.3    32  ALA32       0.1562
     33  C         18.4700   38.7200    3.8340 C.2    32  ALA32       0.2260
     34  O         18.6820   38.2060    4.9300 O.2    32  ALA32      -0.2867
     35  CB        20.5810   38.6060    2.4790 C.3    32  ALA32       0.0290
     36  N         15.9960   35.5790    3.6060 N.3    34  LYS34      -0.1245
     37  CA        15.8930   34.3110    2.9020 C.3    34  LYS34       0.1561
     38  C         14.6690   33.5340    3.3720 C.2    34  LYS34       0.2260
     39  O         14.4990   33.2950    4.5720 O.2    34  LYS34      -0.2867
     40  CB        17.1550   33.4880    3.1560 C.3    34  LYS34       0.0271
     41  CG        17.1100   32.0670    2.6330 C.3    34  LYS34       0.0035
     42  CD        18.4300   31.3530    2.9490 C.3    34  LYS34       0.0206
     43  CE        18.5400   30.0220    2.2240 C.3    34  LYS34       0.1093
     44  NZ        19.9020   29.4150    2.3280 N.3    34  LYS34      -0.1314
     45  N         20.0250   24.2580    8.7010 N.3    56  GLU56      -0.1245
     46  CA        20.7160   25.4810    8.3380 C.3    56  GLU56       0.1567
     47  C         20.7940   26.4560    9.5130 C.2    56  GLU56       0.2260
     48  O         21.8380   27.0550    9.7640 O.2    56  GLU56      -0.2867
     49  CB        19.9900   26.1230    7.1580 C.3    56  GLU56       0.0388
     50  CG        20.6660   27.3320    6.5620 C.3    56  GLU56       0.1160
     51  CD        19.9150   27.8470    5.3440 C.2    56  GLU56       0.3649
     52  OE1       18.8660   27.2550    4.9920 O.co2  56  GLU56      -0.2457
     53  OE2       20.3720   28.8400    4.7390 O.co2  56  GLU56      -0.2457
     54  N         28.9500   34.1240    6.5410 N.3    71  ILE71      -0.1245
     55  CA        27.8290   35.0420    6.7110 C.3    71  ILE71       0.1561
     56  C         27.1290   34.7470    8.0330 C.2    71  ILE71       0.2260
     57  O         26.9180   33.5850    8.3910 O.2    71  ILE71      -0.2867
     58  CB        26.8050   34.9150    5.5640 C.3    71  ILE71       0.0252
     59  CG1       27.3620   35.5550    4.2930 C.3    71  ILE71       0.0019
     60  CG2       25.5250   35.6360    5.9280 C.3    71  ILE71       0.0019
     61  CD1       27.4000   37.0730    4.3460 C.3    71  ILE71       0.0001
     62  N         19.9960   37.4630    7.3620 N.3    87  LEU87      -0.1231
     63  CA        21.4400   37.2780    7.2670 C.3    87  LEU87       0.1693
     64  C         22.1280   38.6150    7.0310 C.2    87  LEU87       0.2592
     65  O         21.5670   39.4990    6.3860 O.2    87  LEU87      -0.2718
     66  CB        21.7640   36.3310    6.1110 C.3    87  LEU87       0.0284
     67  CG        21.1150   34.9530    6.2100 C.3    87  LEU87       0.0019
     68  CD1       21.0900   34.2910    4.8450 C.3    87  LEU87       0.0001
     69  CD2       21.8910   34.1100    7.2140 C.3    87  LEU87       0.0001
     70  N         23.3460   38.7600    7.5440 N.am   88  GLU88      -0.1966
     71  CA        24.1160   39.9720    7.3030 C.3    88  GLU88       0.1733
     72  C         24.3650   40.0760    5.8040 C.2    88  GLU88       0.2616
     73  O         24.5350   39.0640    5.1310 O.2    88  GLU88      -0.2715
     74  CB        25.4570   39.9160    8.0400 C.3    88  GLU88       0.0429
     75  CG        26.5180   39.0920    7.3180 C.3    88  GLU88       0.1163
     76  CD        27.8900   39.1700    7.9780 C.2    88  GLU88       0.3649
     77  OE1       28.4210   38.1080    8.3690 O.co2  88  GLU88      -0.2457
     78  OE2       28.4380   40.2890    8.1030 O.co2  88  GLU88      -0.2457
     79  N         24.3670   41.2920    5.2770 N.am   89  ARG89      -0.1977
     80  CA        24.6450   41.4930    3.8610 C.3    89  ARG89       0.1597
     81  C         25.6860   42.5890    3.6790 C.2    89  ARG89       0.2287
     82  O         25.4180   43.7620    3.9360 O.2    89  ARG89      -0.2864
     83  CB        23.3620   41.8690    3.1010 C.3    89  ARG89       0.0334
     84  CG        23.5990   42.3390    1.6640 C.3    89  ARG89       0.0492
     85  CD        22.2890   42.5520    0.8830 C.3    89  ARG89       0.2205
     86  NE        21.4390   43.6120    1.4330 N.pl3  89  ARG89      -0.0865
     87  CZ        21.5280   44.9000    1.0990 C.cat  89  ARG89       0.5346
     88  NH1       22.4330   45.3080    0.2140 N.pl3  89  ARG89       0.1354
     89  NH2       20.7040   45.7860    1.6460 N.pl3  89  ARG89       0.1354
     90  N         29.1310   46.8940   -1.4350 N.3    92  PRO92      -0.2102
     91  CA        28.6400   46.0470   -2.5240 C.3    92  PRO92       0.1504
     92  C         29.2020   44.6320   -2.4060 C.2    92  PRO92       0.2576
     93  O         30.2450   44.4210   -1.7860 O.2    92  PRO92      -0.2718
     94  CB        29.1490   46.7510   -3.7730 C.3    92  PRO92       0.0282
     95  CG        30.4360   47.3780   -3.3180 C.3    92  PRO92       0.0208
     96  CD        30.2330   47.7660   -1.8790 C.3    92  PRO92       0.0893
     97  N         28.5120   43.6710   -3.0070 N.am   93  VAL93      -0.1966
     98  CA        28.9350   42.2800   -2.9570 C.3    93  VAL93       0.1727
     99  C         28.6310   41.5960   -4.2900 C.2    93  VAL93       0.2616
    100  O         27.7010   41.9840   -4.9940 O.2    93  VAL93      -0.2715
    101  CB        28.2070   41.5310   -1.8160 C.3    93  VAL93       0.0290
    102  CG1       26.7130   41.5140   -2.0760 C.3    93  VAL93       0.0023
    103  CG2       28.7340   40.1260   -1.6980 C.3    93  VAL93       0.0023
    104  N         29.4250   40.5880   -4.6340 N.am   94  GLN94      -0.1963
    105  CA        29.1900   39.7800   -5.8240 C.3    94  GLN94       0.1733
    106  C         29.5780   38.3430   -5.5010 C.2    94  GLN94       0.2616
    107  O         30.6200   38.1050   -4.8850 O.2    94  GLN94      -0.2715
    108  CB        30.0480   40.2930   -6.9840 C.3    94  GLN94       0.0408
    109  CG        29.8760   39.5150   -8.2870 C.3    94  GLN94       0.0908
    110  CD        30.6950   40.1000   -9.4330 C.2    94  GLN94       0.2608
    111  OE1       31.8040   40.5990   -9.2280 O.2    94  GLN94      -0.2717
    112  NE2       30.1480   40.0410  -10.6460 N.am   94  GLN94      -0.0878
    113  N         28.7640   37.3740   -5.9060 N.am   95  ASP95      -0.1971
    114  CA        29.1240   36.0040   -5.6020 C.3    95  ASP95       0.1709
    115  C         30.2350   35.5460   -6.5360 C.2    95  ASP95       0.2293
    116  O         30.3810   36.0600   -7.6500 O.2    95  ASP95      -0.2864
    117  CB        27.8940   35.0810   -5.6580 C.3    95  ASP95       0.1436
    118  CG        27.5140   34.6630   -7.0620 C.2    95  ASP95       0.3671
    119  OD1       28.2100   35.0170   -8.0380 O.co2  95  ASP95      -0.2456
    120  OD2       26.4920   33.9580   -7.1820 O.co2  95  ASP95      -0.2456
    121  N         29.4870   34.5710  -10.2850 N.3    98  ASP98      -0.1239
    122  CA        29.2970   35.6870  -11.2070 C.3    98  ASP98       0.1674
    123  C         30.6210   36.3990  -11.4570 C.2    98  ASP98       0.2266
    124  O         30.8960   36.8550  -12.5650 O.2    98  ASP98      -0.2867
    125  CB        28.2690   36.6720  -10.6420 C.3    98  ASP98       0.1410
    126  CG        26.9040   36.0380  -10.4530 C.2    98  ASP98       0.3668
    127  OD1       26.5290   35.1710  -11.2760 O.co2  98  ASP98      -0.2456
    128  OD2       26.2020   36.3970   -9.4820 O.co2  98  ASP98      -0.2456
    129  N         30.4630   34.6390   -1.2600 N.3   141  LEU141     -0.1245
    130  CA        30.2550   36.0470   -1.5880 C.3   141  LEU141      0.1561
    131  C         31.5500   36.8260   -1.4510 C.2   141  LEU141      0.2260
    132  O         32.3440   36.5700   -0.5450 O.2   141  LEU141     -0.2867
    133  CB        29.2110   36.6750   -0.6630 C.3   141  LEU141      0.0270
    134  CG        27.8040   36.0960   -0.7220 C.3   141  LEU141      0.0019
    135  CD1       26.8880   36.9520    0.1350 C.3   141  LEU141      0.0001
    136  CD2       27.3230   36.0500   -2.1700 C.3   141  LEU141      0.0001
    137  N         28.2820   31.0210    2.2500 N.3   152  ILE152     -0.1231
    138  CA        26.8290   31.0730    2.4290 C.3   152  ILE152      0.1692
    139  C         26.1410   29.7520    2.1130 C.2   152  ILE152      0.2592
    140  O         26.7370   28.8470    1.5230 O.2   152  ILE152     -0.2718
    141  CB        26.1550   32.1480    1.5350 C.3   152  ILE152      0.0266
    142  CG1       26.4730   31.8840    0.0630 C.3   152  ILE152      0.0019
    143  CG2       26.5930   33.5310    1.9450 C.3   152  ILE152      0.0020
    144  CD1       25.6410   32.7320   -0.8880 C.3   152  ILE152      0.0001
    145  N         24.8740   29.6700    2.5050 N.am  153  ASP153     -0.1974
    146  CA        24.0120   28.5300    2.2150 C.3   153  ASP153      0.1709
    147  C         24.5090   27.2410    2.8530 C.2   153  ASP153      0.2293
    148  O         25.1300   26.4030    2.2000 O.2   153  ASP153     -0.2864
    149  CB        23.8660   28.3320    0.7080 C.3   153  ASP153      0.1436
    150  CG        22.6420   27.5130    0.3500 C.2   153  ASP153      0.3671
    151  OD1       21.9140   27.0800    1.2740 O.co2 153  ASP153     -0.2456
    152  OD2       22.4050   27.3020   -0.8550 O.co2 153  ASP153     -0.2456
@<TRIPOS>BOND
     1   124   123    2
     2   123   122    1
     3   127   126   ar
     4   122   125    1
     5   122   121    1
     6   112   110   am
     7   125   126    1
     8   126   128   ar
     9   110   111    2
    10   110   109    1
    11   109   108    1
    12   119   118   ar
    13   116   115    2
    14   120   118   ar
    15   118   117    1
    16   108   105    1
    17     4     3    2
    18   115   114    1
    19    10    11    1
    20    10     9    1
    21     3     9   am
    22     3     2    1
    23   113   114    1
    24   113   106   am
    25   105   106    1
    26   105   104    1
    27    11    12    2
    28   117   114    1
    29   106   107    2
    30     2     1    1
    31     2     5    1
    32   100    99    2
    33    21    23   ar
    34    21    19   ar
    35    23    22   ar
    36   104    99   am
    37    99    98    1
    38     8     6    1
    39     5     6    1
    40    19    18   ar
    41    94    95    1
    42    94    91    1
    43    22    20   ar
    44    95    96    1
    45     6     7    1
    46    97    98    1
    47    97    92   am
    48    98   101    1
    49    27    26    2
    50    13    14    1
    51    18    20   ar
    52    18    17    1
    53    91    92    1
    54    91    90    1
    55    92    93    2
    56   136   134    1
    57   102   101    1
    58    24    25    1
    59    96    90    1
    60   101   103    1
    61   130   131    1
    62   130   129    1
    63   130   133    1
    64    26    25    1
    65   131   132    2
    66    17    14    1
    67    14    15    1
    68    28    25    1
    69    28    30    1
    70    28    29    1
    71    15    16    2
    72   144   142    1
    73   152   150   ar
    74   134   133    1
    75   134   135    1
    76   142   141    1
    77    88    87    1
    78   150   149    1
    79   150   151   ar
    80   149   146    1
    81    85    86    1
    82    85    84    1
    83    87    86    2
    84    87    89    1
    85   140   139    2
    86   141   143    1
    87   141   138    1
    88    84    83    1
    89   139   138    1
    90   139   145   am
    91   148   147    2
    92   146   145    1
    93   146   147    1
    94    43    44    1
    95    43    42    1
    96   137   138    1
    97    35    32    1
    98    41    42    1
    99    41    40    1
   100    37    40    1
   101    37    38    1
   102    37    36    1
   103    83    80    1
   104    32    33    1
   105    32    31    1
   106    38    39    2
   107    81    80    1
   108    81    82    2
   109    33    34    2
   110    80    79    1
   111    59    61    1
   112    59    58    1
   113    53    51   ar
   114    68    67    1
   115    52    51   ar
   116    73    72    2
   117    79    72   am
   118    51    50    1
   119    58    60    1
   120    58    55    1
   121    72    71    1
   122    66    67    1
   123    66    63    1
   124    67    69    1
   125    65    64    2
   126    54    55    1
   127    50    49    1
   128    55    56    1
   129    64    63    1
   130    64    70   am
   131    49    46    1
   132    63    62    1
   133    71    70    1
   134    71    74    1
   135    75    76    1
   136    75    74    1
   137    76    78   ar
   138    76    77   ar
   139    56    57    2
   140    46    45    1
   141    46    47    1
   142    47    48    2
