@<TRIPOS>MOLECULE
tmp/5kcyB01.pdb
 206 196 0 0 0
SMALL
GASTEIGER

@<TRIPOS>ATOM
      1  N         76.0830    1.4860   30.9980 N.3    67  GLU67      -0.1245
      2  CA        75.3680    1.8190   29.7780 C.3    67  GLU67       0.1567
      3  C         76.3700    2.3340   28.7560 C.2    67  GLU67       0.2260
      4  O         77.2560    3.1270   29.0760 O.2    67  GLU67      -0.2867
      5  CB        74.2630    2.8360   30.0940 C.3    67  GLU67       0.0388
      6  CG        73.0410    2.1540   30.6940 C.3    67  GLU67       0.1160
      7  CD        71.9740    3.1130   31.1460 C.2    67  GLU67       0.3649
      8  OE1       71.5980    3.9740   30.3250 O.co2  67  GLU67      -0.2457
      9  OE2       71.5010    3.0070   32.3130 O.co2  67  GLU67      -0.2457
     10  N         75.4120    8.5010   20.1590 N.3    71  LYS71      -0.1245
     11  CA        74.7800    9.7420   19.6870 C.3    71  LYS71       0.1561
     12  C         74.9670    9.7840   18.1710 C.2    71  LYS71       0.2260
     13  O         76.1000    9.8900   17.6670 O.2    71  LYS71      -0.2867
     14  CB        75.4020   10.9700   20.3420 C.3    71  LYS71       0.0271
     15  CG        74.7400   12.2970   19.9700 C.3    71  LYS71       0.0035
     16  CD        75.4220   13.4930   20.6480 C.3    71  LYS71       0.0206
     17  CE        74.4540   14.6270   20.9710 C.3    71  LYS71       0.1093
     18  NZ        73.6500   14.3830   22.2120 N.3    71  LYS71      -0.1314
     19  N         79.4960    7.0090   24.1500 N.3    80  ARG80      -0.1245
     20  CA        79.5280    7.5160   25.5320 C.3    80  ARG80       0.1563
     21  C         79.3390    6.3820   26.5210 C.2    80  ARG80       0.2260
     22  O         78.5630    5.4770   26.2590 O.2    80  ARG80      -0.2867
     23  CB        78.3590    8.4980   25.7880 C.3    80  ARG80       0.0307
     24  CG        78.3940    9.7710   24.9080 C.3    80  ARG80       0.0489
     25  CD        77.4450    9.7050   23.6780 C.3    80  ARG80       0.2205
     26  NE        76.0310    9.5000   24.0470 N.pl3  80  ARG80      -0.0865
     27  CZ        75.2790   10.3720   24.7390 C.cat  80  ARG80       0.5346
     28  NH1       75.7550   11.5490   25.2050 N.pl3  80  ARG80       0.1354
     29  NH2       74.0150   10.0350   25.0180 N.pl3  80  ARG80       0.1354
     30  N         78.9730   10.1630   33.5050 N.3   153  SER153     -0.1217
     31  CA        79.0920    9.7700   32.1130 C.3   153  SER153      0.1889
     32  C         80.3840   10.2940   31.5340 C.2   153  SER153      0.2288
     33  O         80.8450   11.4000   31.8740 O.2   153  SER153     -0.2866
     34  CB        77.9420   10.3820   31.2680 C.3   153  SER153      0.2089
     35  OG        76.8640    9.4690   31.2720 O.3   153  SER153     -0.2183
     36  N         81.9290   11.0910   27.8150 N.3   155  ASP155     -0.1239
     37  CA        81.7040   11.2760   26.4180 C.3   155  ASP155      0.1674
     38  C         83.0370   11.0250   25.7220 C.2   155  ASP155      0.2266
     39  O         84.0640   11.5650   26.1180 O.2   155  ASP155     -0.2867
     40  CB        81.2520   12.7120   26.1800 C.3   155  ASP155      0.1410
     41  CG        80.0450   12.7650   25.3060 C.2   155  ASP155      0.3668
     42  OD1       80.0170   12.0790   24.2380 O.co2 155  ASP155     -0.2456
     43  OD2       79.0530   13.3860   25.7910 O.co2 155  ASP155     -0.2456
     44  N         80.7390   14.1130   32.7090 N.3   164  LYS164     -0.1245
     45  CA        79.4860   14.7870   32.9770 C.3   164  LYS164      0.1561
     46  C         79.0360   14.1250   34.3010 C.2   164  LYS164      0.2260
     47  O         79.3160   12.9650   34.5250 O.2   164  LYS164     -0.2867
     48  CB        78.4810   14.4300   31.8790 C.3   164  LYS164      0.0271
     49  CG        78.4250   15.2680   30.5920 C.3   164  LYS164      0.0035
     50  CD        78.4320   14.4370   29.2640 C.3   164  LYS164      0.0206
     51  CE        77.0520   13.8490   28.9140 C.3   164  LYS164      0.1093
     52  NZ        76.9940   12.6850   27.9380 N.3   164  LYS164     -0.1314
     53  N         75.6040   13.7460   37.2640 N.3   166  TYR166     -0.1241
     54  CA        74.1890   13.8970   37.5100 C.3   166  TYR166      0.1605
     55  C         73.9560   13.7650   39.0330 C.2   166  TYR166      0.2264
     56  O         74.4310   12.8070   39.6420 O.2   166  TYR166     -0.2867
     57  CB        73.4250   12.8200   36.7480 C.3   166  TYR166      0.0534
     58  CG        73.8850   12.6830   35.3000 C.ar  166  TYR166     -0.0201
     59  CD1       75.0310   11.8980   34.9730 C.ar  166  TYR166     -0.0009
     60  CD2       73.2210   13.3120   34.2830 C.ar  166  TYR166     -0.0009
     61  CE1       75.4890   11.7630   33.6860 C.ar  166  TYR166      0.0417
     62  CE2       73.6610   13.1850   32.9780 C.ar  166  TYR166      0.0417
     63  CZ        74.8030   12.4210   32.6860 C.ar  166  TYR166      0.1957
     64  OH        75.2250   12.2450   31.3930 O.3   166  TYR166     -0.2866
     65  N         64.0380   15.8410   39.1840 N.3   227  GLY227     -0.1210
     66  CA        64.7690   14.7530   39.8660 C.3   227  GLY227      0.1956
     67  C         66.2800   14.6880   39.7370 C.2   227  GLY227      0.2611
     68  O         66.9290   13.9680   40.4760 O.2   227  GLY227     -0.2717
     69  N         66.8310   15.4420   38.7880 N.am  228  LEU228     -0.1979
     70  CA        68.2460   15.4000   38.4690 C.3   228  LEU228      0.1596
     71  C         68.7530   16.7210   37.9740 C.2   228  LEU228      0.2287
     72  O         68.1440   17.3340   37.1000 O.2   228  LEU228     -0.2864
     73  CB        68.5020   14.4310   37.3240 C.3   228  LEU228      0.0297
     74  CG        69.0180   13.0100   37.4310 C.3   228  LEU228      0.0022
     75  CD1       69.5000   12.6540   36.0220 C.3   228  LEU228      0.0001
     76  CD2       70.0930   12.7730   38.4590 C.3   228  LEU228      0.0001
     77  N         77.3420   23.2840   30.2500 N.3   240  ARG240     -0.1245
     78  CA        75.8980   23.1880   30.1280 C.3   240  ARG240      0.1563
     79  C         75.3410   22.7420   31.4710 C.2   240  ARG240      0.2260
     80  O         75.8430   21.8170   32.0990 O.2   240  ARG240     -0.2867
     81  CB        75.4850   22.2090   29.0210 C.3   240  ARG240      0.0307
     82  CG        76.0170   22.5360   27.6230 C.3   240  ARG240      0.0489
     83  CD        75.5480   21.5200   26.5790 C.3   240  ARG240      0.2205
     84  NE        75.8470   20.1060   26.9290 N.pl3 240  ARG240     -0.0865
     85  CZ        75.4380   19.0320   26.2240 C.cat 240  ARG240      0.5346
     86  NH1       74.7140   19.1760   25.1130 N.pl3 240  ARG240      0.1354
     87  NH2       75.7550   17.7930   26.6180 N.pl3 240  ARG240      0.1354
     88  N         71.9100   21.2470   33.1690 N.3   242  LYS242     -0.1245
     89  CA        70.7300   20.4900   32.7250 C.3   242  LYS242      0.1561
     90  C         69.7720   20.1760   33.8490 C.2   242  LYS242      0.2260
     91  O         70.2090   19.7440   34.9320 O.2   242  LYS242     -0.2867
     92  CB        71.1770   19.2330   32.0560 C.3   242  LYS242      0.0271
     93  CG        71.7160   19.5190   30.6780 C.3   242  LYS242      0.0035
     94  CD        72.0970   18.2540   29.9510 C.3   242  LYS242      0.0206
     95  CE        73.5960   18.1370   29.7730 C.3   242  LYS242      0.1093
     96  NZ        73.9650   16.7970   29.2180 N.3   242  LYS242     -0.1314
     97  N         66.4980   17.9370   34.7180 N.3   244  TYR244     -0.1227
     98  CA        65.7680   16.7820   34.1890 C.3   244  TYR244      0.1736
     99  C         64.4500   16.6370   34.9040 C.2   244  TYR244      0.2595
    100  O         64.3940   16.6590   36.1400 O.2   244  TYR244     -0.2718
    101  CB        66.5660   15.4920   34.4100 C.3   244  TYR244      0.0548
    102  CG        67.8270   15.3360   33.5640 C.ar  244  TYR244     -0.0200
    103  CD1       69.0320   15.9210   33.9510 C.ar  244  TYR244     -0.0009
    104  CD2       67.8300   14.5650   32.4110 C.ar  244  TYR244     -0.0009
    105  CE1       70.2130   15.7560   33.2060 C.ar  244  TYR244      0.0417
    106  CE2       69.0050   14.4310   31.6440 C.ar  244  TYR244      0.0417
    107  CZ        70.1960   15.0160   32.0600 C.ar  244  TYR244      0.1957
    108  OH        71.3600   14.8770   31.3260 O.3   244  TYR244     -0.2866
    109  N         63.3890   16.4250   34.1470 N.am  245  LEU245     -0.1966
    110  CA        62.1150   16.0470   34.7330 C.3   245  LEU245      0.1728
    111  C         61.9310   14.5550   34.5970 C.2   245  LEU245      0.2616
    112  O         62.2640   13.9980   33.5590 O.2   245  LEU245     -0.2715
    113  CB        60.9590   16.7370   34.0050 C.3   245  LEU245      0.0311
    114  CG        60.8310   18.2620   34.0560 C.3   245  LEU245      0.0022
    115  CD1       59.5410   18.7070   33.3500 C.3   245  LEU245      0.0001
    116  CD2       60.8430   18.7690   35.4870 C.3   245  LEU245      0.0001
    117  N         61.3860   13.9140   35.6250 N.am  246  ALA246     -0.1977
    118  CA        60.9830   12.5200   35.5070 C.3   246  ALA246      0.1597
    119  C         59.4730   12.4810   35.6050 C.2   246  ALA246      0.2287
    120  O         58.9040   13.1430   36.4750 O.2   246  ALA246     -0.2864
    121  CB        61.6090   11.6600   36.6010 C.3   246  ALA246      0.0319
    122  N         60.5510    5.8220   34.1790 N.3   288  PRO288     -0.2102
    123  CA        59.8750    7.0540   33.7850 C.3   288  PRO288      0.1504
    124  C         60.3540    7.5770   32.4560 C.2   288  PRO288      0.2576
    125  O         61.3800    7.1010   31.9360 O.2   288  PRO288     -0.2718
    126  CB        60.2280    8.0300   34.8990 C.3   288  PRO288      0.0282
    127  CG        61.4840    7.5150   35.5120 C.3   288  PRO288      0.0208
    128  CD        61.4820    6.0260   35.3090 C.3   288  PRO288      0.0893
    129  N         59.5870    8.5110   31.8900 N.am  289  PHE289     -0.1963
    130  CA        60.0240    9.2820   30.7650 C.3   289  PHE289      0.1771
    131  C         60.8650   10.3740   31.3610 C.2   289  PHE289      0.2620
    132  O         60.6440   10.7700   32.4820 O.2   289  PHE289     -0.2715
    133  CB        58.8520    9.9230   30.0270 C.3   289  PHE289      0.0574
    134  CG        57.9790    8.9340   29.3180 C.ar  289  PHE289     -0.0200
    135  CD1       56.9490    8.2810   29.9990 C.ar  289  PHE289     -0.0042
    136  CD2       58.1950    8.6450   27.9850 C.ar  289  PHE289     -0.0042
    137  CE1       56.1440    7.3550   29.3410 C.ar  289  PHE289     -0.0003
    138  CE2       57.3820    7.7380   27.3140 C.ar  289  PHE289     -0.0003
    139  CZ        56.3630    7.0830   28.0030 C.ar  289  PHE289     -0.0000
    140  N         61.8560   10.8370   30.6130 N.am  290  GLY290     -0.1954
    141  CA        62.6820   11.9440   31.0370 C.3   290  GLY290      0.1869
    142  C         62.5360   13.1130   30.1000 C.2   290  GLY290      0.2309
    143  O         62.4430   12.9140   28.8630 O.2   290  GLY290     -0.2863
    144  N         64.7800   16.7940   29.5160 N.3   292  ASN292     -0.1240
    145  CA        66.0640   17.3820   29.8870 C.3   292  ASN292      0.1653
    146  C         66.1140   18.7720   29.3120 C.2   292  ASN292      0.2266
    147  O         66.2350   18.9080   28.1140 O.2   292  ASN292     -0.2867
    148  CB        67.1710   16.4640   29.2930 C.3   292  ASN292      0.1155
    149  CG        68.5990   16.9890   29.4200 C.2   292  ASN292      0.2627
    150  OD1       68.8850   18.0400   29.9860 O.2   292  ASN292     -0.2716
    151  ND2       69.5270   16.2130   28.8720 N.am  292  ASN292     -0.0877
    152  N         65.4440   17.6530   25.4570 N.3   306  GLN306     -0.1245
    153  CA        65.5610   16.2930   24.9120 C.3   306  GLN306      0.1566
    154  C         64.5990   15.4400   25.6990 C.2   306  GLN306      0.2260
    155  O         64.4290   15.6400   26.9080 O.2   306  GLN306     -0.2867
    156  CB        66.9950   15.7680   25.0450 C.3   306  GLN306      0.0367
    157  CG        67.9770   16.6410   24.2710 C.3   306  GLN306      0.0905
    158  CD        69.4380   16.2500   24.4050 C.2   306  GLN306      0.2608
    159  OE1       70.2960   17.1230   24.5550 O.2   306  GLN306     -0.2717
    160  NE2       69.7360   14.9390   24.3260 N.am  306  GLN306     -0.0878
    161  N         63.4690   11.5360   26.7320 N.3   308  TYR308     -0.1241
    162  CA        63.9740   10.1650   26.8550 C.3   308  TYR308      0.1605
    163  C         62.8210    9.1610   27.0260 C.2   308  TYR308      0.2264
    164  O         62.0200    9.2940   27.9540 O.2   308  TYR308     -0.2867
    165  CB        64.9640   10.0880   28.0080 C.3   308  TYR308      0.0534
    166  CG        66.1600   10.9470   27.7800 C.ar  308  TYR308     -0.0201
    167  CD1       66.1420   12.2820   28.1170 C.ar  308  TYR308     -0.0009
    168  CD2       67.2940   10.4490   27.1400 C.ar  308  TYR308     -0.0009
    169  CE1       67.2170   13.1010   27.8450 C.ar  308  TYR308      0.0417
    170  CE2       68.3940   11.2720   26.8710 C.ar  308  TYR308      0.0417
    171  CZ        68.3310   12.5990   27.2260 C.ar  308  TYR308      0.1957
    172  OH        69.3810   13.4490   27.0050 O.3   308  TYR308     -0.2866
    173  N         67.0640    3.1880   26.6900 N.3   361  TRP361     -0.1241
    174  CA        66.5100    4.5030   26.5110 C.3   361  TRP361      0.1605
    175  C         66.7460    4.8680   25.0970 C.2   361  TRP361      0.2264
    176  O         67.7140    4.4260   24.4680 O.2   361  TRP361     -0.2867
    177  CB        67.2320    5.5870   27.3530 C.3   361  TRP361      0.0550
    178  CG        67.2270    5.3890   28.8150 C.ar  361  TRP361      0.0003
    179  CD1       68.2140    4.8640   29.5510 C.ar  361  TRP361      0.0946
    180  CD2       66.1690    5.6860   29.7090 C.ar  361  TRP361      0.0152
    181  NE1       67.8520    4.8020   30.8570 N.ar  361  TRP361     -0.2442
    182  CE2       66.6100    5.3330   30.9990 C.ar  361  TRP361      0.0810
    183  CE3       64.9170    6.2950   29.5590 C.ar  361  TRP361      0.0012
    184  CZ2       65.8490    5.5430   32.1490 C.ar  361  TRP361      0.0191
    185  CZ3       64.1390    6.4870   30.7040 C.ar  361  TRP361      0.0001
    186  CH2       64.6080    6.1190   31.9800 C.ar  361  TRP361      0.0015
    187  N         69.8720    9.3940   20.4180 N.3   375  ASN375     -0.1240
    188  CA        70.6590    8.8850   21.4790 C.3   375  ASN375      0.1653
    189  C         70.0920    7.5410   21.8930 C.2   375  ASN375      0.2266
    190  O         68.9900    7.4900   22.3960 O.2   375  ASN375     -0.2867
    191  CB        70.6170    9.8250   22.6630 C.3   375  ASN375      0.1155
    192  CG        71.3490   11.1100   22.3940 C.2   375  ASN375      0.2627
    193  OD1       70.7490   12.1490   22.0560 O.2   375  ASN375     -0.2716
    194  ND2       72.6430   11.0470   22.5190 N.am  375  ASN375     -0.0877
    195  N         70.6990    4.1310   24.2990 N.3   377  TYR377     -0.1241
    196  CA        71.3680    3.6610   25.4680 C.3   377  TYR377      0.1605
    197  C         71.1600    2.1680   25.5890 C.2   377  TYR377      0.2264
    198  O         70.0230    1.7170   25.6910 O.2   377  TYR377     -0.2867
    199  CB        70.8200    4.3800   26.7300 C.3   377  TYR377      0.0534
    200  CG        71.1410    5.8630   26.7780 C.ar  377  TYR377     -0.0201
    201  CD1       70.4460    6.7630   25.9520 C.ar  377  TYR377     -0.0009
    202  CD2       72.1490    6.3800   27.6070 C.ar  377  TYR377     -0.0009
    203  CE1       70.6880    8.1210   25.9730 C.ar  377  TYR377      0.0417
    204  CE2       72.4160    7.7700   27.6210 C.ar  377  TYR377      0.0417
    205  CZ        71.6610    8.6290   26.7900 C.ar  377  TYR377      0.1957
    206  OH        71.8600    9.9960   26.7140 O.3   377  TYR377     -0.2866
@<TRIPOS>BOND
     1    13    12    2
     2    12    11    1
     3    11    10    1
     4    11    14    1
     5    15    14    1
     6    15    16    1
     7   187   188    1
     8    16    17    1
     9    17    18    1
    10   188   189    1
    11   188   191    1
    12   189   190    2
    13   193   192    2
    14   192   194   am
    15   192   191    1
    16    25    26    1
    17    25    24    1
    18    26    27    2
    19    19    20    1
    20    42    41   ar
    21   157   158    1
    22   157   156    1
    23   195   196    1
    24   160   158   am
    25   158   159    2
    26   176   175    2
    27    27    29    1
    28    27    28    1
    29    24    23    1
    30   153   156    1
    31   153   152    1
    32   153   154    1
    33   175   174    1
    34    86    85    1
    35    41    43   ar
    36    41    40    1
    37   196   197    1
    38   196   199    1
    39    20    23    1
    40    20    21    1
    41   197   198    2
    42   154   155    2
    43    38    39    2
    44    38    37    1
    45   201   203   ar
    46   201   200   ar
    47   203   205   ar
    48    40    37    1
    49    85    87    1
    50    85    84    2
    51    22    21    2
    52    37    36    1
    53   174   173    1
    54   174   177    1
    55    83    84    1
    56    83    82    1
    57   206   205    1
    58   199   200    1
    59   161   162    1
    60   200   202   ar
    61   205   204   ar
    62   162   163    1
    63   162   165    1
    64   170   168   ar
    65   170   171   ar
    66   172   171    1
    67   163   164    2
    68   168   166   ar
    69   171   169   ar
    70   138   136   ar
    71   138   139   ar
    72   177   178    1
    73   202   204   ar
    74    82    81    1
    75   166   165    1
    76   166   167   ar
    77   169   167   ar
    78    52    51    1
    79   136   134   ar
    80   139   137   ar
    81   147   146    2
    82     3     4    2
    83     3     2    1
    84   178   179   ar
    85   178   180   ar
    86   143   142    2
    87   151   149   am
    88    51    50    1
    89    81    78    1
    90    96    95    1
    91    50    49    1
    92   148   149    1
    93   148   145    1
    94   146   145    1
    95   134   135   ar
    96   134   133    1
    97   137   135   ar
    98   149   150    2
    99   144   145    1
   100   179   181   ar
   101   183   180   ar
   102   183   185   ar
   103   180   182   ar
   104    95    94    1
   105     2     5    1
   106     2     1    1
   107    94    93    1
   108   133   130    1
   109     5     6    1
   110   142   141    1
   111    78    77    1
   112    78    79    1
   113     8     7   ar
   114    49    48    1
   115   140   141    1
   116   140   131   am
   117    93    92    1
   118     6     7    1
   119   185   186   ar
   120   130   131    1
   121   130   129    1
   122   181   182   ar
   123   182   184   ar
   124     7     9   ar
   125    34    35    1
   126    34    31    1
   127   108   107    1
   128   131   132    2
   129    64    63    1
   130    79    80    2
   131    32    33    2
   132    32    31    1
   133   106   107   ar
   134   106   104   ar
   135    48    45    1
   136   129   124   am
   137   125   124    2
   138   186   184   ar
   139    92    89    1
   140   107   105   ar
   141    31    30    1
   142   104   102   ar
   143   124   123    1
   144    63    62   ar
   145    63    61   ar
   146    44    45    1
   147    89    88    1
   148    89    90    1
   149    45    46    1
   150    62    60   ar
   151   105   103   ar
   152   115   114    1
   153   112   111    2
   154   102   103   ar
   155   102   101    1
   156    61    59   ar
   157   123   122    1
   158   123   126    1
   159    90    91    2
   160   113   114    1
   161   113   110    1
   162   114   116    1
   163   109   110    1
   164   109    99   am
   165   122   128    1
   166    98   101    1
   167    98    97    1
   168    98    99    1
   169    60    58   ar
   170    46    47    2
   171   111   110    1
   172   111   117   am
   173   126   127    1
   174    99   100    2
   175    59    58   ar
   176    58    57    1
   177   128   127    1
   178   118   119    1
   179   118   117    1
   180   118   121    1
   181   119   120    2
   182    75    74    1
   183    57    54    1
   184    72    71    2
   185    53    54    1
   186    73    74    1
   187    73    70    1
   188    74    76    1
   189    54    55    1
   190    71    70    1
   191    70    69    1
   192    69    67   am
   193    55    56    2
   194    65    66    1
   195    67    66    1
   196    67    68    2
