@<TRIPOS>MOLECULE
tmp/5kcyB00.pdb
 181 172 0 0 0
SMALL
GASTEIGER

@<TRIPOS>ATOM
      1  N         72.1980    1.7420   38.6390 N.3    64  HIS64      -0.1241
      2  CA        71.8230    1.6120   37.2150 C.3    64  HIS64       0.1621
      3  C         72.9040    0.8280   36.4640 C.2    64  HIS64       0.2264
      4  O         74.0950    0.9360   36.7940 O.2    64  HIS64      -0.2867
      5  CB        71.4720    2.9370   36.4680 C.3    64  HIS64       0.0745
      6  CG        72.6470    3.6870   35.9030 C.ar   64  HIS64       0.0817
      7  ND1       72.9380    4.9860   36.2410 N.ar   64  HIS64      -0.2268
      8  CD2       73.5760    3.3300   34.9960 C.ar   64  HIS64       0.1154
      9  CE1       73.9780    5.4110   35.5490 C.ar   64  HIS64       0.1986
     10  NE2       74.3980    4.4130   34.8020 N.ar   64  HIS64      -0.2212
     11  N         76.0830    1.4860   30.9980 N.3    67  GLU67      -0.1245
     12  CA        75.3680    1.8190   29.7780 C.3    67  GLU67       0.1567
     13  C         76.3700    2.3340   28.7560 C.2    67  GLU67       0.2260
     14  O         77.2560    3.1270   29.0760 O.2    67  GLU67      -0.2867
     15  CB        74.2630    2.8360   30.0940 C.3    67  GLU67       0.0388
     16  CG        73.0410    2.1540   30.6940 C.3    67  GLU67       0.1160
     17  CD        71.9740    3.1130   31.1460 C.2    67  GLU67       0.3649
     18  OE1       71.5980    3.9740   30.3250 O.co2  67  GLU67      -0.2457
     19  OE2       71.5010    3.0070   32.3130 O.co2  67  GLU67      -0.2457
     20  N         78.0920    5.4860   30.4910 N.3    82  GLY82      -0.1225
     21  CA        77.3250    5.9590   31.6210 C.3    82  GLY82       0.1811
     22  C         77.4440    4.9290   32.7210 C.2    82  GLY82       0.2280
     23  O         77.1850    3.7240   32.4840 O.2    82  GLY82      -0.2866
     24  N         77.3170    4.1920   37.2920 N.3    84  GLN84      -0.1245
     25  CA        77.2300    4.4600   38.7230 C.3    84  GLN84       0.1566
     26  C         78.5440    3.9520   39.2690 C.2    84  GLN84       0.2260
     27  O         78.7650    2.7320   39.3150 O.2    84  GLN84      -0.2867
     28  CB        76.0600    3.6440   39.3440 C.3    84  GLN84       0.0367
     29  CG        75.7820    3.9590   40.8170 C.3    84  GLN84       0.0905
     30  CD        75.6440    5.4160   41.0440 C.2    84  GLN84       0.2608
     31  OE1       74.5700    5.9230   40.9010 O.2    84  GLN84      -0.2717
     32  NE2       76.7510    6.1300   41.3480 N.am   84  GLN84      -0.0878
     33  N         71.5100    6.0870   45.7920 N.3   148  ASN148     -0.1240
     34  CA        72.5740    6.7410   45.0550 C.3   148  ASN148      0.1653
     35  C         72.2300    8.2200   44.9920 C.2   148  ASN148      0.2266
     36  O         71.0780    8.5730   44.9830 O.2   148  ASN148     -0.2867
     37  CB        72.7370    6.1380   43.6500 C.3   148  ASN148      0.1155
     38  CG        73.1850    4.6590   43.6610 C.2   148  ASN148      0.2627
     39  OD1       72.3880    3.7360   43.3870 O.2   148  ASN148     -0.2716
     40  ND2       74.4550    4.4330   43.9760 N.am  148  ASN148     -0.0877
     41  N         74.8170   10.4330   43.1180 N.3   150  VAL150     -0.1231
     42  CA        75.4240   10.9550   41.9030 C.3   150  VAL150      0.1692
     43  C         75.8040    9.8420   40.9640 C.2   150  VAL150      0.2592
     44  O         76.0300    8.7020   41.3560 O.2   150  VAL150     -0.2718
     45  CB        76.6080   11.9380   42.2030 C.3   150  VAL150      0.0266
     46  CG1       77.5560   11.4160   43.2510 C.3   150  VAL150      0.0020
     47  CG2       77.4100   12.3070   40.9420 C.3   150  VAL150      0.0020
     48  N         75.7990   10.1450   39.6790 N.am  151  CYS151     -0.1956
     49  CA        76.3930    9.2290   38.7140 C.3   151  CYS151      0.1843
     50  C         77.1060    9.9820   37.6160 C.2   151  CYS151      0.2626
     51  O         77.0970   11.2100   37.6130 O.2   151  CYS151     -0.2714
     52  CB        75.3570    8.2260   38.2360 C.3   151  CYS151      0.0997
     53  SG        73.9820    9.0000   37.4160 S.3   151  CYS151     -0.0797
     54  N         77.7550    9.2590   36.7080 N.am  152  THR152     -0.1936
     55  CA        78.7680    9.8470   35.8730 C.3   152  THR152      0.2028
     56  C         78.6730    9.3250   34.4680 C.2   152  THR152      0.2642
     57  O         78.3850    8.1920   34.2670 O.2   152  THR152     -0.2714
     58  CB        80.2020    9.4550   36.4050 C.3   152  THR152      0.1808
     59  OG1       80.3120    9.8100   37.7840 O.3   152  THR152     -0.2208
     60  CG2       81.2730   10.1940   35.6610 C.3   152  THR152      0.0379
     61  N         78.9730   10.1630   33.5050 N.am  153  SER153     -0.1949
     62  CA        79.0920    9.7700   32.1130 C.3   153  SER153      0.1924
     63  C         80.3840   10.2940   31.5340 C.2   153  SER153      0.2314
     64  O         80.8450   11.4000   31.8740 O.2   153  SER153     -0.2863
     65  CB        77.9420   10.3820   31.2680 C.3   153  SER153      0.2116
     66  OG        76.8640    9.4690   31.2720 O.3   153  SER153     -0.2180
     67  N         75.6040   13.7460   37.2640 N.3   166  TYR166     -0.1241
     68  CA        74.1890   13.8970   37.5100 C.3   166  TYR166      0.1605
     69  C         73.9560   13.7650   39.0330 C.2   166  TYR166      0.2264
     70  O         74.4310   12.8070   39.6420 O.2   166  TYR166     -0.2867
     71  CB        73.4250   12.8200   36.7480 C.3   166  TYR166      0.0534
     72  CG        73.8850   12.6830   35.3000 C.ar  166  TYR166     -0.0201
     73  CD1       75.0310   11.8980   34.9730 C.ar  166  TYR166     -0.0009
     74  CD2       73.2210   13.3120   34.2830 C.ar  166  TYR166     -0.0009
     75  CE1       75.4890   11.7630   33.6860 C.ar  166  TYR166      0.0417
     76  CE2       73.6610   13.1850   32.9780 C.ar  166  TYR166      0.0417
     77  CZ        74.8030   12.4210   32.6860 C.ar  166  TYR166      0.1957
     78  OH        75.2250   12.2450   31.3930 O.3   166  TYR166     -0.2866
     79  N         71.1940   13.6150   41.9980 N.3   168  SER168     -0.1217
     80  CA        69.7950   13.4010   42.3430 C.3   168  SER168      0.1889
     81  C         69.4190   14.2810   43.5410 C.2   168  SER168      0.2288
     82  O         70.1860   14.4620   44.4720 O.2   168  SER168     -0.2866
     83  CB        69.4650   11.9120   42.5210 C.3   168  SER168      0.2089
     84  OG        68.2570   11.7550   43.2620 O.3   168  SER168     -0.2183
     85  N         66.2980   13.8730   45.0280 N.3   170  ILE170     -0.1245
     86  CA        65.2810   13.2190   45.8110 C.3   170  ILE170      0.1561
     87  C         65.7560   12.9530   47.2280 C.2   170  ILE170      0.2260
     88  O         65.0640   13.2760   48.1790 O.2   170  ILE170     -0.2867
     89  CB        64.7150   11.9790   45.0750 C.3   170  ILE170      0.0252
     90  CG1       63.9650   12.4780   43.8120 C.3   170  ILE170      0.0019
     91  CG2       63.8060   11.1590   46.0140 C.3   170  ILE170      0.0019
     92  CD1       63.2380   11.4110   43.0160 C.3   170  ILE170      0.0001
     93  N         58.4860   15.7080   38.1100 N.3   225  LEU225     -0.1245
     94  CA        59.3360   16.3670   39.1160 C.3   225  LEU225      0.1561
     95  C         60.7650   16.6180   38.6360 C.2   225  LEU225      0.2260
     96  O         61.2580   15.9130   37.7500 O.2   225  LEU225     -0.2867
     97  CB        59.3350   15.5450   40.3960 C.3   225  LEU225      0.0270
     98  CG        59.7510   14.0850   40.2910 C.3   225  LEU225      0.0019
     99  CD1       61.2600   13.9360   40.2100 C.3   225  LEU225      0.0001
    100  CD2       59.2070   13.3360   41.4920 C.3   225  LEU225      0.0001
    101  N         64.0380   15.8410   39.1840 N.3   227  GLY227     -0.1210
    102  CA        64.7690   14.7530   39.8660 C.3   227  GLY227      0.1956
    103  C         66.2800   14.6880   39.7370 C.2   227  GLY227      0.2611
    104  O         66.9290   13.9680   40.4760 O.2   227  GLY227     -0.2717
    105  N         66.8310   15.4420   38.7880 N.am  228  LEU228     -0.1979
    106  CA        68.2460   15.4000   38.4690 C.3   228  LEU228      0.1596
    107  C         68.7530   16.7210   37.9740 C.2   228  LEU228      0.2287
    108  O         68.1440   17.3340   37.1000 O.2   228  LEU228     -0.2864
    109  CB        68.5020   14.4310   37.3240 C.3   228  LEU228      0.0297
    110  CG        69.0180   13.0100   37.4310 C.3   228  LEU228      0.0022
    111  CD1       69.5000   12.6540   36.0220 C.3   228  LEU228      0.0001
    112  CD2       70.0930   12.7730   38.4590 C.3   228  LEU228      0.0001
    113  N         66.4980   17.9370   34.7180 N.3   244  TYR244     -0.1241
    114  CA        65.7680   16.7820   34.1890 C.3   244  TYR244      0.1605
    115  C         64.4500   16.6370   34.9040 C.2   244  TYR244      0.2264
    116  O         64.3940   16.6590   36.1400 O.2   244  TYR244     -0.2867
    117  CB        66.5660   15.4920   34.4100 C.3   244  TYR244      0.0534
    118  CG        67.8270   15.3360   33.5640 C.ar  244  TYR244     -0.0201
    119  CD1       69.0320   15.9210   33.9510 C.ar  244  TYR244     -0.0009
    120  CD2       67.8300   14.5650   32.4110 C.ar  244  TYR244     -0.0009
    121  CE1       70.2130   15.7560   33.2060 C.ar  244  TYR244      0.0417
    122  CE2       69.0050   14.4310   31.6440 C.ar  244  TYR244      0.0417
    123  CZ        70.1960   15.0160   32.0600 C.ar  244  TYR244      0.1957
    124  OH        71.3600   14.8770   31.3260 O.3   244  TYR244     -0.2866
    125  N         61.3860   13.9140   35.6250 N.3   246  ALA246     -0.1245
    126  CA        60.9830   12.5200   35.5070 C.3   246  ALA246      0.1562
    127  C         59.4730   12.4810   35.6050 C.2   246  ALA246      0.2260
    128  O         58.9040   13.1430   36.4750 O.2   246  ALA246     -0.2867
    129  CB        61.6090   11.6600   36.6010 C.3   246  ALA246      0.0290
    130  N         60.1600    2.1450   34.0430 N.3   287  LEU287     -0.1231
    131  CA        60.9930    3.3760   34.0720 C.3   287  LEU287      0.1678
    132  C         60.2260    4.6520   33.6110 C.2   287  LEU287      0.2434
    133  O         59.3810    4.5740   32.7290 O.2   287  LEU287     -0.2733
    134  CB        62.2680    3.2600   33.1990 C.3   287  LEU287      0.0284
    135  CG        63.2670    2.1470   33.4660 C.3   287  LEU287      0.0019
    136  CD1       64.2490    2.0140   32.3070 C.3   287  LEU287      0.0001
    137  CD2       64.0090    2.3940   34.7550 C.3   287  LEU287      0.0001
    138  N         60.5510    5.8220   34.1790 N.am  288  PRO288     -0.2729
    139  CA        59.8750    7.0540   33.7850 C.3   288  PRO288      0.1401
    140  C         60.3540    7.5770   32.4560 C.2   288  PRO288      0.2269
    141  O         61.3800    7.1010   31.9360 O.2   288  PRO288     -0.2865
    142  CB        60.2280    8.0300   34.8990 C.3   288  PRO288      0.0296
    143  CG        61.4840    7.5150   35.5120 C.3   288  PRO288      0.0237
    144  CD        61.4820    6.0260   35.3090 C.3   288  PRO288      0.0939
    145  N         67.7710    0.3870   26.2830 N.3   360  ARG360     -0.1231
    146  CA        67.1570    0.8800   27.5010 C.3   360  ARG360      0.1694
    147  C         66.4430    2.2310   27.3750 C.2   360  ARG360      0.2592
    148  O         65.3810    2.4140   27.9360 O.2   360  ARG360     -0.2718
    149  CB        68.2190    0.9490   28.5700 C.3   360  ARG360      0.0321
    150  CG        67.6810    1.0480   29.9820 C.3   360  ARG360      0.0489
    151  CD        68.8640    0.9430   30.9330 C.3   360  ARG360      0.2205
    152  NE        68.4580    1.2100   32.3010 N.pl3 360  ARG360     -0.0865
    153  CZ        67.9440    0.3310   33.1450 C.cat 360  ARG360      0.5346
    154  NH1       67.7180   -0.9130   32.8070 N.pl3 360  ARG360      0.1354
    155  NH2       67.6300    0.7310   34.3710 N.pl3 360  ARG360      0.1354
    156  N         67.0640    3.1880   26.6900 N.am  361  TRP361     -0.1976
    157  CA        66.5100    4.5030   26.5110 C.3   361  TRP361      0.1640
    158  C         66.7460    4.8680   25.0970 C.2   361  TRP361      0.2290
    159  O         67.7140    4.4260   24.4680 O.2   361  TRP361     -0.2864
    160  CB        67.2320    5.5870   27.3530 C.3   361  TRP361      0.0576
    161  CG        67.2270    5.3890   28.8150 C.ar  361  TRP361      0.0006
    162  CD1       68.2140    4.8640   29.5510 C.ar  361  TRP361      0.0946
    163  CD2       66.1690    5.6860   29.7090 C.ar  361  TRP361      0.0152
    164  NE1       67.8520    4.8020   30.8570 N.ar  361  TRP361     -0.2442
    165  CE2       66.6100    5.3330   30.9990 C.ar  361  TRP361      0.0810
    166  CE3       64.9170    6.2950   29.5590 C.ar  361  TRP361      0.0012
    167  CZ2       65.8490    5.5430   32.1490 C.ar  361  TRP361      0.0191
    168  CZ3       64.1390    6.4870   30.7040 C.ar  361  TRP361      0.0001
    169  CH2       64.6080    6.1190   31.9800 C.ar  361  TRP361      0.0015
    170  N         70.6990    4.1310   24.2990 N.3   377  TYR377     -0.1241
    171  CA        71.3680    3.6610   25.4680 C.3   377  TYR377      0.1605
    172  C         71.1600    2.1680   25.5890 C.2   377  TYR377      0.2264
    173  O         70.0230    1.7170   25.6910 O.2   377  TYR377     -0.2867
    174  CB        70.8200    4.3800   26.7300 C.3   377  TYR377      0.0534
    175  CG        71.1410    5.8630   26.7780 C.ar  377  TYR377     -0.0201
    176  CD1       70.4460    6.7630   25.9520 C.ar  377  TYR377     -0.0009
    177  CD2       72.1490    6.3800   27.6070 C.ar  377  TYR377     -0.0009
    178  CE1       70.6880    8.1210   25.9730 C.ar  377  TYR377      0.0417
    179  CE2       72.4160    7.7700   27.6210 C.ar  377  TYR377      0.0417
    180  CZ        71.6610    8.6290   26.7900 C.ar  377  TYR377      0.1957
    181  OH        71.8600    9.9960   26.7140 O.3   377  TYR377     -0.2866
@<TRIPOS>BOND
     1   170   171    1
     2   159   158    2
     3   158   157    1
     4   171   172    1
     5   171   174    1
     6   172   173    2
     7   176   178   ar
     8   176   175   ar
     9   178   180   ar
    10   145   146    1
    11   157   156    1
    12   157   160    1
    13   156   147   am
    14   181   180    1
    15   174   175    1
    16   175   177   ar
    17   180   179   ar
    18   160   161    1
    19   147   146    1
    20   147   148    2
    21   146   149    1
    22   177   179   ar
    23   149   150    1
    24    13    14    2
    25    13    12    1
    26   161   162   ar
    27   161   163   ar
    28   162   164   ar
    29   166   163   ar
    30   166   168   ar
    31   163   165   ar
    32    12    15    1
    33    12    11    1
    34   150   151    1
    35    15    16    1
    36    18    17   ar
    37    20    21    1
    38    16    17    1
    39   168   169   ar
    40   164   165   ar
    41   151   152    1
    42   165   167   ar
    43    17    19   ar
    44    65    66    1
    45    65    62    1
    46   124   123    1
    47    78    77    1
    48    63    64    2
    49    63    62    1
    50    21    22    1
    51   122   123   ar
    52   122   120   ar
    53   141   140    2
    54   169   167   ar
    55   123   121   ar
    56    62    61    1
    57   152   153    2
    58   136   135    1
    59   120   118   ar
    60   140   139    1
    61    23    22    2
    62    77    76   ar
    63    77    75   ar
    64   133   132    2
    65   154   153    1
    66    76    74   ar
    67   153   155    1
    68   134   135    1
    69   134   131    1
    70   121   119   ar
    71   135   137    1
    72    61    56   am
    73   118   119   ar
    74   118   117    1
    75   132   131    1
    76   132   138   am
    77    75    73   ar
    78   139   138    1
    79   139   142    1
    80   130   131    1
    81   138   144    1
    82   114   117    1
    83   114   113    1
    84   114   115    1
    85    57    56    2
    86    74    72   ar
    87    56    55    1
    88    10     8   ar
    89    10     9   ar
    90   142   143    1
    91   115   116    2
    92    73    72   ar
    93     8     6   ar
    94    72    71    1
    95   144   143    1
    96   126   127    1
    97   126   125    1
    98   126   129    1
    99     9     7   ar
   100   127   128    2
   101    60    58    1
   102    55    58    1
   103    55    54    1
   104     6     7   ar
   105     6     5    1
   106   111   110    1
   107    58    59    1
   108     3     4    2
   109     3     2    1
   110     5     2    1
   111    54    50   am
   112    71    68    1
   113   108   107    2
   114     2     1    1
   115    67    68    1
   116    24    25    1
   117   109   110    1
   118   109   106    1
   119    53    52    1
   120   110   112    1
   121    68    69    1
   122    51    50    2
   123    50    49    1
   124    96    95    2
   125   107   106    1
   126    93    94    1
   127    52    49    1
   128   106   105    1
   129    95    94    1
   130    49    48    1
   131    25    26    1
   132    25    28    1
   133   105   103   am
   134    69    70    2
   135    94    97    1
   136   101   102    1
   137    26    27    2
   138    28    29    1
   139    48    43   am
   140   103   102    1
   141   103   104    2
   142    99    98    1
   143    98    97    1
   144    98   100    1
   145    29    30    1
   146    31    30    2
   147    47    45    1
   148    43    44    2
   149    43    42    1
   150    30    32   am
   151    42    45    1
   152    42    41    1
   153    79    80    1
   154    45    46    1
   155    80    83    1
   156    80    81    1
   157    83    84    1
   158    92    90    1
   159    39    38    2
   160    81    82    2
   161    37    38    1
   162    37    34    1
   163    38    40   am
   164    90    89    1
   165    36    35    2
   166    35    34    1
   167    85    86    1
   168    34    33    1
   169    89    86    1
   170    89    91    1
   171    86    87    1
   172    87    88    2
