@<TRIPOS>MOLECULE
tmp/5kd1A01.pdb
 86 81 0 0 0
SMALL
GASTEIGER

@<TRIPOS>ATOM
      1  N         85.6170   36.6570  -14.2030 N.3    29  LEU29      -0.1245
      2  CA        84.7720   35.7850  -15.0330 C.3    29  LEU29       0.1561
      3  C         85.5260   35.3920  -16.3250 C.2    29  LEU29       0.2260
      4  O         85.4330   34.1940  -16.7250 O.2    29  LEU29      -0.2867
      5  CB        83.4350   36.4180  -15.3610 C.3    29  LEU29       0.0270
      6  CG        82.5060   36.5630  -14.1780 C.3    29  LEU29       0.0019
      7  CD1       81.2090   37.2110  -14.6330 C.3    29  LEU29       0.0001
      8  CD2       82.2380   35.2070  -13.5340 C.3    29  LEU29       0.0001
      9  N         87.8850   32.6780  -15.3860 N.3    32  LEU32      -0.1245
     10  CA        87.1740   31.4120  -15.2160 C.3    32  LEU32       0.1561
     11  C         86.8480   30.7750  -16.5820 C.2    32  LEU32       0.2260
     12  O         87.0800   29.5480  -16.7200 O.2    32  LEU32      -0.2867
     13  CB        85.8330   31.6990  -14.5150 C.3    32  LEU32       0.0270
     14  CG        84.8770   30.5340  -14.2790 C.3    32  LEU32       0.0019
     15  CD1       85.4910   29.4290  -13.4570 C.3    32  LEU32       0.0001
     16  CD2       83.6110   31.0650  -13.6110 C.3    32  LEU32       0.0001
     17  N         75.6550   29.0850  -18.7500 N.3    43  PHE43      -0.1241
     18  CA        75.0960   30.3800  -18.9030 C.3    43  PHE43       0.1605
     19  C         74.4130   30.5340  -20.2290 C.2    43  PHE43       0.2264
     20  O         75.0820   30.6290  -21.2680 O.2    43  PHE43      -0.2867
     21  CB        76.1470   31.4550  -18.7870 C.3    43  PHE43       0.0534
     22  CG        76.8700   31.4670  -17.4970 C.ar   43  PHE43      -0.0203
     23  CD1       77.9050   30.6220  -17.2660 C.ar   43  PHE43      -0.0042
     24  CD2       76.4780   32.3080  -16.4760 C.ar   43  PHE43      -0.0042
     25  CE1       78.5800   30.6270  -16.0630 C.ar   43  PHE43      -0.0003
     26  CE2       77.1230   32.2550  -15.2520 C.ar   43  PHE43      -0.0003
     27  CZ        78.1930   31.4640  -15.0730 C.ar   43  PHE43      -0.0000
     28  N         72.9600   33.2660  -21.1660 N.3    45  ARG45      -0.1231
     29  CA        73.3260   34.5890  -21.6550 C.3    45  ARG45       0.1694
     30  C         74.7320   34.5920  -22.2840 C.2    45  ARG45       0.2592
     31  O         75.0250   35.5160  -22.9850 O.2    45  ARG45      -0.2718
     32  CB        73.3380   35.6450  -20.4980 C.3    45  ARG45       0.0321
     33  CG        72.0220   36.2460  -20.0560 C.3    45  ARG45       0.0489
     34  CD        72.0360   36.4590  -18.5360 C.3    45  ARG45       0.2205
     35  NE        72.5130   37.7560  -18.0740 N.pl3  45  ARG45      -0.0865
     36  CZ        71.8210   38.9060  -18.1870 C.cat  45  ARG45       0.5346
     37  NH1       70.6140   38.9350  -18.7740 N.pl3  45  ARG45       0.1354
     38  NH2       72.3410   40.0600  -17.7360 N.pl3  45  ARG45       0.1354
     39  N         75.6190   33.6470  -21.9790 N.am   46  PHE46      -0.1976
     40  CA        77.0920   33.7220  -22.4000 C.3    46  PHE46       0.1639
     41  C         77.7080   32.5610  -23.1390 C.2    46  PHE46       0.2290
     42  O         78.8750   32.6540  -23.5580 O.2    46  PHE46      -0.2864
     43  CB        78.0260   33.8660  -21.1360 C.3    46  PHE46       0.0560
     44  CG        77.6580   35.0100  -20.2260 C.ar   46  PHE46      -0.0200
     45  CD1       77.2100   36.1780  -20.7480 C.ar   46  PHE46      -0.0042
     46  CD2       77.6330   34.8510  -18.8170 C.ar   46  PHE46      -0.0042
     47  CE1       76.8260   37.2570  -19.9250 C.ar   46  PHE46      -0.0003
     48  CE2       77.2390   35.9120  -18.0220 C.ar   46  PHE46      -0.0003
     49  CZ        76.8090   37.0820  -18.5580 C.ar   46  PHE46      -0.0000
     50  N         77.2080   40.7300  -14.6580 N.3    64  ALA64      -0.1245
     51  CA        77.3730   39.5110  -13.9350 C.3    64  ALA64       0.1562
     52  C         78.5640   39.5840  -12.9920 C.2    64  ALA64       0.2260
     53  O         78.5190   39.0250  -11.8610 O.2    64  ALA64      -0.2867
     54  CB        77.5110   38.3720  -14.9220 C.3    64  ALA64       0.0290
     55  N         77.5830   41.4150  -10.0180 N.3    67  THR67      -0.1203
     56  CA        76.6850   40.6200   -9.1870 C.3    67  THR67       0.1994
     57  C         77.4390   39.5900   -8.3200 C.2    67  THR67       0.2617
     58  O         77.1800   39.4710   -7.0910 O.2    67  THR67      -0.2717
     59  CB        75.5960   39.9730  -10.0870 C.3    67  THR67       0.1784
     60  OG1       74.8120   40.9980  -10.6860 O.3    67  THR67      -0.2211
     61  CG2       74.7540   39.0900   -9.2830 C.3    67  THR67       0.0376
     62  N         78.2960   38.7950   -8.9420 N.am   68  VAL68      -0.1979
     63  CA        78.9840   37.7680   -8.2180 C.3    68  VAL68       0.1595
     64  C         79.8510   38.3110   -7.1070 C.2    68  VAL68       0.2287
     65  O         79.8870   37.8500   -5.9750 O.2    68  VAL68      -0.2864
     66  CB        79.8400   36.8400   -9.1590 C.3    68  VAL68       0.0276
     67  CG1       81.0060   37.4980   -9.8420 C.3    68  VAL68       0.0022
     68  CG2       80.2900   35.6350   -8.4070 C.3    68  VAL68       0.0022
     69  N         71.7420   27.9160   -6.9630 N.3    93  HIS93      -0.1241
     70  CA        72.8750   27.3050   -7.6510 C.3    93  HIS93       0.1621
     71  C         72.7500   25.7850   -7.7130 C.2    93  HIS93       0.2264
     72  O         73.1970   25.1480   -8.6700 O.2    93  HIS93      -0.2867
     73  CB        74.2370   27.7970   -7.1030 C.3    93  HIS93       0.0745
     74  CG        74.5150   29.2120   -7.5220 C.ar   93  HIS93       0.0817
     75  ND1       73.6530   30.2710   -7.2530 N.ar   93  HIS93      -0.2268
     76  CD2       75.4930   29.7120   -8.2940 C.ar   93  HIS93       0.1154
     77  CE1       74.1250   31.3770   -7.8370 C.ar   93  HIS93       0.1986
     78  NE2       75.2240   31.0520   -8.4970 N.ar   93  HIS93      -0.2212
     79  N         85.9350   29.0000   -9.6660 N.3   107  ILE107     -0.1301
     80  CA        85.7990   30.4790   -9.5640 C.3   107  ILE107      0.1246
     81  C         86.6460   30.9630   -8.4030 C.3   107  ILE107      0.2009
     82  O         87.1870   32.1310   -8.4530 O.3   107  ILE107     -0.2188
     83  CB        84.3120   30.9850   -9.5070 C.3   107  ILE107      0.0202
     84  CG1       84.2150   32.4430   -9.8800 C.3   107  ILE107      0.0015
     85  CG2       83.7520   30.7600   -8.1150 C.3   107  ILE107      0.0016
     86  CD1       82.8110   32.9490  -10.0990 C.3   107  ILE107      0.0000
@<TRIPOS>BOND
     1    42    41    2
     2    41    40    1
     3    31    30    2
     4    40    39    1
     5    40    43    1
     6    30    39   am
     7    30    29    1
     8    29    28    1
     9    29    32    1
    10    20    19    2
    11    43    44    1
    12    45    44   ar
    13    45    47   ar
    14    32    33    1
    15    19    18    1
    16    44    46   ar
    17    33    34    1
    18    47    49   ar
    19    18    21    1
    20    18    17    1
    21    46    48   ar
    22    21    22    1
    23    37    36    1
    24    49    48   ar
    25    34    35    1
    26    36    35    2
    27    36    38    1
    28    22    23   ar
    29    22    24   ar
    30    23    25   ar
    31     4     3    2
    32    12    11    2
    33    11    10    1
    34    24    26   ar
    35     3     2    1
    36    25    27   ar
    37     9    10    1
    38     5     2    1
    39     5     6    1
    40    26    27   ar
    41    10    13    1
    42     2     1    1
    43    54    51    1
    44    50    51    1
    45     7     6    1
    46    13    14    1
    47    14    16    1
    48    14    15    1
    49     6     8    1
    50    51    52    1
    51    52    53    2
    52    60    59    1
    53    86    84    1
    54    59    61    1
    55    59    56    1
    56    55    56    1
    57    84    83    1
    58    67    66    1
    59    79    80    1
    60    80    83    1
    61    80    81    1
    62    83    85    1
    63    56    57    1
    64    66    68    1
    65    66    63    1
    66    62    57   am
    67    62    63    1
    68    72    71    2
    69    78    76   ar
    70    78    77   ar
    71    82    81    1
    72    57    58    2
    73    76    74   ar
    74    63    64    1
    75    77    75   ar
    76    71    70    1
    77    70    73    1
    78    70    69    1
    79    74    75   ar
    80    74    73    1
    81    64    65    2
