@<TRIPOS>MOLECULE
tmp/5kd6A00.pdb
 181 168 0 0 0
SMALL
GASTEIGER

@<TRIPOS>ATOM
      1  N        102.9320   24.9450   55.6850 N.3    75  LEU75      -0.1245
      2  CA       102.5220   24.6890   57.0680 C.3    75  LEU75       0.1561
      3  C        103.6370   24.6340   58.0870 C.2    75  LEU75       0.2260
      4  O        103.3620   24.7160   59.2900 O.2    75  LEU75      -0.2867
      5  CB       101.7780   23.3630   57.2070 C.3    75  LEU75       0.0270
      6  CG       100.2960   23.4640   56.8610 C.3    75  LEU75       0.0019
      7  CD1       99.7410   22.0500   56.9030 C.3    75  LEU75       0.0001
      8  CD2       99.4960   24.3540   57.8090 C.3    75  LEU75       0.0001
      9  N        101.3260   20.0020   61.1710 N.3    83  GLU83      -0.1245
     10  CA       101.4700   20.6790   62.4930 C.3    83  GLU83       0.1567
     11  C        100.7210   19.9240   63.5600 C.2    83  GLU83       0.2260
     12  O         99.7720   19.1640   63.2730 O.2    83  GLU83      -0.2867
     13  CB       100.9470   22.1140   62.3940 C.3    83  GLU83       0.0388
     14  CG        99.4730   22.2230   62.0790 C.3    83  GLU83       0.1160
     15  CD        98.9380   23.6670   61.9710 C.2    83  GLU83       0.3649
     16  OE1       97.6880   23.8120   61.8480 O.co2  83  GLU83      -0.2457
     17  OE2       99.7320   24.6470   61.9790 O.co2  83  GLU83      -0.2457
     18  N         95.0270   22.8590   72.4880 N.3    87  LYS87      -0.1245
     19  CA        94.1400   23.9380   72.9430 C.3    87  LYS87       0.1561
     20  C         93.9530   23.7190   74.4210 C.2    87  LYS87       0.2260
     21  O         93.4200   22.6870   74.8400 O.2    87  LYS87      -0.2867
     22  CB        92.8230   23.9070   72.2110 C.3    87  LYS87       0.0271
     23  CG        91.6850   24.8030   72.7110 C.3    87  LYS87       0.0035
     24  CD        90.6630   25.0170   71.5770 C.3    87  LYS87       0.0206
     25  CE        89.4740   25.9220   71.9370 C.3    87  LYS87       0.1093
     26  NZ        88.7250   26.3280   70.7010 N.3    87  LYS87      -0.1314
     27  N         95.2210   18.5410   68.5050 N.3    96  ARG96      -0.1245
     28  CA        94.7130   18.7210   67.1670 C.3    96  ARG96       0.1563
     29  C         95.8300   18.5170   66.1220 C.2    96  ARG96       0.2260
     30  O         96.9790   18.8000   66.4100 O.2    96  ARG96      -0.2867
     31  CB        94.1050   20.0890   66.9980 C.3    96  ARG96       0.0307
     32  CG        93.0670   20.4540   68.0210 C.3    96  ARG96       0.0489
     33  CD        93.6250   21.3900   69.1070 C.3    96  ARG96       0.2205
     34  NE        94.1680   22.6130   68.4850 N.pl3  96  ARG96      -0.0865
     35  CZ        93.4520   23.5750   67.9550 C.cat  96  ARG96       0.5346
     36  NH1       92.1230   23.6100   68.0560 N.pl3  96  ARG96       0.1354
     37  NH2       94.0990   24.5490   67.3600 N.pl3  96  ARG96       0.1354
     38  N         93.5400   23.3410   53.3070 N.3   167  CYS167     -0.1235
     39  CA        94.1770   22.4970   54.2900 C.3   167  CYS167      0.1677
     40  C         93.1710   22.0160   55.3000 C.2   167  CYS167      0.2270
     41  O         92.0490   22.5130   55.3490 O.2   167  CYS167     -0.2867
     42  CB        95.3250   23.2030   54.9620 C.3   167  CYS167      0.0956
     43  SG        94.8290   24.5910   55.9010 S.3   167  CYS167     -0.0801
     44  N         92.2640   20.4260   59.3600 N.3   169  SER169     -0.1217
     45  CA        92.6520   20.1850   60.7870 C.3   169  SER169      0.1889
     46  C         91.7430   19.1020   61.3250 C.2   169  SER169      0.2288
     47  O         90.6320   18.9170   60.8560 O.2   169  SER169     -0.2866
     48  CB        92.4520   21.4090   61.7180 C.3   169  SER169      0.2089
     49  OG        93.4320   22.3440   61.3690 O.3   169  SER169     -0.2183
     50  N         90.4130   17.8330   65.0360 N.3   171  ASP171     -0.1239
     51  CA        90.3870   17.9740   66.5310 C.3   171  ASP171      0.1674
     52  C         90.2180   16.5950   67.1440 C.2   171  ASP171      0.2266
     53  O         89.2770   15.8350   66.7970 O.2   171  ASP171     -0.2867
     54  CB        89.1930   18.8390   67.0030 C.3   171  ASP171      0.1410
     55  CG        89.3640   20.3640   66.8000 C.2   171  ASP171      0.3668
     56  OD1       90.2550   20.9050   66.1220 O.co2 171  ASP171     -0.2456
     57  OD2       88.5060   21.0790   67.3660 O.co2 171  ASP171     -0.2456
     58  N         88.0110   19.9350   60.1990 N.3   180  LYS180     -0.1245
     59  CA        87.7490   21.2790   59.8370 C.3   180  LYS180      0.1561
     60  C         88.6250   21.4860   58.6060 C.2   180  LYS180      0.2260
     61  O         89.6190   20.7920   58.4270 O.2   180  LYS180     -0.2867
     62  CB        88.1810   22.2330   60.9930 C.3   180  LYS180      0.0271
     63  CG        87.7570   21.7520   62.3730 C.3   180  LYS180      0.0035
     64  CD        88.1000   22.7200   63.5210 C.3   180  LYS180      0.0206
     65  CE        89.5980   22.9320   63.6250 C.3   180  LYS180      0.1093
     66  NZ        90.1120   23.3200   64.9810 N.3   180  LYS180     -0.1314
     67  N         90.1690   24.7410   55.7950 N.3   182  TYR182     -0.1241
     68  CA        90.3440   26.1290   55.5140 C.3   182  TYR182      0.1605
     69  C         90.7080   26.2560   54.0610 C.2   182  TYR182      0.2264
     70  O         91.5460   25.5090   53.5780 O.2   182  TYR182     -0.2867
     71  CB        91.4200   26.7460   56.3720 C.3   182  TYR182      0.0534
     72  CG        91.0120   27.1480   57.7850 C.ar  182  TYR182     -0.0201
     73  CD1       91.1530   26.2610   58.8240 C.ar  182  TYR182     -0.0009
     74  CD2       90.5760   28.4180   58.0820 C.ar  182  TYR182     -0.0009
     75  CE1       90.8370   26.5970   60.1310 C.ar  182  TYR182      0.0417
     76  CE2       90.2440   28.7680   59.3900 C.ar  182  TYR182      0.0417
     77  CZ        90.3850   27.8570   60.4040 C.ar  182  TYR182      0.1957
     78  OH        90.0870   28.1800   61.7120 O.3   182  TYR182     -0.2866
     79  N         91.6510   33.4020   54.3410 N.3   244  LEU244     -0.1245
     80  CA        91.1780   32.0240   54.5160 C.3   244  LEU244      0.1561
     81  C         89.7380   32.0380   54.9670 C.2   244  LEU244      0.2260
     82  O         89.3190   32.9270   55.7420 O.2   244  LEU244     -0.2867
     83  CB        91.9410   31.2540   55.5820 C.3   244  LEU244      0.0270
     84  CG        93.3940   30.8800   55.6750 C.3   244  LEU244      0.0019
     85  CD1       93.5580   30.1340   56.9960 C.3   244  LEU244      0.0001
     86  CD2       93.6620   30.0280   54.4310 C.3   244  LEU244      0.0001
     87  N         80.7450   26.2140   62.4960 N.3   256  ARG256     -0.1245
     88  CA        81.2530   27.5740   62.5700 C.3   256  ARG256      0.1563
     89  C         81.9050   27.9880   61.2580 C.2   256  ARG256      0.2260
     90  O         82.7190   27.2430   60.7170 O.2   256  ARG256     -0.2867
     91  CB        82.3040   27.7370   63.6720 C.3   256  ARG256      0.0307
     92  CG        81.8280   27.3990   65.0810 C.3   256  ARG256      0.0489
     93  CD        83.0020   27.1730   66.0350 C.3   256  ARG256      0.2205
     94  NE        83.7310   25.9400   65.6410 N.pl3 256  ARG256     -0.0865
     95  CZ        85.0580   25.7530   65.6470 C.cat 256  ARG256      0.5346
     96  NH1       85.9230   26.7000   66.0770 N.pl3 256  ARG256      0.1354
     97  NH2       85.5410   24.5820   65.2380 N.pl3 256  ARG256      0.1354
     98  N         84.4560   30.6070   59.6550 N.3   258  LYS258     -0.1245
     99  CA        85.5580   31.4140   60.1520 C.3   258  LYS258      0.1561
    100  C         86.1200   32.2310   59.0170 C.2   258  LYS258      0.2260
    101  O         86.3430   31.7030   57.8920 O.2   258  LYS258     -0.2867
    102  CB        86.6250   30.5210   60.7250 C.3   258  LYS258      0.0271
    103  CG        86.0690   29.5650   61.7820 C.3   258  LYS258      0.0035
    104  CD        87.2010   28.6870   62.1840 C.3   258  LYS258      0.0206
    105  CE        86.7900   27.5460   63.0610 C.3   258  LYS258      0.1093
    106  NZ        88.0160   26.7050   63.2360 N.3   258  LYS258     -0.1314
    107  N         89.3680   34.4960   58.3230 N.3   260  TYR260     -0.1241
    108  CA        90.7090   34.6860   58.9180 C.3   260  TYR260      0.1605
    109  C         91.4130   35.8140   58.1920 C.2   260  TYR260      0.2264
    110  O         91.6990   35.6890   56.9940 O.2   260  TYR260     -0.2867
    111  CB        91.5520   33.4050   58.7490 C.3   260  TYR260      0.0534
    112  CG        92.9310   33.3180   59.3690 C.ar  260  TYR260     -0.0201
    113  CD1       94.0900   33.7100   58.6570 C.ar  260  TYR260     -0.0009
    114  CD2       93.1130   32.7880   60.6400 C.ar  260  TYR260     -0.0009
    115  CE1       95.3560   33.5780   59.2100 C.ar  260  TYR260      0.0417
    116  CE2       94.3870   32.6430   61.1920 C.ar  260  TYR260      0.0417
    117  CZ        95.4870   33.0280   60.4660 C.ar  260  TYR260      0.1957
    118  OH        96.7000   32.8950   61.0580 O.3   260  TYR260     -0.2866
    119  N         90.8950   35.7650   63.5780 N.3   307  ASN307     -0.1240
    120  CA        89.8760   34.8090   63.1490 C.3   307  ASN307      0.1653
    121  C         88.5230   35.1360   63.7730 C.2   307  ASN307      0.2266
    122  O         88.3580   35.0030   64.9290 O.2   307  ASN307     -0.2867
    123  CB        90.3060   33.4130   63.5640 C.3   307  ASN307      0.1155
    124  CG        89.8410   32.3120   62.6270 C.2   307  ASN307      0.2627
    125  OD1       89.4600   32.5480   61.5200 O.2   307  ASN307     -0.2716
    126  ND2       89.9350   31.0820   63.0920 N.am  307  ASN307     -0.0877
    127  N         89.5780   35.1800   67.5750 N.3   321  GLN321     -0.1245
    128  CA        90.7950   34.5710   68.0630 C.3   321  GLN321      0.1566
    129  C         91.9820   35.2780   67.3990 C.2   321  GLN321      0.2260
    130  O         91.9350   35.5380   66.1990 O.2   321  GLN321     -0.2867
    131  CB        90.7860   33.0990   67.8000 C.3   321  GLN321      0.0367
    132  CG        91.9720   32.3380   68.2670 C.3   321  GLN321      0.0905
    133  CD        91.5850   30.8980   68.5160 C.2   321  GLN321      0.2608
    134  OE1       91.3560   30.5110   69.6340 O.2   321  GLN321     -0.2717
    135  NE2       91.3630   30.1520   67.4540 N.am  321  GLN321     -0.0878
    136  N         96.0410   35.2570   66.6080 N.3   323  TYR323     -0.1241
    137  CA        97.1750   34.3160   66.4750 C.3   323  TYR323      0.1605
    138  C         98.4770   35.0810   66.4140 C.2   323  TYR323      0.2264
    139  O         98.6820   35.8690   65.5010 O.2   323  TYR323     -0.2867
    140  CB        97.0940   33.5080   65.2010 C.3   323  TYR323      0.0534
    141  CG        95.8950   32.6440   65.1700 C.ar  323  TYR323     -0.0201
    142  CD1       94.6790   33.2140   64.8740 C.ar  323  TYR323     -0.0009
    143  CD2       95.9410   31.2870   65.4510 C.ar  323  TYR323     -0.0009
    144  CE1       93.5440   32.4670   64.8580 C.ar  323  TYR323      0.0417
    145  CE2       94.7530   30.5120   65.4240 C.ar  323  TYR323      0.0417
    146  CZ        93.5830   31.1430   65.0980 C.ar  323  TYR323      0.1957
    147  OH        92.3270   30.5720   65.0250 O.3   323  TYR323     -0.2866
    148  N        102.8860   29.1850   66.1160 N.3   376  TRP376     -0.1241
    149  CA       101.8050   30.0890   66.3610 C.3   376  TRP376      0.1605
    150  C        101.2860   29.9230   67.7840 C.2   376  TRP376      0.2264
    151  O        101.2740   28.8300   68.3580 O.2   376  TRP376     -0.2867
    152  CB       100.6020   29.7580   65.4360 C.3   376  TRP376      0.0550
    153  CG       100.8630   29.7120   63.9770 C.ar  376  TRP376      0.0003
    154  CD1      101.0790   28.6090   63.1700 C.ar  376  TRP376      0.0946
    155  CD2      100.8300   30.8130   63.1460 C.ar  376  TRP376      0.0152
    156  NE1      101.2170   29.0050   61.8480 N.ar  376  TRP376     -0.2442
    157  CE2      101.0570   30.3590   61.8120 C.ar  376  TRP376      0.0810
    158  CE3      100.5910   32.1570   63.3800 C.ar  376  TRP376      0.0012
    159  CZ2      101.1160   31.2220   60.7450 C.ar  376  TRP376      0.0191
    160  CZ3      100.6150   32.9930   62.3170 C.ar  376  TRP376      0.0001
    161  CH2      100.8800   32.5230   61.0040 C.ar  376  TRP376      0.0015
    162  N         95.7880   28.3020   72.1080 N.3   390  ASN390     -0.1240
    163  CA        96.0940   27.2620   71.1190 C.3   390  ASN390      0.1653
    164  C         97.5880   27.4290   70.8360 C.2   390  ASN390      0.2266
    165  O         98.0040   28.5250   70.4020 O.2   390  ASN390     -0.2867
    166  CB        95.3600   27.5210   69.7910 C.3   390  ASN390      0.1155
    167  CG        93.8590   27.3370   69.8550 C.2   390  ASN390      0.2627
    168  OD1       93.3260   26.9240   70.8360 O.2   390  ASN390     -0.2716
    169  ND2       93.1750   27.6060   68.7320 N.am  390  ASN390     -0.0877
    170  N        100.6080   26.0150   68.4680 N.3   392  TYR392     -0.1241
    171  CA       100.8490   25.2150   67.2450 C.3   392  TYR392      0.1605
    172  C        102.3170   24.9150   67.1010 C.2   392  TYR392      0.2264
    173  O        103.1720   25.8670   67.0370 O.2   392  TYR392     -0.2867
    174  CB       100.3940   26.0200   66.0730 C.3   392  TYR392      0.0534
    175  CG        98.8920   26.2830   66.0530 C.ar  392  TYR392     -0.0201
    176  CD1       98.3400   27.2580   66.8760 C.ar  392  TYR392     -0.0009
    177  CD2       98.0050   25.5480   65.2290 C.ar  392  TYR392     -0.0009
    178  CE1       97.0150   27.5610   66.8580 C.ar  392  TYR392      0.0417
    179  CE2       96.6140   25.8110   65.2770 C.ar  392  TYR392      0.0417
    180  CZ        96.1590   26.8330   66.0940 C.ar  392  TYR392      0.1957
    181  OH        94.8460   27.2200   66.1770 O.3   392  TYR392     -0.2866
@<TRIPOS>BOND
     1    38    39    1
     2    70    69    2
     3    69    68    1
     4    39    42    1
     5    39    40    1
     6    79    80    1
     7    86    84    1
     8    80    81    1
     9    80    83    1
    10    42    43    1
    11    81    82    2
    12    40    41    2
    13    68    67    1
    14    68    71    1
    15    83    84    1
    16    84    85    1
    17     1     2    1
    18    71    72    1
    19     6     7    1
    20     6     5    1
    21     6     8    1
    22   110   109    2
    23     2     5    1
    24     2     3    1
    25    72    74   ar
    26    72    73   ar
    27   101   100    2
    28    74    76   ar
    29     3     4    2
    30   109   108    1
    31   107   108    1
    32    61    60    2
    33    60    59    1
    34   113   115   ar
    35   113   112   ar
    36   111   108    1
    37   111   112    1
    38    73    75   ar
    39   100    99    1
    40   115   117   ar
    41    44    45    1
    42   112   114   ar
    43    76    77   ar
    44    98    99    1
    45    59    58    1
    46    59    62    1
    47    75    77   ar
    48    99   102    1
    49    77    78    1
    50   117   118    1
    51   117   116   ar
    52   114   116   ar
    53    90    89    2
    54   102   103    1
    55   159   161   ar
    56   159   157   ar
    57    45    46    1
    58    45    48    1
    59    47    46    2
    60    62    63    1
    61   161   160   ar
    62     9    10    1
    63    89    88    1
    64    49    48    1
    65   125   124    2
    66   103   104    1
    67   157   156   ar
    68   157   155   ar
    69    16    15   ar
    70   156   154   ar
    71    15    17   ar
    72    15    14    1
    73    14    13    1
    74   104   105    1
    75   160   158   ar
    76    63    64    1
    77    13    10    1
    78    10    11    1
    79    87    88    1
    80    88    91    1
    81   124   126   am
    82   124   123    1
    83   105   106    1
    84   155   158   ar
    85   155   153   ar
    86   120   123    1
    87   120   119    1
    88   120   121    1
    89   154   153   ar
    90    12    11    2
    91    64    65    1
    92    65    66    1
    93    91    92    1
    94   121   122    2
    95   153   152    1
    96   144   142   ar
    97   144   146   ar
    98   142   141   ar
    99   147   146    1
   100    50    51    1
   101    92    93    1
   102   146   145   ar
   103   141   140    1
   104   141   143   ar
   105   140   137    1
   106   177   179   ar
   107   177   175   ar
   108    97    95    1
   109   179   180   ar
   110   145   143   ar
   111   152   149    1
   112   139   138    2
   113    94    95    2
   114    94    93    1
   115    95    96    1
   116   175   174    1
   117   175   176   ar
   118   174   171    1
   119   180   181    1
   120   180   178   ar
   121   148   149    1
   122    29    30    2
   123    29    28    1
   124    56    55   ar
   125   130   129    2
   126   149   150    1
   127   138   137    1
   128   137   136    1
   129    51    54    1
   130    51    52    1
   131    53    52    2
   132    55    54    1
   133    55    57   ar
   134   178   176   ar
   135    31    28    1
   136    31    32    1
   137   173   172    2
   138   172   171    1
   139    28    27    1
   140   171   170    1
   141    37    35    1
   142   129   128    1
   143   135   133   am
   144   127   128    1
   145   150   151    2
   146   131   128    1
   147   131   132    1
   148    35    36    1
   149    35    34    2
   150    32    33    1
   151   132   133    1
   152    34    33    1
   153   133   134    2
   154   169   167   am
   155   166   167    1
   156   166   163    1
   157   167   168    2
   158   165   164    2
   159    26    25    1
   160   164   163    1
   161   163   162    1
   162    24    25    1
   163    24    23    1
   164    22    23    1
   165    22    19    1
   166    18    19    1
   167    19    20    1
   168    20    21    2
