@<TRIPOS>MOLECULE
tmp/5kd6B00.pdb
 176 168 0 0 0
SMALL
GASTEIGER

@<TRIPOS>ATOM
      1  N         69.7420    1.1650   39.5100 N.3    74  GLY74      -0.1210
      2  CA        68.5610    1.2720   38.6350 C.3    74  GLY74       0.1956
      3  C         68.9080    1.5520   37.1930 C.2    74  GLY74       0.2611
      4  O         67.9760    1.7600   36.3850 O.2    74  GLY74      -0.2717
      5  N         70.1990    1.5540   36.8420 N.am   75  LEU75      -0.1979
      6  CA        70.5860    1.8260   35.4450 C.3    75  LEU75       0.1596
      7  C         70.2570    0.7120   34.4710 C.2    75  LEU75       0.2287
      8  O         70.2460    0.9630   33.2840 O.2    75  LEU75      -0.2864
      9  CB        72.0540    2.1410   35.3410 C.3    75  LEU75       0.0297
     10  CG        72.5040    3.5690   35.5970 C.3    75  LEU75       0.0022
     11  CD1       74.0210    3.5870   35.8110 C.3    75  LEU75       0.0001
     12  CD2       72.0820    4.5180   34.4670 C.3    75  LEU75       0.0001
     13  N         75.2480    1.4600   31.4050 N.3    83  GLU83      -0.1245
     14  CA        74.5930    1.4730   30.1080 C.3    83  GLU83       0.1567
     15  C         75.5480    1.9680   29.0740 C.2    83  GLU83       0.2260
     16  O         76.5380    2.6580   29.4070 O.2    83  GLU83      -0.2867
     17  CB        73.2850    2.3090   30.1720 C.3    83  GLU83       0.0388
     18  CG        73.5980    3.7660   30.3680 C.3    83  GLU83       0.1160
     19  CD        72.3960    4.6950   30.5590 C.2    83  GLU83       0.3649
     20  OE1       72.6890    5.9090   30.6320 O.co2  83  GLU83      -0.2457
     21  OE2       71.2580    4.2190   30.6070 O.co2  83  GLU83      -0.2457
     22  N         77.0210    4.3030   37.3990 N.3   100  GLN100     -0.1245
     23  CA        77.2970    4.7870   38.7830 C.3   100  GLN100      0.1566
     24  C         78.6070    4.1920   39.2130 C.2   100  GLN100      0.2260
     25  O         78.8570    2.9840   38.9950 O.2   100  GLN100     -0.2867
     26  CB        76.2400    4.2750   39.7160 C.3   100  GLN100      0.0367
     27  CG        74.9240    4.9500   39.4940 C.3   100  GLN100      0.0905
     28  CD        73.9510    4.5260   40.5530 C.2   100  GLN100      0.2608
     29  OE1       73.9260    5.1190   41.6720 O.2   100  GLN100     -0.2717
     30  NE2       73.1990    3.4990   40.2890 N.am  100  GLN100     -0.0878
     31  N         62.7040    2.5890   46.9240 N.3   159  ILE159     -0.1245
     32  CA        63.0670    1.2480   46.4570 C.3   159  ILE159      0.1561
     33  C         64.5870    1.1170   46.2590 C.2   159  ILE159      0.2260
     34  O         65.2480    2.0920   45.8990 O.2   159  ILE159     -0.2867
     35  CB        62.3440    0.8230   45.1490 C.3   159  ILE159      0.0252
     36  CG1       62.4650    1.9010   44.0440 C.3   159  ILE159      0.0019
     37  CG2       60.8820    0.4910   45.4340 C.3   159  ILE159      0.0019
     38  CD1       62.4130    1.3350   42.6420 C.3   159  ILE159      0.0001
     39  N         66.4830    0.1500   43.9940 N.3   161  GLU161     -0.1231
     40  CA        67.0150    0.6470   42.7000 C.3   161  GLU161      0.1699
     41  C         67.0050    2.1880   42.5980 C.2   161  GLU161      0.2592
     42  O         67.4020    2.7500   41.5630 O.2   161  GLU161     -0.2718
     43  CB        66.2000    0.0680   41.5190 C.3   161  GLU161      0.0402
     44  CG        66.3050   -1.4310   41.3150 C.3   161  GLU161      0.1161
     45  CD        65.4830   -2.2840   42.2800 C.2   161  GLU161      0.3649
     46  OE1       64.6280   -1.7430   43.0550 O.co2 161  GLU161     -0.2457
     47  OE2       65.7320   -3.5230   42.2800 O.co2 161  GLU161     -0.2457
     48  N         66.5460    2.8760   43.6620 N.am  162  SER162     -0.1952
     49  CA        66.5600    4.3440   43.6960 C.3   162  SER162      0.1924
     50  C         67.3280    4.8910   44.8800 C.2   162  SER162      0.2314
     51  O         67.2180    6.0600   45.2060 O.2   162  SER162     -0.2863
     52  CB        65.1390    4.9010   43.6770 C.3   162  SER162      0.2116
     53  OG        64.5640    4.4990   42.4600 O.3   162  SER162     -0.2180
     54  N         70.0990    6.2330   45.1790 N.3   164  ASN164     -0.1225
     55  CA        71.2070    6.9510   44.4770 C.3   164  ASN164      0.1785
     56  C         71.0960    8.4410   44.6570 C.2   164  ASN164      0.2597
     57  O         70.0050    8.9730   44.8870 O.2   164  ASN164     -0.2718
     58  CB        71.2110    6.5950   42.9680 C.3   164  ASN164      0.1169
     59  CG        69.8400    6.7870   42.2950 C.2   164  ASN164      0.2627
     60  OD1       69.1930    5.8290   41.8990 O.2   164  ASN164     -0.2716
     61  ND2       69.4010    8.0280   42.1680 N.am  164  ASN164     -0.0877
     62  N         72.2290    9.1310   44.6050 N.am  165  ILE165     -0.1966
     63  CA        72.2890   10.5820   44.6800 C.3   165  ILE165      0.1727
     64  C         72.8580   11.1250   43.3600 C.2   165  ILE165      0.2616
     65  O         72.4940   12.2180   42.9480 O.2   165  ILE165     -0.2715
     66  CB        73.1600   11.0860   45.8800 C.3   165  ILE165      0.0290
     67  CG1       72.3760   11.0740   47.1950 C.3   165  ILE165      0.0022
     68  CG2       73.6070   12.5430   45.7230 C.3   165  ILE165      0.0023
     69  CD1       71.4040   12.2330   47.3310 C.3   165  ILE165      0.0001
     70  N         73.7700   10.3910   42.7000 N.am  166  VAL166     -0.1963
     71  CA        74.4070   10.9380   41.4890 C.3   166  VAL166      0.1727
     72  C         74.6560    9.7910   40.5310 C.2   166  VAL166      0.2616
     73  O         74.6640    8.6220   40.9660 O.2   166  VAL166     -0.2715
     74  CB        75.6960   11.7470   41.8510 C.3   166  VAL166      0.0290
     75  CG1       76.7810   10.8510   42.4050 C.3   166  VAL166      0.0023
     76  CG2       76.2790   12.5060   40.6570 C.3   166  VAL166      0.0023
     77  N         74.8300   10.1110   39.2630 N.am  167  CYS167     -0.1968
     78  CA        75.3330    9.1400   38.3060 C.3   167  CYS167      0.1712
     79  C         76.1150    9.8940   37.2770 C.2   167  CYS167      0.2296
     80  O         76.0020   11.1230   37.2080 O.2   167  CYS167     -0.2864
     81  CB        74.2020    8.3370   37.6940 C.3   167  CYS167      0.0983
     82  SG        72.9700    9.2070   36.7650 S.3   167  CYS167     -0.0798
     83  N         74.4340   13.6720   36.7450 N.3   182  TYR182     -0.1241
     84  CA        73.0850   14.0250   37.1470 C.3   182  TYR182      0.1605
     85  C         73.0040   13.7630   38.6280 C.2   182  TYR182      0.2264
     86  O         73.6130   12.8230   39.1700 O.2   182  TYR182     -0.2867
     87  CB        71.9930   13.2480   36.4190 C.3   182  TYR182      0.0534
     88  CG        71.7190   13.6910   34.9800 C.ar  182  TYR182     -0.0201
     89  CD1       72.4230   13.1520   33.9260 C.ar  182  TYR182     -0.0009
     90  CD2       70.7090   14.6180   34.6810 C.ar  182  TYR182     -0.0009
     91  CE1       72.1770   13.5420   32.6230 C.ar  182  TYR182      0.0417
     92  CE2       70.4250   14.9840   33.3860 C.ar  182  TYR182      0.0417
     93  CZ        71.1650   14.4510   32.3550 C.ar  182  TYR182      0.1957
     94  OH        70.8500   14.8140   31.0650 O.3   182  TYR182     -0.2866
     95  N         70.3040   13.4940   41.8600 N.3   184  SER184     -0.1217
     96  CA        68.9690   13.1660   42.2820 C.3   184  SER184      0.1889
     97  C         68.4660   14.1450   43.3520 C.2   184  SER184      0.2288
     98  O         69.1580   14.4070   44.2960 O.2   184  SER184     -0.2866
     99  CB        68.9380   11.7080   42.7350 C.3   184  SER184      0.2089
    100  OG        67.6070   11.3910   43.1040 O.3   184  SER184     -0.2183
    101  N         65.9210   15.2620   38.4700 N.3   244  LEU244     -0.1245
    102  CA        67.3600   15.3180   38.2850 C.3   244  LEU244      0.1561
    103  C         67.8040   16.6830   37.8470 C.2   244  LEU244      0.2260
    104  O         67.0920   17.4120   37.1010 O.2   244  LEU244     -0.2867
    105  CB        67.8540   14.3230   37.2250 C.3   244  LEU244      0.0270
    106  CG        67.5140   12.8480   37.3720 C.3   244  LEU244      0.0019
    107  CD1       67.8550   12.1670   36.0390 C.3   244  LEU244      0.0001
    108  CD2       68.3540   12.2450   38.4870 C.3   244  LEU244      0.0001
    109  N         65.5600   17.8950   34.6400 N.3   260  TYR260     -0.1241
    110  CA        64.9130   16.6910   34.1510 C.3   260  TYR260      0.1605
    111  C         63.6300   16.4470   34.9080 C.2   260  TYR260      0.2264
    112  O         63.6490   16.2920   36.1450 O.2   260  TYR260     -0.2867
    113  CB        65.8980   15.5060   34.3380 C.3   260  TYR260      0.0534
    114  CG        65.5530   14.1760   33.7020 C.ar  260  TYR260     -0.0201
    115  CD1       64.6940   13.2680   34.3620 C.ar  260  TYR260     -0.0009
    116  CD2       66.1560   13.7480   32.4910 C.ar  260  TYR260     -0.0009
    117  CE1       64.3740   12.0000   33.8240 C.ar  260  TYR260      0.0417
    118  CE2       65.8040   12.4710   31.9440 C.ar  260  TYR260      0.0417
    119  CZ        64.9300   11.6070   32.6330 C.ar  260  TYR260      0.1957
    120  OH        64.5870   10.3420   32.1990 O.3   260  TYR260     -0.2866
    121  N         60.4080   13.8480   35.4920 N.3   262  ALA262     -0.1245
    122  CA        59.9690   12.4530   35.3160 C.3   262  ALA262      0.1562
    123  C         58.4910   12.4550   35.4510 C.2   262  ALA262      0.2260
    124  O         57.9360   13.1740   36.3150 O.2   262  ALA262     -0.2867
    125  CB        60.5670   11.5050   36.3640 C.3   262  ALA262      0.0290
    126  N         54.9150    9.6820   34.6420 N.3   264  PHE264     -0.1241
    127  CA        54.3600    8.4020   34.2590 C.3   264  PHE264      0.1605
    128  C         53.2500    8.5230   33.2230 C.2   264  PHE264      0.2264
    129  O         52.9320    7.5460   32.5810 O.2   264  PHE264     -0.2867
    130  CB        53.9200    7.5970   35.4770 C.3   264  PHE264      0.0534
    131  CG        55.0800    7.0310   36.2260 C.ar  264  PHE264     -0.0203
    132  CD1       55.7030    5.8560   35.7980 C.ar  264  PHE264     -0.0042
    133  CD2       55.5910    7.6930   37.3410 C.ar  264  PHE264     -0.0042
    134  CE1       56.7980    5.3390   36.4920 C.ar  264  PHE264     -0.0003
    135  CE2       56.7050    7.1830   38.0200 C.ar  264  PHE264     -0.0003
    136  CZ        57.2830    6.0020   37.6000 C.ar  264  PHE264     -0.0000
    137  N         59.1940    2.2110   34.2610 N.3   301  LEU301     -0.1231
    138  CA        60.0890    3.3480   34.1090 C.3   301  LEU301      0.1678
    139  C         59.2730    4.6220   33.7000 C.2   301  LEU301      0.2434
    140  O         58.3280    4.5030   32.9120 O.2   301  LEU301     -0.2733
    141  CB        61.1300    3.0850   33.0110 C.3   301  LEU301      0.0284
    142  CG        62.0850    1.9270   33.2630 C.3   301  LEU301      0.0019
    143  CD1       63.1150    1.8570   32.1640 C.3   301  LEU301      0.0001
    144  CD2       62.7500    2.1550   34.6050 C.3   301  LEU301      0.0001
    145  N         59.6790    5.8100   34.1850 N.am  302  PRO302     -0.2729
    146  CA        58.9310    7.0150   33.8060 C.3   302  PRO302      0.1401
    147  C         59.3980    7.5350   32.4670 C.2   302  PRO302      0.2269
    148  O         60.4980    7.2420   32.0540 O.2   302  PRO302     -0.2865
    149  CB        59.2040    7.9660   34.9930 C.3   302  PRO302      0.0296
    150  CG        60.5910    7.5880   35.4220 C.3   302  PRO302      0.0237
    151  CD        60.7140    6.1200   35.1920 C.3   302  PRO302      0.0939
    152  N         66.7920    0.0250   26.4000 N.3   374  ARG374     -0.1231
    153  CA        66.1510    0.4890   27.5940 C.3   374  ARG374      0.1694
    154  C         65.4460    1.8590   27.4510 C.2   374  ARG374      0.2592
    155  O         64.3980    2.0600   28.0580 O.2   374  ARG374     -0.2718
    156  CB        67.1820    0.5520   28.7470 C.3   374  ARG374      0.0321
    157  CG        66.5580    0.7140   30.1090 C.3   374  ARG374      0.0489
    158  CD        67.6090    0.4910   31.2180 C.3   374  ARG374      0.2205
    159  NE        67.1150    0.7340   32.5860 N.pl3 374  ARG374     -0.0865
    160  CZ        66.4400   -0.1220   33.3290 C.cat 374  ARG374      0.5346
    161  NH1       66.0780   -1.3010   32.8600 N.pl3 374  ARG374      0.1354
    162  NH2       66.0860    0.2260   34.5560 N.pl3 374  ARG374      0.1354
    163  N         66.0970    2.8010   26.7680 N.am  375  TRP375     -0.1976
    164  CA        65.5980    4.1160   26.5630 C.3   375  TRP375      0.1640
    165  C         65.8940    4.6120   25.1840 C.2   375  TRP375      0.2290
    166  O         66.9010    4.2910   24.5240 O.2   375  TRP375     -0.2864
    167  CB        66.2760    5.1390   27.5060 C.3   375  TRP375      0.0576
    168  CG        66.1080    4.9000   28.9420 C.ar  375  TRP375      0.0006
    169  CD1       66.9900    4.2410   29.7820 C.ar  375  TRP375      0.0946
    170  CD2       65.0890    5.4240   29.7620 C.ar  375  TRP375      0.0152
    171  NE1       66.5260    4.3020   31.0710 N.ar  375  TRP375     -0.2442
    172  CE2       65.3620    5.0190   31.0880 C.ar  375  TRP375      0.0810
    173  CE3       63.9540    6.2110   29.5130 C.ar  375  TRP375      0.0012
    174  CZ2       64.5440    5.3820   32.1690 C.ar  375  TRP375      0.0191
    175  CZ3       63.1200    6.5490   30.5880 C.ar  375  TRP375      0.0001
    176  CH2       63.4080    6.1120   31.8880 C.ar  375  TRP375      0.0015
@<TRIPOS>BOND
     1   166   165    2
     2   165   164    1
     3   152   153    1
     4   164   163    1
     5   164   167    1
     6   163   154   am
     7   154   153    1
     8   154   155    2
     9   167   168    1
    10   153   156    1
    11   156   157    1
    12   168   170   ar
    13   168   169   ar
    14    15    16    2
    15    15    14    1
    16   173   170   ar
    17   173   175   ar
    18   170   172   ar
    19   169   171   ar
    20    14    17    1
    21    14    13    1
    22   157   158    1
    23    17    18    1
    24    18    19    1
    25    19    21   ar
    26    19    20   ar
    27   175   176   ar
    28    94    93    1
    29   171   172   ar
    30   172   174   ar
    31   158   159    1
    32   176   174   ar
    33   118   116   ar
    34   118   119   ar
    35   148   147    2
    36   143   142    1
    37   120   119    1
    38    93    91   ar
    39    93    92   ar
    40   147   146    1
    41   116   114   ar
    42   129   128    2
    43   159   160    2
    44    91    89   ar
    45   119   117   ar
    46   161   160    1
    47   140   139    2
    48   141   142    1
    49   141   138    1
    50   128   127    1
    51   142   144    1
    52     8     7    2
    53   160   162    1
    54    92    90   ar
    55   139   138    1
    56   139   145   am
    57   114   113    1
    58   114   115   ar
    59   146   145    1
    60   146   149    1
    61   117   115   ar
    62    89    88   ar
    63   138   137    1
    64   110   113    1
    65   110   109    1
    66   110   111    1
    67   145   151    1
    68   127   126    1
    69   127   130    1
    70    12    10    1
    71     7     6    1
    72    90    88   ar
    73   111   112    2
    74    88    87    1
    75   149   150    1
    76   151   150    1
    77   122   123    1
    78   122   121    1
    79   122   125    1
    80     9     6    1
    81     9    10    1
    82     6     5    1
    83   123   124    2
    84   130   131    1
    85    10    11    1
    86   132   131   ar
    87   132   134   ar
    88   107   106    1
    89   131   133   ar
    90     4     3    2
    91    87    84    1
    92   134   136   ar
    93    83    84    1
    94    82    81    1
    95     5     3   am
    96   104   103    2
    97    84    85    1
    98     3     2    1
    99    80    79    2
   100   105   106    1
   101   105   102    1
   102    79    78    1
   103   133   135   ar
   104   106   108    1
   105    22    23    1
   106   136   135   ar
   107    81    78    1
   108   103   102    1
   109   102   101    1
   110    78    77    1
   111    85    86    2
   112     2     1    1
   113    23    24    1
   114    23    26    1
   115    25    24    2
   116    77    72   am
   117    27    26    1
   118    27    28    1
   119    30    28   am
   120    72    73    2
   121    72    71    1
   122    28    29    2
   123    76    74    1
   124    44    43    1
   125    44    45    1
   126    71    74    1
   127    71    70    1
   128    43    40    1
   129    42    41    2
   130    74    75    1
   131    95    96    1
   132    60    59    2
   133    61    59   am
   134    45    47   ar
   135    45    46   ar
   136    96    99    1
   137    96    97    1
   138    59    58    1
   139    53    52    1
   140    41    40    1
   141    41    48   am
   142    38    36    1
   143    40    39    1
   144    70    64   am
   145    99   100    1
   146    65    64    2
   147    58    55    1
   148    97    98    2
   149    64    63    1
   150    48    49    1
   151    52    49    1
   152    49    50    1
   153    36    35    1
   154    55    56    1
   155    55    54    1
   156    62    56   am
   157    62    63    1
   158    56    57    2
   159    63    66    1
   160    50    51    2
   161    35    37    1
   162    35    32    1
   163    68    66    1
   164    66    67    1
   165    34    33    2
   166    33    32    1
   167    32    31    1
   168    67    69    1
