@<TRIPOS>MOLECULE
tmp/5kd8A00.pdb
 172 170 0 0 0
SMALL
GASTEIGER

@<TRIPOS>ATOM
      1  N          2.3360   14.9600   17.8410 N.3   218  TYR218     -0.1227
      2  CA         1.0130   15.0710   17.2330 C.3   218  TYR218      0.1736
      3  C          0.7240   13.7690   16.4710 C.2   218  TYR218      0.2595
      4  O          0.0260   12.9120   16.9900 O.2   218  TYR218     -0.2718
      5  CB         0.9010   16.3220   16.3250 C.3   218  TYR218      0.0548
      6  CG        -0.4000   16.4350   15.5140 C.ar  218  TYR218     -0.0200
      7  CD1       -1.6310   16.6430   16.1280 C.ar  218  TYR218     -0.0009
      8  CD2       -0.3790   16.3380   14.1120 C.ar  218  TYR218     -0.0009
      9  CE1       -2.8150   16.7500   15.3770 C.ar  218  TYR218      0.0417
     10  CE2       -1.5430   16.4290   13.3510 C.ar  218  TYR218      0.0417
     11  CZ        -2.7680   16.6380   13.9800 C.ar  218  TYR218      0.1957
     12  OH        -3.9190   16.7130   13.1900 O.3   218  TYR218     -0.2866
     13  N          1.2630   13.6210   15.2610 N.am  219  MET219     -0.1965
     14  CA         1.0670   12.4090   14.4710 C.3   219  MET219      0.1736
     15  C          2.1860   12.1940   13.4360 C.2   219  MET219      0.2616
     16  O          2.7590   13.1480   12.9270 O.2   219  MET219     -0.2715
     17  CB        -0.3610   12.3350   13.8790 C.3   219  MET219      0.0427
     18  CG        -0.6750   13.1000   12.6130 C.3   219  MET219      0.0599
     19  SD        -2.3950   12.8760   12.0410 S.3   219  MET219     -0.1393
     20  CE        -3.4320   13.2160   13.4590 C.3   219  MET219      0.0692
     21  N          2.5310   10.9270   13.1870 N.am  220  TRP220     -0.1974
     22  CA         3.7680   10.5830   12.4700 C.3   220  TRP220      0.1640
     23  C          3.8450    9.1300   11.9970 C.2   220  TRP220      0.2290
     24  O          3.0730    8.2790   12.4220 O.2   220  TRP220     -0.2864
     25  CB         4.9890   10.8830   13.3600 C.3   220  TRP220      0.0576
     26  CG         4.9270   10.3330   14.7390 C.ar  220  TRP220      0.0006
     27  CD1        4.5350   10.9910   15.8630 C.ar  220  TRP220      0.0946
     28  CD2        5.2900    9.0050   15.1630 C.ar  220  TRP220      0.0152
     29  NE1        4.6300   10.1600   16.9680 N.ar  220  TRP220     -0.2442
     30  CE2        5.0930    8.9380   16.5610 C.ar  220  TRP220      0.0810
     31  CE3        5.7580    7.8720   14.4980 C.ar  220  TRP220      0.0012
     32  CZ2        5.3500    7.7790   17.3000 C.ar  220  TRP220      0.0191
     33  CZ3        6.0220    6.7260   15.2330 C.ar  220  TRP220      0.0001
     34  CH2        5.8230    6.6880   16.6190 C.ar  220  TRP220      0.0015
     35  N         -5.5020   12.7870   21.1510 N.3   232  TYR232     -0.1241
     36  CA        -6.1870   12.9810   19.8580 C.3   232  TYR232      0.1605
     37  C         -7.0430   11.7990   19.4040 C.2   232  TYR232      0.2264
     38  O         -7.7470   11.8680   18.3950 O.2   232  TYR232     -0.2867
     39  CB        -5.1500   13.2960   18.7720 C.3   232  TYR232      0.0534
     40  CG        -5.7600   13.6820   17.4430 C.ar  232  TYR232     -0.0201
     41  CD1       -6.0350   15.0120   17.1310 C.ar  232  TYR232     -0.0009
     42  CD2       -6.0630   12.7190   16.4950 C.ar  232  TYR232     -0.0009
     43  CE1       -6.6110   15.3600   15.9110 C.ar  232  TYR232      0.0417
     44  CE2       -6.6260   13.0600   15.2740 C.ar  232  TYR232      0.0417
     45  CZ        -6.8980   14.3680   14.9850 C.ar  232  TYR232      0.1957
     46  OH        -7.4700   14.6590   13.7730 O.3   232  TYR232     -0.2866
     47  N        -10.2360   17.3270    7.0670 N.3   247  ASP247     -0.1239
     48  CA        -8.8420   17.1930    7.4140 C.3   247  ASP247      0.1674
     49  C         -8.5800   16.1400    8.4980 C.2   247  ASP247      0.2266
     50  O         -7.4420   16.0010    8.9540 O.2   247  ASP247     -0.2867
     51  CB        -8.4250   18.5810    7.9300 C.3   247  ASP247      0.1410
     52  CG        -6.9440   18.8530    7.8280 C.2   247  ASP247      0.3668
     53  OD1       -6.1770   18.0670    8.4160 O.co2 247  ASP247     -0.2456
     54  OD2       -6.5690   19.8920    7.2060 O.co2 247  ASP247     -0.2456
     55  N         -7.2760   12.9630    6.6770 N.3   250  TRP250     -0.1227
     56  CA        -6.1500   13.2560    5.8120 C.3   250  TRP250      0.1737
     57  C         -4.8600   12.9920    6.5310 C.2   250  TRP250      0.2596
     58  O         -4.0700   12.1540    6.1180 O.2   250  TRP250     -0.2718
     59  CB        -6.1800   14.7120    5.3650 C.3   250  TRP250      0.0564
     60  CG        -5.0370   15.1020    4.5050 C.ar  250  TRP250      0.0003
     61  CD1       -3.8130   15.5530    4.9080 C.ar  250  TRP250      0.0946
     62  CD2       -5.0120   15.1000    3.0790 C.ar  250  TRP250      0.0152
     63  NE1       -3.0180   15.8210    3.8130 N.ar  250  TRP250     -0.2442
     64  CE2       -3.7330   15.5600    2.6790 C.ar  250  TRP250      0.0810
     65  CE3       -5.9430   14.7670    2.1030 C.ar  250  TRP250      0.0012
     66  CZ2       -3.3760   15.7020    1.3480 C.ar  250  TRP250      0.0191
     67  CZ3       -5.5810   14.9120    0.7720 C.ar  250  TRP250      0.0001
     68  CH2       -4.2950   15.3580    0.4120 C.ar  250  TRP250      0.0015
     69  N         -4.6820   13.7240    7.6250 N.am  251  GLY251     -0.1943
     70  CA        -3.4390   13.7450    8.3630 C.3   251  GLY251      0.1998
     71  C         -2.9060   12.4010    8.7430 C.2   251  GLY251      0.2480
     72  O         -1.7050   12.1880    8.7000 O.2   251  GLY251     -0.2729
     73  N         -3.7930   11.5110    9.1720 N.am  252  PRO252     -0.2726
     74  CA        -3.3990   10.1380    9.3260 C.3   252  PRO252      0.1402
     75  C         -2.9840    9.5160    8.0310 C.2   252  PRO252      0.2269
     76  O         -1.8950    8.9890    7.9740 O.2   252  PRO252     -0.2865
     77  CB        -4.6590    9.4800    9.8730 C.3   252  PRO252      0.0296
     78  CG        -5.2290   10.5580   10.7380 C.3   252  PRO252      0.0237
     79  CD        -5.0260   11.8100    9.9200 C.3   252  PRO252      0.0939
     80  N         -1.9370   10.6400    5.2450 N.3   254  HIS254     -0.1226
     81  CA        -0.6470   11.2240    4.9350 C.3   254  HIS254      0.1752
     82  C          0.5110   10.5380    5.6910 C.2   254  HIS254      0.2595
     83  O          1.6450   10.4190    5.1820 O.2   254  HIS254     -0.2718
     84  CB        -0.7300   12.6850    5.3030 C.3   254  HIS254      0.0759
     85  CG         0.5770   13.4060    5.2890 C.ar  254  HIS254      0.0818
     86  ND1        0.9450   14.2600    4.2780 N.ar  254  HIS254     -0.2268
     87  CD2        1.5630   13.4710    6.2080 C.ar  254  HIS254      0.1154
     88  CE1        2.1280   14.7780    4.5520 C.ar  254  HIS254      0.1986
     89  NE2        2.5360   14.2900    5.7080 N.ar  254  HIS254     -0.2212
     90  N          0.2240   10.0890    6.9090 N.am  255  GLU255     -0.1979
     91  CA         1.2440    9.4870    7.7580 C.3   255  GLU255      0.1602
     92  C          1.5100    8.0810    7.3500 C.2   255  GLU255      0.2287
     93  O          2.6500    7.6590    7.3100 O.2   255  GLU255     -0.2864
     94  CB         0.8790    9.5990    9.2330 C.3   255  GLU255      0.0415
     95  CG         0.9910   11.0280    9.7220 C.3   255  GLU255      0.1163
     96  CD         2.3400   11.6070    9.4520 C.2   255  GLU255      0.3649
     97  OE1        3.2640   10.7910    9.2990 O.co2 255  GLU255     -0.2457
     98  OE2        2.5010   12.8510    9.3960 O.co2 255  GLU255     -0.2457
     99  N          3.7330    8.1100    4.2050 N.3   258  HIS258     -0.1241
    100  CA         5.1400    8.1910    4.3860 C.3   258  HIS258      0.1621
    101  C          5.7280    6.7900    4.3690 C.2   258  HIS258      0.2264
    102  O          6.7780    6.5640    3.7370 O.2   258  HIS258     -0.2867
    103  CB         5.4790    8.9270    5.6570 C.3   258  HIS258      0.0745
    104  CG         5.3840   10.4130    5.5380 C.ar  258  HIS258      0.0817
    105  ND1        6.0240   11.1260    4.5470 N.ar  258  HIS258     -0.2268
    106  CD2        4.7550   11.3270    6.3110 C.ar  258  HIS258      0.1154
    107  CE1        5.7850   12.4120    4.7090 C.ar  258  HIS258      0.1986
    108  NE2        5.0040   12.5570    5.7640 N.ar  258  HIS258     -0.2212
    109  N          7.0940   15.5400    1.4530 N.3   271  GLU271     -0.1245
    110  CA         5.8160   15.8900    2.0720 C.3   271  GLU271      0.1567
    111  C          4.7100   16.1100    1.0410 C.2   271  GLU271      0.2260
    112  O          3.6270   16.5340    1.4090 O.2   271  GLU271     -0.2867
    113  CB         5.9620   17.1320    2.9750 C.3   271  GLU271      0.0388
    114  CG         6.7770   16.8880    4.2550 C.3   271  GLU271      0.1160
    115  CD         6.1340   15.8530    5.1680 C.2   271  GLU271      0.3649
    116  OE1        4.9370   15.6170    5.1090 O.co2 271  GLU271     -0.2457
    117  OE2        6.8220   15.2470    5.9660 O.co2 271  GLU271     -0.2457
    118  N          0.9860   12.3310   -0.5710 N.3   275  ASN275     -0.1240
    119  CA        -0.3940   12.7430   -0.6890 C.3   275  ASN275      0.1653
    120  C         -1.0970   12.2890   -1.9560 C.2   275  ASN275      0.2266
    121  O         -2.2790   12.5780   -2.1170 O.2   275  ASN275     -0.2867
    122  CB        -0.5280   14.2370   -0.4740 C.3   275  ASN275      0.1155
    123  CG        -0.2400   14.6330    0.9590 C.2   275  ASN275      0.2627
    124  OD1       -0.3970   13.8350    1.8870 O.2   275  ASN275     -0.2716
    125  ND2        0.1510   15.8570    1.1480 N.am  275  ASN275     -0.0877
    126  N         -7.8750   17.7430   -2.4250 N.3   291  ARG291     -0.1245
    127  CA        -7.0740   18.7530   -1.7970 C.3   291  ARG291      0.1563
    128  C         -5.8970   19.1720   -2.6790 C.2   291  ARG291      0.2260
    129  O         -5.3740   18.3750   -3.4680 O.2   291  ARG291     -0.2867
    130  CB        -6.5680   18.1900   -0.4790 C.3   291  ARG291      0.0307
    131  CG        -5.6670   19.1260    0.2670 C.3   291  ARG291      0.0489
    132  CD        -5.5540   18.7500    1.7410 C.3   291  ARG291      0.2205
    133  NE        -4.2890   19.2320    2.2540 N.pl3 291  ARG291     -0.0865
    134  CZ        -3.9130   19.2150    3.5290 C.cat 291  ARG291      0.5346
    135  NH1       -2.7020   19.6730    3.8530 N.pl3 291  ARG291      0.1354
    136  NH2       -4.7230   18.7540    4.4760 N.pl3 291  ARG291      0.1354
    137  N          3.7640   21.9590   -0.5590 N.3   322  THR322     -0.1203
    138  CA         3.0990   20.6830   -0.6350 C.3   322  THR322      0.1994
    139  C          1.7480   20.8030   -1.3350 C.2   322  THR322      0.2617
    140  O          1.3260   19.9000   -2.0280 O.2   322  THR322     -0.2717
    141  CB         2.8850   20.0880    0.7810 C.3   322  THR322      0.1784
    142  OG1        2.0880   20.9850    1.5770 O.3   322  THR322     -0.2211
    143  CG2        4.2080   19.8590    1.4860 C.3   322  THR322      0.0376
    144  N          1.0890   21.9340   -1.1680 N.am  323  GLU323     -0.1979
    145  CA        -0.2400   22.1160   -1.7220 C.3   323  GLU323      0.1602
    146  C         -0.1960   22.2660   -3.2580 C.2   323  GLU323      0.2287
    147  O         -1.1540   21.9500   -3.9250 O.2   323  GLU323     -0.2864
    148  CB        -0.9240   23.3340   -1.0730 C.3   323  GLU323      0.0415
    149  CG        -0.9780   23.3180    0.4470 C.3   323  GLU323      0.1163
    150  CD        -1.5580   22.0310    1.0110 C.2   323  GLU323      0.3649
    151  OE1       -0.8010   21.2330    1.6670 O.co2 323  GLU323     -0.2457
    152  OE2       -2.7650   21.8010    0.7710 O.co2 323  GLU323     -0.2457
    153  N          1.4760   18.4620   -4.6760 N.3   326  MET326     -0.1245
    154  CA         0.6370   17.2870   -4.5270 C.3   326  MET326      0.1570
    155  C         -0.2790   17.0710   -5.7330 C.2   326  MET326      0.2261
    156  O         -0.7510   15.9770   -5.9400 O.2   326  MET326     -0.2867
    157  CB        -0.1570   17.2890   -3.1950 C.3   326  MET326      0.0387
    158  CG        -1.2380   18.3260   -2.9950 C.3   326  MET326      0.0595
    159  SD        -2.3440   17.8930   -1.6040 S.3   326  MET326     -0.1393
    160  CE        -1.4640   18.6750   -0.2730 C.3   326  MET326      0.0692
    161  N         14.5950   16.5240    5.6090 N.3   403  TYR403     -0.1241
    162  CA        15.0750   15.3610    6.3660 C.3   403  TYR403      0.1605
    163  C         16.4770   14.9270    5.9240 C.2   403  TYR403      0.2264
    164  O         16.6880   13.8010    5.4870 O.2   403  TYR403     -0.2867
    165  CB        14.0890   14.2050    6.2490 C.3   403  TYR403      0.0534
    166  CG        12.6740   14.6160    6.5550 C.ar  403  TYR403     -0.0201
    167  CD1       12.2560   14.8270    7.8670 C.ar  403  TYR403     -0.0009
    168  CD2       11.7510   14.8000    5.5290 C.ar  403  TYR403     -0.0009
    169  CE1       10.9550   15.2150    8.1480 C.ar  403  TYR403      0.0417
    170  CE2       10.4570   15.1930    5.7950 C.ar  403  TYR403      0.0417
    171  CZ        10.0640   15.3950    7.1020 C.ar  403  TYR403      0.1957
    172  OH         8.7760   15.7700    7.3500 O.3   403  TYR403     -0.2866
@<TRIPOS>BOND
     1   156   155    2
     2   155   154    1
     3   153   154    1
     4   154   157    1
     5   147   146    2
     6   129   128    2
     7   146   145    1
     8   157   158    1
     9   158   159    1
    10   128   127    1
    11   126   127    1
    12   121   120    2
    13   140   139    2
    14   120   119    1
    15   127   130    1
    16   145   144    1
    17   145   148    1
    18   159   160    1
    19   139   144   am
    20   139   138    1
    21   148   149    1
    22   119   118    1
    23   119   122    1
    24   138   137    1
    25   138   141    1
    26   130   131    1
    27   122   123    1
    28   131   132    1
    29    68    67   ar
    30    68    66   ar
    31   149   150    1
    32   152   150   ar
    33    67    65   ar
    34   141   143    1
    35   141   142    1
    36   123   125   am
    37   123   124    2
    38   150   151   ar
    39   111   112    2
    40   111   110    1
    41    66    64   ar
    42   109   110    1
    43   132   133    1
    44   110   113    1
    45    65    62   ar
    46   133   134    2
    47    64    62   ar
    48    64    63   ar
    49   113   114    1
    50    62    60   ar
    51   134   135    1
    52   134   136    1
    53   102   101    2
    54    63    61   ar
    55    99   100    1
    56   114   115    1
    57    86    88   ar
    58    86    85   ar
    59   101   100    1
    60   100   103    1
    61    60    61   ar
    62    60    59    1
    63   105   107   ar
    64   105   104   ar
    65    88    89   ar
    66   107   108   ar
    67    81    80    1
    68    81    84    1
    69    81    82    1
    70   116   115   ar
    71   115   117   ar
    72    83    82    2
    73    85    84    1
    74    85    87   ar
    75    59    56    1
    76   164   163    2
    77   168   170   ar
    78   168   166   ar
    79   104   103    1
    80   104   106   ar
    81   161   162    1
    82    82    90   am
    83    89    87   ar
    84   108   106   ar
    85   170   171   ar
    86    56    57    1
    87    56    55    1
    88   163   162    1
    89    58    57    2
    90   165   162    1
    91   165   166    1
    92    57    69   am
    93   166   167   ar
    94    90    91    1
    95    47    48    1
    96   171   172    1
    97   171   169   ar
    98    54    52   ar
    99    93    92    2
   100    92    91    1
   101    48    51    1
   102    48    49    1
   103    69    70    1
   104    91    94    1
   105    52    51    1
   106    52    53   ar
   107   167   169   ar
   108    76    75    2
   109    75    74    1
   110    70    71    1
   111    49    50    2
   112    72    71    2
   113    71    73   am
   114    73    74    1
   115    73    79    1
   116    94    95    1
   117    97    96   ar
   118    74    77    1
   119    98    96   ar
   120    96    95    1
   121    77    78    1
   122    79    78    1
   123    23    24    2
   124    23    22    1
   125    19    18    1
   126    19    20    1
   127    22    21    1
   128    22    25    1
   129    18    17    1
   130    16    15    2
   131    21    15   am
   132    12    11    1
   133    10    11   ar
   134    10     8   ar
   135    25    26    1
   136    15    14    1
   137    46    45    1
   138    17    14    1
   139    11     9   ar
   140     8     6   ar
   141    14    13    1
   142    31    28   ar
   143    31    33   ar
   144    26    28   ar
   145    26    27   ar
   146    45    44   ar
   147    45    43   ar
   148    28    30   ar
   149    33    34   ar
   150    13     3   am
   151    44    42   ar
   152     9     7   ar
   153     6     7   ar
   154     6     5    1
   155    27    29   ar
   156    43    41   ar
   157     5     2    1
   158     3     4    2
   159     3     2    1
   160    42    40   ar
   161    30    29   ar
   162    30    32   ar
   163    34    32   ar
   164    41    40   ar
   165     2     1    1
   166    40    39    1
   167    38    37    2
   168    39    36    1
   169    37    36    1
   170    36    35    1
