@<TRIPOS>MOLECULE
tmp/5kdaA00.pdb
 117 113 0 0 0
SMALL
GASTEIGER

@<TRIPOS>ATOM
      1  N        104.6290   25.1710   53.4540 N.3    74  GLY74      -0.1210
      2  CA       104.8950   26.2760   54.3470 C.3    74  GLY74       0.1956
      3  C        104.4460   26.0360   55.7830 C.2    74  GLY74       0.2612
      4  O        104.5400   26.9620   56.6460 O.2    74  GLY74      -0.2717
      5  N        104.0260   24.8180   56.0950 N.am   75  LEU75      -0.1965
      6  CA       103.5430   24.5650   57.4440 C.3    75  LEU75       0.1728
      7  C        104.6480   24.5580   58.4600 C.2    75  LEU75       0.2616
      8  O        104.3670   24.6620   59.6410 O.2    75  LEU75      -0.2715
      9  CB       102.7640   23.2550   57.5110 C.3    75  LEU75       0.0311
     10  CG       101.3050   23.3480   57.1170 C.3    75  LEU75       0.0022
     11  CD1      100.6610   21.9700   57.3580 C.3    75  LEU75       0.0001
     12  CD2      100.6170   24.4110   57.9910 C.3    75  LEU75       0.0001
     13  N        105.8940   24.3360   58.0250 N.am   76  SER76      -0.1950
     14  CA       106.9960   24.1520   58.9490 C.3    76  SER76       0.1924
     15  C        108.2710   24.7310   58.4010 C.2    76  SER76       0.2314
     16  O        108.3700   25.0410   57.2040 O.2    76  SER76      -0.2863
     17  CB       107.2450   22.6750   59.2380 C.3    76  SER76       0.2116
     18  OG       107.7310   22.0490   58.0350 O.3    76  SER76      -0.2180
     19  N        105.8860   31.9670   45.7750 N.3   159  ILE159     -0.1245
     20  CA       107.0320   31.2180   46.1720 C.3   159  ILE159      0.1561
     21  C        106.6100   29.7520   46.4240 C.2   159  ILE159      0.2260
     22  O        105.4720   29.4780   46.7310 O.2   159  ILE159     -0.2867
     23  CB       107.7190   31.7680   47.4450 C.3   159  ILE159      0.0252
     24  CG1      106.7610   31.6600   48.6720 C.3   159  ILE159      0.0019
     25  CG2      108.2790   33.1550   47.1580 C.3   159  ILE159      0.0019
     26  CD1      107.3470   31.9230   50.0440 C.3   159  ILE159      0.0001
     27  N        106.9690   27.5170   48.8100 N.3   161  GLU161     -0.1231
     28  CA       106.3300   27.1260   50.0660 C.3   161  GLU161      0.1699
     29  C        104.8700   27.6320   50.1660 C.2   161  GLU161      0.2592
     30  O        104.2460   27.3990   51.1670 O.2   161  GLU161     -0.2718
     31  CB       107.1070   27.6860   51.3100 C.3   161  GLU161      0.0402
     32  CG       108.4810   27.1010   51.5540 C.3   161  GLU161      0.1161
     33  CD       109.5390   27.6370   50.5860 C.2   161  GLU161      0.3649
     34  OE1      109.2920   28.6970   49.9140 O.co2 161  GLU161     -0.2457
     35  OE2      110.6140   26.9790   50.5180 O.co2 161  GLU161     -0.2457
     36  N        104.3850   28.4310   49.2110 N.am  162  SER162     -0.1952
     37  CA       103.0140   28.8330   49.1750 C.3   162  SER162      0.1924
     38  C        102.1920   28.2860   47.9750 C.2   162  SER162      0.2314
     39  O        101.1860   28.9260   47.5350 O.2   162  SER162     -0.2863
     40  CB       102.9550   30.3650   49.2150 C.3   162  SER162      0.2116
     41  OG       103.7420   30.8860   50.2950 O.3   162  SER162     -0.2180
     42  N         92.8410   33.4850   54.7870 N.3   244  LEU244     -0.1245
     43  CA        92.2530   32.1470   54.9030 C.3   244  LEU244      0.1561
     44  C         90.7870   32.2570   55.2620 C.2   244  LEU244      0.2260
     45  O         90.3640   33.1530   56.0160 O.2   244  LEU244     -0.2867
     46  CB        92.9660   31.2830   55.9110 C.3   244  LEU244      0.0270
     47  CG        94.4780   31.0150   55.8810 C.3   244  LEU244      0.0019
     48  CD1       94.8750   30.3690   57.1890 C.3   244  LEU244      0.0001
     49  CD2       94.8120   30.0600   54.7630 C.3   244  LEU244      0.0001
     50  N         90.4640   34.7040   58.6000 N.3   260  TYR260     -0.1241
     51  CA        91.7810   34.8130   59.1550 C.3   260  TYR260      0.1605
     52  C         92.4640   35.9610   58.4730 C.2   260  TYR260      0.2264
     53  O         92.6060   35.9830   57.2340 O.2   260  TYR260     -0.2867
     54  CB        92.5600   33.5490   58.9190 C.3   260  TYR260      0.0534
     55  CG        93.9060   33.4630   59.5770 C.ar  260  TYR260     -0.0201
     56  CD1       95.0930   33.9260   58.9250 C.ar  260  TYR260     -0.0009
     57  CD2       94.0390   32.8500   60.8030 C.ar  260  TYR260     -0.0009
     58  CE1       96.3580   33.7640   59.4850 C.ar  260  TYR260      0.0417
     59  CE2       95.3220   32.7120   61.3940 C.ar  260  TYR260      0.0417
     60  CZ        96.4730   33.1670   60.7510 C.ar  260  TYR260      0.1957
     61  OH        97.7040   32.9770   61.4230 O.3   260  TYR260     -0.2866
     62  N         96.0720   38.1310   58.0170 N.3   262  ALA262     -0.1245
     63  CA        97.5260   38.0280   58.0710 C.3   262  ALA262      0.1562
     64  C         98.0510   39.4370   58.0100 C.2   262  ALA262      0.2260
     65  O         97.6150   40.2300   57.1930 O.2   262  ALA262     -0.2867
     66  CB        98.0830   37.1590   56.9370 C.3   262  ALA262      0.0290
     67  N        110.7340   35.9980   58.9920 N.3   301  ARG301     -0.1231
     68  CA       109.6880   36.1560   59.9970 C.3   301  ARG301      0.1694
     69  C        108.2480   36.0380   59.5180 C.2   301  ARG301      0.2592
     70  O        107.8840   36.5520   58.4480 O.2   301  ARG301     -0.2718
     71  CB       109.8850   37.4190   60.8170 C.3   301  ARG301      0.0321
     72  CG       109.0840   38.6560   60.5040 C.3   301  ARG301      0.0489
     73  CD       108.9430   39.5180   61.7480 C.3   301  ARG301      0.2205
     74  NE       108.8720   40.9480   61.3940 N.pl3 301  ARG301     -0.0865
     75  CZ       107.7890   41.7410   61.4580 C.cat 301  ARG301      0.5346
     76  NH1      106.5990   41.3040   61.9090 N.pl3 301  ARG301      0.1354
     77  NH2      107.9100   43.0220   61.0770 N.pl3 301  ARG301      0.1354
     78  N        107.4070   35.4020   60.3340 N.am  302  LEU302     -0.1966
     79  CA       105.9990   35.0990   59.9200 C.3   302  LEU302      0.1713
     80  C        105.0340   36.2330   60.2220 C.2   302  LEU302      0.2458
     81  O        105.2710   36.9890   61.1110 O.2   302  LEU302     -0.2730
     82  CB       105.4860   33.8330   60.6020 C.3   302  LEU302      0.0310
     83  CG       106.3990   32.5970   60.4930 C.3   302  LEU302      0.0022
     84  CD1      105.9140   31.4150   61.3100 C.3   302  LEU302      0.0001
     85  CD2      106.5770   32.2040   59.0670 C.3   302  LEU302      0.0001
     86  N        103.9270   36.3390   59.4980 N.am  303  PRO303     -0.2727
     87  CA       102.9290   37.3220   59.9330 C.3   303  PRO303      0.1402
     88  C        102.1950   36.9630   61.2140 C.2   303  PRO303      0.2269
     89  O        102.1140   35.8080   61.5730 O.2   303  PRO303     -0.2865
     90  CB       101.9570   37.3960   58.7390 C.3   303  PRO303      0.0296
     91  CG       102.1180   36.1280   58.0360 C.3   303  PRO303      0.0237
     92  CD       103.5210   35.6100   58.2890 C.3   303  PRO303      0.0939
     93  N        106.3510   27.4670   66.8940 N.3   375  ARG375     -0.1231
     94  CA       106.1520   28.2860   65.7330 C.3   375  ARG375      0.1694
     95  C        105.0470   29.3500   65.8610 C.2   375  ARG375      0.2592
     96  O        105.1620   30.3790   65.3110 O.2   375  ARG375     -0.2718
     97  CB       106.0720   27.3690   64.5050 C.3   375  ARG375      0.0321
     98  CG       105.7980   28.0170   63.1820 C.3   375  ARG375      0.0489
     99  CD       105.6840   26.8960   62.1100 C.3   375  ARG375      0.2205
    100  NE       105.5550   27.5110   60.8190 N.pl3 375  ARG375     -0.0865
    101  CZ       106.5700   27.8850   60.0480 C.cat 375  ARG375      0.5346
    102  NH1      107.8240   27.6970   60.4410 N.pl3 375  ARG375      0.1354
    103  NH2      106.3170   28.4400   58.8660 N.pl3 375  ARG375      0.1354
    104  N        104.0110   29.1080   66.6370 N.am  376  TRP376     -0.1976
    105  CA       102.9380   30.0540   66.7910 C.3   376  TRP376      0.1640
    106  C        102.4080   29.9130   68.1950 C.2   376  TRP376      0.2290
    107  O        102.4050   28.8330   68.7850 O.2   376  TRP376     -0.2864
    108  CB       101.7650   29.7500   65.8770 C.3   376  TRP376      0.0576
    109  CG       102.0270   29.6560   64.3590 C.ar  376  TRP376      0.0006
    110  CD1      102.2420   28.5250   63.5920 C.ar  376  TRP376      0.0946
    111  CD2      102.0610   30.7390   63.4780 C.ar  376  TRP376      0.0152
    112  NE1      102.4420   28.8730   62.2700 N.ar  376  TRP376     -0.2442
    113  CE2      102.2860   30.2250   62.1650 C.ar  376  TRP376      0.0810
    114  CE3      101.8990   32.1010   63.6530 C.ar  376  TRP376      0.0012
    115  CZ2      102.3640   31.0460   61.0540 C.ar  376  TRP376      0.0191
    116  CZ3      101.9610   32.8980   62.5730 C.ar  376  TRP376      0.0001
    117  CH2      102.2020   32.3820   61.2730 C.ar  376  TRP376      0.0015
@<TRIPOS>BOND
     1    19    20    1
     2    20    21    1
     3    20    23    1
     4    21    22    2
     5    25    23    1
     6    23    24    1
     7    39    38    2
     8    38    37    1
     9    24    26    1
    10    27    28    1
    11    37    36    1
    12    37    40    1
    13    36    29   am
    14    40    41    1
    15    34    33   ar
    16    28    29    1
    17    28    31    1
    18    29    30    2
    19    35    33   ar
    20    33    32    1
    21    31    32    1
    22     1     2    1
    23     2     3    1
    24    49    47    1
    25    42    43    1
    26    43    44    1
    27    43    46    1
    28    44    45    2
    29     3     5   am
    30     3     4    2
    31    47    46    1
    32    47    48    1
    33     5     6    1
    34    66    63    1
    35    10    11    1
    36    10     9    1
    37    10    12    1
    38    65    64    2
    39    16    15    2
    40    53    52    2
    41     6     9    1
    42     6     7    1
    43    64    63    1
    44    62    63    1
    45    13     7   am
    46    13    14    1
    47    18    17    1
    48    91    92    1
    49    91    90    1
    50    92    86    1
    51    15    14    1
    52    70    69    2
    53     7     8    2
    54    52    51    1
    55    50    51    1
    56    90    87    1
    57   103   101    1
    58    54    51    1
    59    54    55    1
    60    56    58   ar
    61    56    55   ar
    62    14    17    1
    63    67    68    1
    64    85    83    1
    65    58    60   ar
    66    86    87    1
    67    86    80   am
    68    69    68    1
    69    69    78   am
    70    55    57   ar
    71    79    80    1
    72    79    78    1
    73    79    82    1
    74    87    88    1
    75    68    71    1
    76   101   102    1
    77   101   100    2
    78    80    81    2
    79    83    82    1
    80    83    84    1
    81    72    71    1
    82    72    73    1
    83    60    59   ar
    84    60    61    1
    85    57    59   ar
    86   100    99    1
    87   115   117   ar
    88   115   113   ar
    89    77    75    1
    90    88    89    2
    91   117   116   ar
    92    74    75    2
    93    74    73    1
    94    75    76    1
    95    99    98    1
    96   113   112   ar
    97   113   111   ar
    98   112   110   ar
    99   116   114   ar
   100    98    97    1
   101   111   114   ar
   102   111   109   ar
   103   110   109   ar
   104   109   108    1
   105    97    94    1
   106    96    95    2
   107    94    95    1
   108    94    93    1
   109    95   104   am
   110   108   105    1
   111   104   105    1
   112   105   106    1
   113   106   107    2
