@<TRIPOS>MOLECULE
tmp/5kdaA01.pdb
 124 114 0 0 0
SMALL
GASTEIGER

@<TRIPOS>ATOM
      1  N         96.0460   22.9140   72.9170 N.3    87  LYS87      -0.1245
      2  CA        95.1600   23.9840   73.3210 C.3    87  LYS87       0.1561
      3  C         95.0540   23.8630   74.8420 C.2    87  LYS87       0.2260
      4  O         94.6010   22.8680   75.3230 O.2    87  LYS87      -0.2867
      5  CB        93.8020   23.7750   72.6970 C.3    87  LYS87       0.0271
      6  CG        92.8360   24.8610   73.1120 C.3    87  LYS87       0.0035
      7  CD        91.5180   24.7660   72.3590 C.3    87  LYS87       0.0206
      8  CE        90.5850   25.9060   72.7860 C.3    87  LYS87       0.1093
      9  NZ        89.1730   25.4580   72.7050 N.3    87  LYS87      -0.1314
     10  N         96.0720   18.6710   68.8860 N.3    96  ARG96      -0.1245
     11  CA        95.5430   18.8690   67.5400 C.3    96  ARG96       0.1563
     12  C         96.6510   18.5970   66.5340 C.2    96  ARG96       0.2260
     13  O         97.8110   18.9840   66.7850 O.2    96  ARG96      -0.2867
     14  CB        95.0260   20.2790   67.4240 C.3    96  ARG96       0.0307
     15  CG        94.5820   20.7130   66.0550 C.3    96  ARG96       0.0489
     16  CD        94.3350   22.2370   65.9500 C.3    96  ARG96       0.2205
     17  NE        93.3880   22.7690   66.9340 N.pl3  96  ARG96      -0.0865
     18  CZ        93.6920   23.5340   68.0080 C.cat  96  ARG96       0.5346
     19  NH1       94.9640   23.8520   68.3730 N.pl3  96  ARG96       0.1354
     20  NH2       92.6900   23.9690   68.7460 N.pl3  96  ARG96       0.1354
     21  N         93.2000   20.4830   59.7900 N.3   169  SER169     -0.1217
     22  CA        93.5300   20.2040   61.2010 C.3   169  SER169      0.1889
     23  C         92.5820   19.1630   61.6900 C.2   169  SER169      0.2288
     24  O         91.4430   19.0910   61.2470 O.2   169  SER169     -0.2866
     25  CB        93.2640   21.3760   62.1200 C.3   169  SER169      0.2089
     26  OG        94.0800   22.4230   61.8500 O.3   169  SER169     -0.2183
     27  N         91.3130   17.9500   65.4670 N.3   171  ASP171     -0.1239
     28  CA        91.2870   18.0710   66.9450 C.3   171  ASP171      0.1674
     29  C         91.0780   16.6830   67.5370 C.2   171  ASP171      0.2266
     30  O         90.0810   15.9830   67.2360 O.2   171  ASP171     -0.2867
     31  CB        90.1350   18.9360   67.4500 C.3   171  ASP171      0.1410
     32  CG        90.3370   20.4140   67.2580 C.2   171  ASP171      0.3668
     33  OD1       91.2440   20.8970   66.5080 O.co2 171  ASP171     -0.2456
     34  OD2       89.5520   21.1150   67.9190 O.co2 171  ASP171     -0.2456
     35  N         88.8590   20.1470   60.6170 N.3   180  LYS180     -0.1245
     36  CA        88.6090   21.5100   60.2930 C.3   180  LYS180      0.1561
     37  C         89.5190   21.7610   59.0710 C.2   180  LYS180      0.2260
     38  O         90.5790   21.1350   58.8970 O.2   180  LYS180     -0.2867
     39  CB        88.9990   22.4670   61.4600 C.3   180  LYS180      0.0271
     40  CG        88.9040   21.9110   62.8770 C.3   180  LYS180      0.0035
     41  CD        89.0560   22.9500   63.9890 C.3   180  LYS180      0.0206
     42  CE        90.4560   23.6060   64.0340 C.3   180  LYS180      0.1093
     43  NZ        90.9790   23.9190   65.4250 N.3   180  LYS180     -0.1314
     44  N         91.1240   24.9530   56.1980 N.3   182  TYR182     -0.1241
     45  CA        91.4080   26.3300   55.8870 C.3   182  TYR182      0.1605
     46  C         91.7540   26.4600   54.4320 C.2   182  TYR182      0.2264
     47  O         92.6580   25.7550   53.9260 O.2   182  TYR182     -0.2867
     48  CB        92.5730   26.8320   56.6490 C.3   182  TYR182      0.0534
     49  CG        92.2650   27.2200   58.0430 C.ar  182  TYR182     -0.0201
     50  CD1       91.6080   28.4190   58.3090 C.ar  182  TYR182     -0.0009
     51  CD2       92.6550   26.4320   59.1200 C.ar  182  TYR182     -0.0009
     52  CE1       91.3190   28.8230   59.6410 C.ar  182  TYR182      0.0417
     53  CE2       92.3780   26.8080   60.4630 C.ar  182  TYR182      0.0417
     54  CZ        91.7230   27.9950   60.7210 C.ar  182  TYR182      0.1957
     55  OH        91.4420   28.4240   61.9950 O.3   182  TYR182     -0.2866
     56  N         81.7750   26.4590   62.7720 N.3   256  ARG256     -0.1245
     57  CA        82.2700   27.8220   62.9110 C.3   256  ARG256      0.1563
     58  C         82.8950   28.2180   61.6100 C.2   256  ARG256      0.2260
     59  O         83.8050   27.5420   61.1320 O.2   256  ARG256     -0.2867
     60  CB        83.3330   27.9360   64.0090 C.3   256  ARG256      0.0307
     61  CG        82.8360   28.6710   65.2270 C.3   256  ARG256      0.0489
     62  CD        82.2300   27.7930   66.2860 C.3   256  ARG256      0.2205
     63  NE        83.0960   27.8050   67.4730 N.pl3 256  ARG256     -0.0865
     64  CZ        84.0850   26.9350   67.7280 C.cat 256  ARG256      0.5346
     65  NH1       84.3850   25.9160   66.8950 N.pl3 256  ARG256      0.1354
     66  NH2       84.7960   27.0820   68.8470 N.pl3 256  ARG256      0.1354
     67  N         85.3890   30.7500   60.0400 N.3   258  LYS258     -0.1245
     68  CA        86.5600   31.6120   60.4160 C.3   258  LYS258      0.1561
     69  C         87.0920   32.4960   59.2230 C.2   258  LYS258      0.2260
     70  O         87.2280   32.0000   58.1020 O.2   258  LYS258     -0.2867
     71  CB        87.6990   30.7480   60.9660 C.3   258  LYS258      0.0271
     72  CG        87.2470   29.8530   62.1280 C.3   258  LYS258      0.0035
     73  CD        88.2800   28.7750   62.4140 C.3   258  LYS258      0.0206
     74  CE        87.6710   27.5320   63.0990 C.3   258  LYS258      0.1093
     75  NZ        87.0510   26.5900   62.0550 N.3   258  LYS258     -0.1314
     76  N         92.0700   35.8190   63.8310 N.3   307  ASN307     -0.1240
     77  CA        91.0150   34.9010   63.3360 C.3   307  ASN307      0.1653
     78  C         89.6780   35.1760   63.9560 C.2   307  ASN307      0.2266
     79  O         89.5270   34.9880   65.1630 O.2   307  ASN307     -0.2867
     80  CB        91.4400   33.4740   63.6570 C.3   307  ASN307      0.1155
     81  CG        90.8400   32.4440   62.6800 C.2   307  ASN307      0.2627
     82  OD1       90.4930   32.7680   61.5540 O.2   307  ASN307     -0.2716
     83  ND2       90.7310   31.2060   63.1160 N.am  307  ASN307     -0.0877
     84  N         90.7490   35.2890   67.8840 N.3   321  GLN321     -0.1245
     85  CA        91.9280   34.6820   68.4630 C.3   321  GLN321      0.1566
     86  C         93.1400   35.3660   67.7660 C.2   321  GLN321      0.2260
     87  O         93.0940   35.6160   66.5620 O.2   321  GLN321     -0.2867
     88  CB        91.9220   33.1550   68.2660 C.3   321  GLN321      0.0367
     89  CG        93.2340   32.5190   68.7250 C.3   321  GLN321      0.0905
     90  CD        93.1800   31.0030   68.9450 C.2   321  GLN321      0.2608
     91  OE1       92.2100   30.3400   68.5930 O.2   321  GLN321     -0.2717
     92  NE2       94.2470   30.4530   69.5210 N.am  321  GLN321     -0.0878
     93  N         97.1760   35.2400   66.7850 N.3   323  TYR323     -0.1241
     94  CA        98.3420   34.3400   66.5920 C.3   323  TYR323      0.1605
     95  C         99.6750   35.1000   66.5760 C.2   323  TYR323      0.2264
     96  O         99.9520   35.9300   65.6520 O.2   323  TYR323     -0.2867
     97  CB        98.2010   33.4500   65.3420 C.3   323  TYR323      0.0534
     98  CG        97.0370   32.4710   65.4400 C.ar  323  TYR323     -0.0201
     99  CD1       95.7530   32.9210   65.2560 C.ar  323  TYR323     -0.0009
    100  CD2       97.2070   31.1570   65.8150 C.ar  323  TYR323     -0.0009
    101  CE1       94.6730   32.0680   65.3580 C.ar  323  TYR323      0.0417
    102  CE2       96.1100   30.2940   65.8890 C.ar  323  TYR323      0.0417
    103  CZ        94.8470   30.7930   65.6390 C.ar  323  TYR323      0.1957
    104  OH        93.6680   30.0680   65.7080 O.3   323  TYR323     -0.2866
    105  N         96.8760   28.4500   72.5430 N.3   390  ASN390     -0.1240
    106  CA        97.1740   27.3730   71.5790 C.3   390  ASN390      0.1653
    107  C         98.6290   27.4270   71.2150 C.2   390  ASN390      0.2266
    108  O         99.1030   28.4430   70.7170 O.2   390  ASN390     -0.2867
    109  CB        96.3090   27.4970   70.3170 C.3   390  ASN390      0.1155
    110  CG        94.8810   27.0180   70.5390 C.2   390  ASN390      0.2627
    111  OD1       94.6040   25.8250   70.5620 O.2   390  ASN390     -0.2716
    112  ND2       93.9880   27.9370   70.7270 N.am  390  ASN390     -0.0877
    113  N        101.6200   25.9230   68.9240 N.3   392  TYR392     -0.1241
    114  CA       101.9090   25.1550   67.6980 C.3   392  TYR392      0.1605
    115  C        103.3760   24.8400   67.5870 C.2   392  TYR392      0.2264
    116  O        104.2200   25.7660   67.5870 O.2   392  TYR392     -0.2867
    117  CB       101.4850   25.9740   66.4780 C.3   392  TYR392      0.0534
    118  CG       100.0100   26.1380   66.3730 C.ar  392  TYR392     -0.0201
    119  CD1       99.3240   27.0530   67.1610 C.ar  392  TYR392     -0.0009
    120  CD2       99.2590   25.3660   65.4890 C.ar  392  TYR392     -0.0009
    121  CE1       97.9500   27.2300   67.0520 C.ar  392  TYR392      0.0417
    122  CE2       97.8580   25.5160   65.3960 C.ar  392  TYR392      0.0417
    123  CZ        97.2210   26.4460   66.2040 C.ar  392  TYR392      0.1957
    124  OH        95.8770   26.6140   66.1120 O.3   392  TYR392     -0.2866
@<TRIPOS>BOND
     1    47    46    2
     2    46    45    1
     3    45    44    1
     4    45    48    1
     5    48    49    1
     6    49    50   ar
     7    49    51   ar
     8    70    69    2
     9    50    52   ar
    10    38    37    2
    11    37    36    1
    12    51    53   ar
    13    69    68    1
    14    52    54   ar
    15    21    22    1
    16    67    68    1
    17    36    35    1
    18    36    39    1
    19    68    71    1
    20    53    54   ar
    21    54    55    1
    22    71    72    1
    23    59    58    2
    24    22    23    1
    25    22    25    1
    26    24    23    2
    27    39    40    1
    28    82    81    2
    29    58    57    1
    30    26    25    1
    31    75    74    1
    32    72    73    1
    33    73    74    1
    34    81    83   am
    35    81    80    1
    36    56    57    1
    37    40    41    1
    38    57    60    1
    39    77    80    1
    40    77    76    1
    41    77    78    1
    42    78    79    2
    43    41    42    1
    44    60    61    1
    45    42    43    1
    46    61    62    1
    47    99   101   ar
    48    99    98   ar
    49    97    98    1
    50    97    94    1
    51   101   103   ar
    52   122   120   ar
    53   122   123   ar
    54    98   100   ar
    55    27    28    1
    56   120   118   ar
    57   103   104    1
    58   103   102   ar
    59    96    95    2
    60   100   102   ar
    61    16    15    1
    62    16    17    1
    63    15    14    1
    64   124   123    1
    65   123   121   ar
    66    62    63    1
    67   118   117    1
    68   118   119   ar
    69   117   114    1
    70    33    32   ar
    71    12    13    2
    72    12    11    1
    73    87    86    2
    74    95    94    1
    75    94    93    1
    76    65    64    1
    77    17    18    2
    78    28    31    1
    79    28    29    1
    80   121   119   ar
    81    30    29    2
    82    32    31    1
    83    32    34   ar
    84    14    11    1
    85    63    64    2
    86    11    10    1
    87   115   116    2
    88   115   114    1
    89   114   113    1
    90    64    66    1
    91    86    85    1
    92    84    85    1
    93    18    19    1
    94    18    20    1
    95    88    85    1
    96    88    89    1
    97    91    90    2
    98    89    90    1
    99    90    92   am
   100   109   110    1
   101   109   106    1
   102   110   111    2
   103   110   112   am
   104   108   107    2
   105   107   106    1
   106   106   105    1
   107     7     8    1
   108     7     6    1
   109     5     6    1
   110     5     2    1
   111     9     8    1
   112     1     2    1
   113     2     3    1
   114     3     4    2
