@<TRIPOS>MOLECULE
tmp/5kdbA01.pdb
 121 113 0 0 0
SMALL
GASTEIGER

@<TRIPOS>ATOM
      1  N          7.7910   13.2540   24.4490 N.3    76  ARG76      -0.1245
      2  CA         8.0500   13.6950   23.0770 C.3    76  ARG76       0.1563
      3  C          6.7140   14.0860   22.4900 C.2    76  ARG76       0.2260
      4  O          5.6830   13.6520   22.9970 O.2    76  ARG76      -0.2867
      5  CB         8.7080   12.5980   22.2150 C.3    76  ARG76       0.0307
      6  CG         7.8690   11.3300   22.0980 C.3    76  ARG76       0.0489
      7  CD         8.4360   10.3000   21.1520 C.3    76  ARG76       0.2205
      8  NE         7.4500    9.2300   20.9940 N.pl3  76  ARG76      -0.0865
      9  CZ         7.5020    8.2720   20.0750 C.cat  76  ARG76       0.5346
     10  NH1        8.5240    8.2040   19.2470 N.pl3  76  ARG76       0.1354
     11  NH2        6.5390    7.3680   20.0090 N.pl3  76  ARG76       0.1354
     12  N          2.5790   10.8300   19.0510 N.3    79  SER79      -0.1217
     13  CA         2.4970   10.1670   17.7700 C.3    79  SER79       0.1889
     14  C          1.2050   10.5490   17.0860 C.2    79  SER79       0.2288
     15  O          0.1580   10.5650   17.7130 O.2    79  SER79      -0.2866
     16  CB         2.5650    8.6620   17.9480 C.3    79  SER79       0.2089
     17  OG         2.2990    8.0480   16.7100 O.3    79  SER79      -0.2183
     18  N         -0.3430    8.8240   14.9530 N.3    81  ILE81      -0.1231
     19  CA        -1.1530    7.6610   14.6840 C.3    81  ILE81       0.1692
     20  C         -1.4130    6.8540   15.9750 C.2    81  ILE81       0.2591
     21  O         -2.5730    6.6590   16.3170 O.2    81  ILE81      -0.2718
     22  CB        -0.5050    6.8120   13.5610 C.3    81  ILE81       0.0266
     23  CG1       -1.4140    5.6400   13.2150 C.3    81  ILE81       0.0019
     24  CG2        0.9360    6.4030   13.9260 C.3    81  ILE81       0.0020
     25  CD1       -0.9070    4.7550   12.0530 C.3    81  ILE81       0.0001
     26  N         -0.3720    6.4850   16.7320 N.am   82  LEU82      -0.1980
     27  CA        -0.5600    5.6540   17.9270 C.3    82  LEU82       0.1596
     28  C         -1.3560    6.3730   19.0200 C.2    82  LEU82       0.2287
     29  O         -2.1300    5.7630   19.7550 O.2    82  LEU82      -0.2864
     30  CB         0.7930    5.2140   18.5010 C.3    82  LEU82       0.0297
     31  CG         0.7100    4.2820   19.6960 C.3    82  LEU82       0.0022
     32  CD1        0.2770    2.8910   19.2870 C.3    82  LEU82       0.0001
     33  CD2        2.0750    4.2820   20.3830 C.3    82  LEU82       0.0001
     34  N         11.5450    4.3950   23.7460 N.3   165  VAL165     -0.1231
     35  CA        10.1030    4.5020   23.4620 C.3   165  VAL165      0.1692
     36  C          9.2930    3.4690   24.2540 C.2   165  VAL165      0.2592
     37  O          8.3030    3.7900   24.9010 O.2   165  VAL165     -0.2718
     38  CB         9.8320    4.3360   21.9580 C.3   165  VAL165      0.0266
     39  CG1        8.3080    4.1900   21.6410 C.3   165  VAL165      0.0020
     40  CG2       10.3950    5.5140   21.2150 C.3   165  VAL165      0.0020
     41  N          9.7080    2.2150   24.2110 N.am  166  PHE166     -0.1976
     42  CA         8.9420    1.1860   24.8920 C.3   166  PHE166      0.1639
     43  C          9.0700    1.2460   26.4160 C.2   166  PHE166      0.2290
     44  O          8.1080    0.9480   27.1240 O.2   166  PHE166     -0.2864
     45  CB         9.3370   -0.1680   24.3260 C.3   166  PHE166      0.0560
     46  CG         8.7400   -0.4140   22.9770 C.ar  166  PHE166     -0.0200
     47  CD1        7.4430   -0.8720   22.8790 C.ar  166  PHE166     -0.0042
     48  CD2        9.4440   -0.1290   21.8190 C.ar  166  PHE166     -0.0042
     49  CE1        6.8500   -1.0920   21.6330 C.ar  166  PHE166     -0.0003
     50  CE2        8.8730   -0.3400   20.5670 C.ar  166  PHE166     -0.0003
     51  CZ         7.5690   -0.8300   20.4740 C.ar  166  PHE166     -0.0000
     52  N          6.5320    4.0160   27.8300 N.3   169  PHE169     -0.1241
     53  CA         5.1110    3.6910   28.0070 C.3   169  PHE169      0.1605
     54  C          4.8380    3.2290   29.4340 C.2   169  PHE169      0.2264
     55  O          3.6930    3.1550   29.8720 O.2   169  PHE169     -0.2867
     56  CB         4.6420    2.5870   27.0750 C.3   169  PHE169      0.0534
     57  CG         4.6620    2.9370   25.6110 C.ar  169  PHE169     -0.0203
     58  CD1        4.0340    4.0690   25.1160 C.ar  169  PHE169     -0.0042
     59  CD2        5.2930    2.0860   24.7240 C.ar  169  PHE169     -0.0042
     60  CE1        4.0590    4.3400   23.7680 C.ar  169  PHE169     -0.0003
     61  CE2        5.3100    2.3640   23.3630 C.ar  169  PHE169     -0.0003
     62  CZ         4.6990    3.4740   22.8970 C.ar  169  PHE169     -0.0000
     63  N          8.8570    9.1530   12.0160 N.3   227  ARG227     -0.1231
     64  CA         9.2730    8.8580   13.3780 C.3   227  ARG227      0.1694
     65  C          8.5180    7.6410   13.9160 C.2   227  ARG227      0.2592
     66  O          9.0850    6.8530   14.6710 O.2   227  ARG227     -0.2718
     67  CB         9.0610   10.0760   14.2850 C.3   227  ARG227      0.0321
     68  CG         9.6950    9.9390   15.6520 C.3   227  ARG227      0.0489
     69  CD         9.1420   10.9880   16.6110 C.3   227  ARG227      0.2205
     70  NE         7.7870   10.6480   17.0450 N.pl3 227  ARG227     -0.0865
     71  CZ         7.0770   11.3280   17.9340 C.cat 227  ARG227      0.5346
     72  NH1        5.8910   10.9000   18.2870 N.pl3 227  ARG227      0.1354
     73  NH2        7.5500   12.4410   18.4660 N.pl3 227  ARG227      0.1354
     74  N          7.2500    7.4740   13.5320 N.am  228  SER228     -0.1952
     75  CA         6.5120    6.2880   13.9710 C.3   228  SER228      0.1924
     76  C          7.1730    4.9990   13.4700 C.2   228  SER228      0.2314
     77  O          7.2550    4.0320   14.2170 O.2   228  SER228     -0.2863
     78  CB         5.0550    6.3230   13.5050 C.3   228  SER228      0.2116
     79  OG         4.3050    7.2710   14.2340 O.3   228  SER228     -0.2180
     80  N         10.2840    4.3110   15.3840 N.3   231  SER231     -0.1202
     81  CA         9.9980    3.9420   16.7750 C.3   231  SER231      0.2020
     82  C          9.5780    2.4740   16.8630 C.2   231  SER231      0.2618
     83  O         10.0530    1.7230   17.6970 O.2   231  SER231     -0.2717
     84  CB         8.8800    4.7950   17.3680 C.3   231  SER231      0.2103
     85  OG         9.2140    6.1870   17.3810 O.3   231  SER231     -0.2182
     86  N          8.6580    2.0960   15.9860 N.am  232  ALA232     -0.1979
     87  CA         7.9610    0.8110   16.0570 C.3   232  ALA232      0.1597
     88  C          8.5240   -0.2960   15.1750 C.2   232  ALA232      0.2287
     89  O          8.2480   -1.4660   15.4070 O.2   232  ALA232     -0.2864
     90  CB         6.5010    1.0140   15.6900 C.3   232  ALA232      0.0319
     91  N         10.5720   -4.1690   17.6960 N.3   236  THR236     -0.1218
     92  CA         9.4980   -5.1360   17.6760 C.3   236  THR236      0.1862
     93  C          9.8950   -6.4150   16.9030 C.2   236  THR236      0.2287
     94  O          9.7590   -7.5320   17.4050 O.2   236  THR236     -0.2866
     95  CB         8.2650   -4.5420   17.0220 C.3   236  THR236      0.1770
     96  OG1        8.6500   -3.9740   15.7690 O.3   236  THR236     -0.2211
     97  CG2        7.6400   -3.4630   17.9000 C.3   236  THR236      0.0375
     98  N          5.2620   -7.3270   22.3250 N.3   279  VAL279     -0.1245
     99  CA         4.6300   -6.1750   22.9610 C.3   279  VAL279      0.1561
    100  C          3.6270   -6.7120   23.9910 C.2   279  VAL279      0.2260
    101  O          2.5760   -7.2480   23.6490 O.2   279  VAL279     -0.2867
    102  CB         3.9520   -5.2650   21.9120 C.3   279  VAL279      0.0252
    103  CG1        3.2960   -4.1170   22.5520 C.3   279  VAL279      0.0019
    104  CG2        4.9950   -4.7650   20.8980 C.3   279  VAL279      0.0019
    105  N         -0.1490   -2.4720   26.9820 N.3   282  PHE282     -0.1241
    106  CA        -0.4430   -1.1050   26.5460 C.3   282  PHE282      0.1605
    107  C         -1.6120   -0.5830   27.3650 C.2   282  PHE282      0.2264
    108  O         -2.4320   -1.3900   27.8660 O.2   282  PHE282     -0.2867
    109  CB        -0.8100   -1.0660   25.0530 C.3   282  PHE282      0.0534
    110  CG         0.3310   -0.8070   24.1750 C.ar  282  PHE282     -0.0203
    111  CD1        1.1220    0.3160   24.3710 C.ar  282  PHE282     -0.0042
    112  CD2        0.6440   -1.6850   23.1610 C.ar  282  PHE282     -0.0042
    113  CE1        2.2000    0.5780   23.5550 C.ar  282  PHE282     -0.0003
    114  CE2        1.7200   -1.4220   22.3280 C.ar  282  PHE282     -0.0003
    115  CZ         2.5120   -0.2940   22.5420 C.ar  282  PHE282     -0.0000
    116  N         -1.7950   -3.2530   14.3640 N.3   342  CYS342     -0.1235
    117  CA        -0.4780   -2.9840   13.8050 C.3   342  CYS342      0.1677
    118  C         -0.4430   -2.6800   12.3150 C.2   342  CYS342      0.2270
    119  O         -0.6340   -3.5630   11.4850 O.2   342  CYS342     -0.2867
    120  CB         0.4480   -4.1850   14.0340 C.3   342  CYS342      0.0956
    121  SG         2.1220   -3.8670   13.3670 S.3   342  CYS342     -0.0801
@<TRIPOS>BOND
     1   119   118    2
     2    63    64    1
     3    25    23    1
     4   118   117    1
     5    23    22    1
     6   121   120    1
     7    64    65    1
     8    64    67    1
     9    76    75    1
    10    76    77    2
    11    78    75    1
    12    78    79    1
    13    74    65   am
    14    74    75    1
    15    22    24    1
    16    22    19    1
    17   117   120    1
    18   117   116    1
    19    65    66    2
    20    67    68    1
    21    19    18    1
    22    19    20    1
    23    88    89    2
    24    88    87    1
    25    80    81    1
    26    68    69    1
    27    90    87    1
    28    96    95    1
    29    20    21    2
    30    20    26   am
    31    86    87    1
    32    86    82   am
    33    69    70    1
    34    17    16    1
    35    26    27    1
    36    81    82    1
    37    81    84    1
    38    82    83    2
    39    93    94    2
    40    93    92    1
    41    95    92    1
    42    95    97    1
    43    70    71    2
    44    14    15    2
    45    14    13    1
    46    84    85    1
    47    92    91    1
    48    13    16    1
    49    13    12    1
    50    27    30    1
    51    27    28    1
    52    71    72    1
    53    71    73    1
    54    30    31    1
    55    28    29    2
    56    10     9    1
    57    32    31    1
    58    31    33    1
    59    11     9    1
    60     9     8    2
    61    51    50   ar
    62    51    49   ar
    63    50    48   ar
    64   104   102    1
    65     8     7    1
    66     7     6    1
    67    40    38    1
    68    49    47   ar
    69    39    38    1
    70    48    46   ar
    71   102   103    1
    72   102    99    1
    73    38    35    1
    74     6     5    1
    75     5     2    1
    76    98    99    1
    77   114   115   ar
    78   114   112   ar
    79     3     4    2
    80     3     2    1
    81   115   113   ar
    82    47    46   ar
    83    62    61   ar
    84    62    60   ar
    85    99   100    1
    86    46    45    1
    87     2     1    1
    88   112   110   ar
    89    61    59   ar
    90    35    34    1
    91    35    36    1
    92   113   111   ar
    93   101   100    2
    94    60    58   ar
    95   110   111   ar
    96   110   109    1
    97    41    36   am
    98    41    42    1
    99    36    37    2
   100    45    42    1
   101    59    57   ar
   102    42    43    1
   103   109   106    1
   104    58    57   ar
   105    57    56    1
   106    43    44    2
   107   106   105    1
   108   106   107    1
   109    56    53    1
   110   107   108    2
   111    52    53    1
   112    53    54    1
   113    54    55    2
