@<TRIPOS>MOLECULE
tmp/5kdeA00.pdb
 99 99 0 0 0
SMALL
GASTEIGER

@<TRIPOS>ATOM
      1  N         82.4310  -63.8330  112.0830 N.3    62  LEU62      -0.1245
      2  CA        82.6880  -64.2500  113.4610 C.3    62  LEU62       0.1561
      3  C         83.8720  -65.2130  113.4950 C.2    62  LEU62       0.2260
      4  O         83.7710  -66.3340  113.0020 O.2    62  LEU62      -0.2867
      5  CB        81.4520  -64.9270  114.0640 C.3    62  LEU62       0.0270
      6  CG        80.1740  -64.0890  114.1410 C.3    62  LEU62       0.0019
      7  CD1       79.0010  -64.9570  114.5660 C.3    62  LEU62       0.0001
      8  CD2       80.3390  -62.9160  115.0950 C.3    62  LEU62       0.0001
      9  N         87.1870  -66.9340  115.9860 N.3    64  PRO64      -0.2116
     10  CA        87.7020  -67.1290  117.3480 C.3    64  PRO64       0.1372
     11  C         88.9440  -66.2900  117.6540 C.2    64  PRO64       0.2244
     12  O         89.1020  -65.8300  118.7840 O.2    64  PRO64      -0.2868
     13  CB        88.0350  -68.6260  117.3940 C.3    64  PRO64       0.0268
     14  CG        88.2310  -69.0250  115.9780 C.3    64  PRO64       0.0207
     15  CD        87.3140  -68.1590  115.1720 C.3    64  PRO64       0.0892
     16  N         82.7330  -76.5620  113.9560 N.3   102  ARG102     -0.1231
     17  CA        82.5130  -75.8430  115.2140 C.3   102  ARG102      0.1694
     18  C         81.4430  -74.7400  115.1190 C.2   102  ARG102      0.2592
     19  O         80.9470  -74.2810  116.1500 O.2   102  ARG102     -0.2718
     20  CB        83.8370  -75.2620  115.7280 C.3   102  ARG102      0.0321
     21  CG        84.8700  -76.3260  116.0830 C.3   102  ARG102      0.0489
     22  CD        86.2470  -75.7380  116.3540 C.3   102  ARG102      0.2205
     23  NE        86.8770  -75.2340  115.1330 N.pl3 102  ARG102     -0.0865
     24  CZ        88.1450  -74.8310  115.0250 C.cat 102  ARG102      0.5346
     25  NH1       88.9780  -74.8670  116.0660 N.pl3 102  ARG102      0.1354
     26  NH2       88.5880  -74.3910  113.8510 N.pl3 102  ARG102      0.1354
     27  N         81.1010  -74.3170  113.8980 N.am  103  TRP103     -0.1976
     28  CA        80.0380  -73.3320  113.6580 C.3   103  TRP103      0.1640
     29  C         78.7600  -73.9240  113.0330 C.2   103  TRP103      0.2290
     30  O         77.8990  -73.1680  112.5680 O.2   103  TRP103     -0.2864
     31  CB        80.5800  -72.2150  112.7620 C.3   103  TRP103      0.0576
     32  CG        81.6900  -71.4470  113.3870 C.ar  103  TRP103      0.0006
     33  CD1       83.0270  -71.6910  113.2680 C.ar  103  TRP103      0.0946
     34  CD2       81.5620  -70.3100  114.2430 C.ar  103  TRP103      0.0152
     35  NE1       83.7420  -70.7690  113.9920 N.ar  103  TRP103     -0.2442
     36  CE2       82.8670  -69.9090  114.6020 C.ar  103  TRP103      0.0810
     37  CE3       80.4680  -69.5870  114.7420 C.ar  103  TRP103      0.0012
     38  CZ2       83.1130  -68.8140  115.4400 C.ar  103  TRP103      0.0191
     39  CZ3       80.7110  -68.4970  115.5770 C.ar  103  TRP103      0.0001
     40  CH2       82.0260  -68.1220  115.9160 C.ar  103  TRP103      0.0015
     41  N         76.0920  -75.3500  114.3380 N.3   105  HIS105     -0.1226
     42  CA        74.8430  -74.9720  115.0210 C.3   105  HIS105      0.1752
     43  C         74.3920  -73.5230  114.7580 C.2   105  HIS105      0.2595
     44  O         73.2870  -73.1480  115.1550 O.2   105  HIS105     -0.2718
     45  CB        74.9390  -75.2300  116.5330 C.3   105  HIS105      0.0759
     46  CG        75.1520  -76.6710  116.8990 C.ar  105  HIS105      0.0818
     47  ND1       74.6790  -77.7210  116.1370 N.ar  105  HIS105     -0.2268
     48  CD2       75.7660  -77.2320  117.9680 C.ar  105  HIS105      0.1154
     49  CE1       75.0090  -78.8640  116.7120 C.ar  105  HIS105      0.1986
     50  NE2       75.6680  -78.5960  117.8250 N.ar  105  HIS105     -0.2212
     51  N         75.2360  -72.7200  114.1040 N.am  106  VAL106     -0.1980
     52  CA        74.8700  -71.3710  113.6720 C.3   106  VAL106      0.1595
     53  C         74.4770  -71.4250  112.1920 C.2   106  VAL106      0.2287
     54  O         75.3390  -71.4200  111.3090 O.2   106  VAL106     -0.2864
     55  CB        76.0220  -70.3620  113.8990 C.3   106  VAL106      0.0276
     56  CG1       75.5370  -68.9340  113.6770 C.3   106  VAL106      0.0022
     57  CG2       76.5940  -70.5050  115.3030 C.3   106  VAL106      0.0022
     58  N         70.0160  -68.1830  115.7920 N.3   111  ASP111     -0.1225
     59  CA        71.0700  -68.9500  116.4730 C.3   111  ASP111      0.1805
     60  C         72.1620  -68.0700  117.0980 C.2   111  ASP111      0.2598
     61  O         72.9020  -68.5420  117.9620 O.2   111  ASP111     -0.2718
     62  CB        71.7240  -69.9550  115.5120 C.3   111  ASP111      0.1424
     63  CG        70.7240  -70.9230  114.8900 C.2   111  ASP111      0.3668
     64  OD1       69.7330  -71.2870  115.5590 O.co2 111  ASP111     -0.2456
     65  OD2       70.9360  -71.3210  113.7230 O.co2 111  ASP111     -0.2456
     66  N         72.2720  -66.8130  116.6580 N.am  112  VAL112     -0.1966
     67  CA        73.2470  -65.8670  117.2150 C.3   112  VAL112      0.1712
     68  C         72.6190  -65.1960  118.4440 C.2   112  VAL112      0.2458
     69  O         71.4820  -64.7280  118.3560 O.2   112  VAL112     -0.2730
     70  CB        73.6620  -64.7880  116.1870 C.3   112  VAL112      0.0289
     71  CG1       74.7400  -63.8730  116.7630 C.3   112  VAL112      0.0023
     72  CG2       74.1610  -65.4360  114.8990 C.3   112  VAL112      0.0023
     73  N         73.3450  -65.1390  119.5870 N.am  113  PRO113     -0.2727
     74  CA        72.7540  -64.5410  120.7950 C.3   113  PRO113      0.1402
     75  C         72.4460  -63.0500  120.6620 C.2   113  PRO113      0.2269
     76  O         73.1270  -62.3380  119.9190 O.2   113  PRO113     -0.2865
     77  CB        73.8270  -64.7580  121.8720 C.3   113  PRO113      0.0296
     78  CG        74.7320  -65.8050  121.3350 C.3   113  PRO113      0.0237
     79  CD        74.7090  -65.6350  119.8500 C.3   113  PRO113      0.0939
     80  N         72.8460  -60.6060  122.7970 N.3   115  PHE115     -0.1227
     81  CA        73.9130  -59.7350  123.3120 C.3   115  PHE115      0.1736
     82  C         74.9890  -59.4070  122.2650 C.2   115  PHE115      0.2595
     83  O         75.5000  -58.2860  122.2440 O.2   115  PHE115     -0.2718
     84  CB        74.5350  -60.3020  124.6090 C.3   115  PHE115      0.0547
     85  CG        75.4170  -61.5140  124.4100 C.ar  115  PHE115     -0.0202
     86  CD1       76.7500  -61.3700  124.0230 C.ar  115  PHE115     -0.0042
     87  CD2       74.9340  -62.7980  124.6610 C.ar  115  PHE115     -0.0042
     88  CE1       77.5660  -62.4780  123.8520 C.ar  115  PHE115     -0.0003
     89  CE2       75.7520  -63.9100  124.4980 C.ar  115  PHE115     -0.0003
     90  CZ        77.0690  -63.7490  124.0910 C.ar  115  PHE115     -0.0000
     91  N         75.2800  -60.3360  121.3930 N.am  116  GLU116     -0.1979
     92  CA        76.2390  -60.1190  120.3570 C.3   116  GLU116      0.1602
     93  C         75.6940  -59.2500  119.2580 C.2   116  GLU116      0.2287
     94  O         76.3550  -58.3850  118.7800 O.2   116  GLU116     -0.2864
     95  CB        76.6350  -61.4590  119.7990 C.3   116  GLU116      0.0415
     96  CG        77.7240  -61.3870  118.7700 C.3   116  GLU116      0.1163
     97  CD        79.0840  -61.2440  119.3850 C.2   116  GLU116      0.3649
     98  OE1       79.2780  -61.7630  120.4960 O.co2 116  GLU116     -0.2457
     99  OE2       79.9570  -60.6150  118.7590 O.co2 116  GLU116     -0.2457
@<TRIPOS>BOND
     1    54    53    2
     2     1     2    1
     3    53    52    1
     4    30    29    2
     5    31    32    1
     6    31    28    1
     7     4     3    2
     8    29    28    1
     9    33    32   ar
    10    33    35   ar
    11    32    34   ar
    12     2     3    1
    13     2     5    1
    14    28    27    1
    15    52    55    1
    16    52    51    1
    17    56    55    1
    18    65    63   ar
    19    26    24    1
    20    27    18   am
    21    55    57    1
    22    16    17    1
    23    35    36   ar
    24     5     6    1
    25    51    43   am
    26     6     7    1
    27     6     8    1
    28    34    36   ar
    29    34    37   ar
    30    41    42    1
    31    36    38   ar
    32    37    39   ar
    33    43    42    1
    34    43    44    2
    35    63    62    1
    36    63    64   ar
    37    72    70    1
    38    42    45    1
    39    24    23    2
    40    24    25    1
    41    18    17    1
    42    18    19    2
    43    23    22    1
    44    15    14    1
    45    15     9    1
    46    17    20    1
    47    38    40   ar
    48    62    59    1
    49    39    40   ar
    50    20    21    1
    51    58    59    1
    52    14    13    1
    53     9    10    1
    54    21    22    1
    55    47    49   ar
    56    47    46   ar
    57    70    71    1
    58    70    67    1
    59    59    60    1
    60    45    46    1
    61    66    60   am
    62    66    67    1
    63    49    50   ar
    64    46    48   ar
    65    60    61    2
    66    67    68    1
    67    10    13    1
    68    10    11    1
    69    11    12    2
    70    50    48   ar
    71    69    68    2
    72    68    73   am
    73    99    97   ar
    74    96    97    1
    75    96    95    1
    76    94    93    2
    77    93    92    1
    78    97    98   ar
    79    73    79    1
    80    73    74    1
    81    95    92    1
    82    79    78    1
    83    76    75    2
    84    92    91    1
    85    75    74    1
    86    74    77    1
    87    78    77    1
    88    91    82   am
    89    83    82    2
    90    82    81    1
    91    80    81    1
    92    81    84    1
    93    88    86   ar
    94    88    90   ar
    95    86    85   ar
    96    90    89   ar
    97    85    84    1
    98    85    87   ar
    99    89    87   ar
