@<TRIPOS>MOLECULE
tmp/5kdhA00.pdb
 126 122 0 0 0
SMALL
GASTEIGER

@<TRIPOS>ATOM
      1  N         14.1470    2.8740  -17.9230 N.3    40  TRP40      -0.1228
      2  CA        12.7730    3.1030  -17.4630 C.3    40  TRP40       0.1722
      3  C         11.8740    1.8420  -17.3970 C.2    40  TRP40       0.2437
      4  O         11.0910    1.7530  -16.4800 O.2    40  TRP40      -0.2733
      5  CB        12.1200    4.2260  -18.3030 C.3    40  TRP40       0.0563
      6  CG        12.0140    3.9440  -19.7490 C.ar   40  TRP40       0.0003
      7  CD1       12.9250    4.2450  -20.7160 C.ar   40  TRP40       0.0946
      8  CD2       10.9370    3.2630  -20.3930 C.ar   40  TRP40       0.0152
      9  NE1       12.4690    3.7990  -21.9430 N.ar   40  TRP40      -0.2442
     10  CE2       11.2540    3.1900  -21.7650 C.ar   40  TRP40       0.0810
     11  CE3        9.7410    2.7110  -19.9460 C.ar   40  TRP40       0.0012
     12  CZ2       10.4050    2.5820  -22.6920 C.ar   40  TRP40       0.0191
     13  CZ3        8.8990    2.1210  -20.8630 C.ar   40  TRP40       0.0001
     14  CH2        9.2390    2.0540  -22.2220 C.ar   40  TRP40       0.0015
     15  N         12.0020    0.8450  -18.3090 N.am   41  PRO41      -0.2718
     16  CA        11.1050   -0.3050  -18.1080 C.3    41  PRO41       0.1535
     17  C         11.4320   -1.0970  -16.8730 C.2    41  PRO41       0.2598
     18  O         10.6310   -1.9060  -16.4430 O.2    41  PRO41      -0.2715
     19  CB        11.3550   -1.1800  -19.3390 C.3    41  PRO41       0.0310
     20  CG        11.9440   -0.2060  -20.3860 C.3    41  PRO41       0.0237
     21  CD        12.8210    0.6800  -19.5140 C.3    41  PRO41       0.0939
     22  N         12.6070   -0.8520  -16.3170 N.am   42  PHE42      -0.1974
     23  CA        13.1480   -1.6700  -15.2480 C.3    42  PHE42       0.1639
     24  C         13.1670   -0.9500  -13.9110 C.2    42  PHE42       0.2290
     25  O         13.6810   -1.4980  -12.9190 O.2    42  PHE42      -0.2864
     26  CB        14.5590   -2.1210  -15.6470 C.3    42  PHE42       0.0560
     27  CG        14.5920   -2.8010  -16.9810 C.ar   42  PHE42      -0.0200
     28  CD1       14.0680   -4.0930  -17.1110 C.ar   42  PHE42      -0.0042
     29  CD2       15.0730   -2.1660  -18.1250 C.ar   42  PHE42      -0.0042
     30  CE1       14.0410   -4.7190  -18.3500 C.ar   42  PHE42      -0.0003
     31  CE2       15.0500   -2.8040  -19.3700 C.ar   42  PHE42      -0.0003
     32  CZ        14.5570   -4.0960  -19.4670 C.ar   42  PHE42      -0.0000
     33  N         10.6680   -0.1780  -11.9120 N.3    44  GLN44      -0.1245
     34  CA         9.5600   -0.5290  -11.0280 C.3    44  GLN44       0.1566
     35  C          9.0820   -1.9290  -11.3500 C.2    44  GLN44       0.2260
     36  O          9.3400   -2.4310  -12.4380 O.2    44  GLN44      -0.2867
     37  CB         8.3860    0.4590  -11.1720 C.3    44  GLN44       0.0367
     38  CG         7.8070    0.5940  -12.5540 C.3    44  GLN44       0.0905
     39  CD         8.7090    1.3580  -13.5350 C.2    44  GLN44       0.2608
     40  OE1        9.1570    2.4850  -13.2600 O.2    44  GLN44      -0.2717
     41  NE2        8.9860    0.7390  -14.6680 N.am   44  GLN44      -0.0878
     42  N          6.9360   -4.8870  -12.7750 N.3    46  VAL46      -0.1245
     43  CA         6.1420   -4.9380  -13.9960 C.3    46  VAL46       0.1561
     44  C          4.6460   -4.8280  -13.6760 C.2    46  VAL46       0.2260
     45  O          4.0860   -5.6590  -12.9550 O.2    46  VAL46      -0.2867
     46  CB         6.4220   -6.2170  -14.7930 C.3    46  VAL46       0.0252
     47  CG1        5.5320   -6.3070  -16.0260 C.3    46  VAL46       0.0019
     48  CG2        7.9040   -6.2700  -15.2080 C.3    46  VAL46       0.0019
     49  N         -0.0340   -2.4160  -18.2970 N.3    51  LEU51      -0.1245
     50  CA         0.6580   -2.6350  -19.5600 C.3    51  LEU51       0.1561
     51  C         -0.0690   -3.5820  -20.4930 C.2    51  LEU51       0.2260
     52  O          0.3170   -3.7260  -21.6520 O.2    51  LEU51      -0.2867
     53  CB         2.0620   -3.1730  -19.2920 C.3    51  LEU51       0.0270
     54  CG         2.9830   -2.2300  -18.5220 C.3    51  LEU51       0.0019
     55  CD1        4.2200   -2.9810  -18.0900 C.3    51  LEU51       0.0001
     56  CD2        3.3640   -1.0160  -19.3700 C.3    51  LEU51       0.0001
     57  N         -0.6020   -7.2290  -20.2270 N.3    53  LEU53      -0.1245
     58  CA         0.2080   -8.4250  -20.4450 C.3    53  LEU53       0.1561
     59  C         -0.3240   -9.5170  -19.5290 C.2    53  LEU53       0.2260
     60  O          0.3420   -9.8970  -18.5620 O.2    53  LEU53      -0.2867
     61  CB         1.6810   -8.1560  -20.1490 C.3    53  LEU53       0.0270
     62  CG         2.3120   -7.0300  -20.9530 C.3    53  LEU53       0.0019
     63  CD1        3.6030   -6.6150  -20.3110 C.3    53  LEU53       0.0001
     64  CD2        2.5370   -7.4740  -22.3840 C.3    53  LEU53       0.0001
     65  N          2.0150  -12.2220  -18.0740 N.3    56  TYR56      -0.1241
     66  CA         3.3440  -11.9260  -17.5590 C.3    56  TYR56       0.1605
     67  C          3.6590  -12.7480  -16.3140 C.2    56  TYR56       0.2264
     68  O          4.7070  -13.3760  -16.2320 O.2    56  TYR56      -0.2867
     69  CB         3.5250  -10.4210  -17.2490 C.3    56  TYR56       0.0534
     70  CG         4.9760  -10.1480  -16.9250 C.ar   56  TYR56      -0.0201
     71  CD1        5.9140   -9.9920  -17.9360 C.ar   56  TYR56      -0.0009
     72  CD2        5.4320  -10.1180  -15.6110 C.ar   56  TYR56      -0.0009
     73  CE1        7.2670   -9.7860  -17.6380 C.ar   56  TYR56       0.0417
     74  CE2        6.7710   -9.9400  -15.3030 C.ar   56  TYR56       0.0417
     75  CZ         7.6850   -9.7640  -16.3180 C.ar   56  TYR56       0.1957
     76  OH         9.0090   -9.5720  -16.0230 O.3    56  TYR56      -0.2866
     77  N         13.4700  -10.7070  -18.4950 N.3    95  CYS95      -0.1235
     78  CA        13.2580   -9.9990  -19.7470 C.3    95  CYS95       0.1677
     79  C         13.5360  -10.9240  -20.9320 C.2    95  CYS95       0.2270
     80  O         12.8030  -10.9350  -21.9010 O.2    95  CYS95      -0.2867
     81  CB        14.1640   -8.7660  -19.8030 C.3    95  CYS95       0.0956
     82  SG        13.9090   -7.6920  -21.2150 S.3    95  CYS95      -0.0801
     83  N         10.6420  -13.6670  -21.1110 N.3    98  TYR98      -0.1227
     84  CA         9.2930  -13.2460  -21.4670 C.3    98  TYR98       0.1736
     85  C          9.2140  -12.7000  -22.8930 C.2    98  TYR98       0.2595
     86  O          8.1880  -12.8650  -23.5850 O.2    98  TYR98      -0.2718
     87  CB         8.7590  -12.1860  -20.4960 C.3    98  TYR98       0.0548
     88  CG         7.3470  -11.7580  -20.8430 C.ar   98  TYR98      -0.0200
     89  CD1        6.2590  -12.5810  -20.5710 C.ar   98  TYR98      -0.0009
     90  CD2        7.1030  -10.5410  -21.4690 C.ar   98  TYR98      -0.0009
     91  CE1        4.9610  -12.1980  -20.9190 C.ar   98  TYR98       0.0417
     92  CE2        5.8100  -10.1510  -21.8140 C.ar   98  TYR98       0.0417
     93  CZ         4.7460  -10.9760  -21.5270 C.ar   98  TYR98       0.1957
     94  OH         3.4570  -10.5820  -21.8750 O.3    98  TYR98      -0.2866
     95  N         10.2830  -12.0470  -23.3380 N.am   99  ASN99      -0.1974
     96  CA        10.2630  -11.3270  -24.6160 C.3    99  ASN99       0.1688
     97  C         11.0290  -12.0880  -25.6990 C.2    99  ASN99       0.2292
     98  O         11.8530  -12.9450  -25.4140 O.2    99  ASN99      -0.2864
     99  CB        10.8320   -9.9150  -24.4390 C.3    99  ASN99       0.1181
    100  CG        10.0490   -9.0990  -23.4290 C.2    99  ASN99       0.2629
    101  OD1        8.9700   -8.5980  -23.7260 O.2    99  ASN99      -0.2716
    102  ND2       10.5920   -8.9820  -22.2110 N.am   99  ASN99      -0.0877
    103  N         13.0650   -4.9090  -29.0750 N.3   104  ASP104     -0.1225
    104  CA        13.7880   -3.7260  -28.6070 C.3   104  ASP104      0.1805
    105  C         14.0500   -3.7810  -27.1060 C.2   104  ASP104      0.2597
    106  O         15.1360   -3.3990  -26.6600 O.2   104  ASP104     -0.2718
    107  CB        13.0430   -2.4400  -28.9520 C.3   104  ASP104      0.1424
    108  CG        13.2150   -2.0320  -30.4060 C.2   104  ASP104      0.3668
    109  OD1       14.1700   -2.5290  -31.0550 O.co2 104  ASP104     -0.2456
    110  OD2       12.4140   -1.2050  -30.8980 O.co2 104  ASP104     -0.2456
    111  N         13.0720   -4.2490  -26.3310 N.am  105  ILE105     -0.1980
    112  CA        13.2330   -4.3650  -24.8790 C.3   105  ILE105      0.1595
    113  C         14.4040   -5.2810  -24.5210 C.2   105  ILE105      0.2287
    114  O         15.1140   -5.0190  -23.5440 O.2   105  ILE105     -0.2864
    115  CB        11.9300   -4.8720  -24.2150 C.3   105  ILE105      0.0276
    116  CG1       12.0550   -4.8640  -22.6870 C.3   105  ILE105      0.0022
    117  CG2       11.5710   -6.2720  -24.7020 C.3   105  ILE105      0.0022
    118  CD1       12.3610   -3.5130  -22.0870 C.3   105  ILE105      0.0001
    119  N         17.5820   -3.4150  -25.0930 N.3   108  MET108     -0.1245
    120  CA        17.7440   -2.4840  -23.9660 C.3   108  MET108      0.1570
    121  C         18.3390   -3.1940  -22.7760 C.2   108  MET108      0.2261
    122  O         19.3110   -2.7080  -22.1740 O.2   108  MET108     -0.2867
    123  CB        16.4100   -1.8400  -23.6070 C.3   108  MET108      0.0387
    124  CG        15.9070   -0.8860  -24.6970 C.3   108  MET108      0.0595
    125  SD        14.1830   -0.4280  -24.3990 S.3   108  MET108     -0.1393
    126  CE        14.3670    0.7290  -23.0620 C.3   108  MET108      0.0692
@<TRIPOS>BOND
     1   109   108   ar
     2   110   108   ar
     3   108   107    1
     4   103   104    1
     5   107   104    1
     6   104   105    1
     7   105   106    2
     8   105   111   am
     9   111   112    1
    10    97    98    2
    11    97    96    1
    12   119   120    1
    13   112   113    1
    14   112   115    1
    15   117   115    1
    16   124   125    1
    17   124   123    1
    18    96    99    1
    19    96    95    1
    20   113   114    2
    21    99   100    1
    22   125   126    1
    23   115   116    1
    24   120   123    1
    25   120   121    1
    26   101   100    2
    27    86    85    2
    28   100   102   am
    29    95    85   am
    30    85    84    1
    31   121   122    2
    32    12    14   ar
    33    12    10   ar
    34   116   118    1
    35    64    62    1
    36    14    13   ar
    37     9    10   ar
    38     9     7   ar
    39    80    79    2
    40    94    93    1
    41    92    93   ar
    42    92    90   ar
    43    10     8   ar
    44    52    51    2
    45    93    91   ar
    46    90    88   ar
    47    84    83    1
    48    84    87    1
    49    82    81    1
    50    62    63    1
    51    62    61    1
    52    79    78    1
    53    91    89   ar
    54    13    11   ar
    55    88    89   ar
    56    88    87    1
    57     7     6   ar
    58    51    50    1
    59    58    57    1
    60    58    61    1
    61    58    59    1
    62     8    11   ar
    63     8     6   ar
    64    20    21    1
    65    20    19    1
    66    81    78    1
    67     6     5    1
    68    78    77    1
    69    50    53    1
    70    50    49    1
    71    59    60    2
    72    21    15    1
    73    32    31   ar
    74    32    30   ar
    75    31    29   ar
    76    56    54    1
    77    19    16    1
    78    53    54    1
    79    54    55    1
    80    30    28   ar
    81    15    16    1
    82    15     3   am
    83     5     2    1
    84    29    27   ar
    85    16    17    1
    86    65    66    1
    87    71    73   ar
    88    71    70   ar
    89     1     2    1
    90    73    75   ar
    91    66    69    1
    92    66    67    1
    93     2     3    1
    94     3     4    2
    95    69    70    1
    96    28    27   ar
    97    27    26    1
    98    70    72   ar
    99    17    18    2
   100    17    22   am
   101    75    76    1
   102    75    74   ar
   103    22    23    1
   104    67    68    2
   105    47    46    1
   106    26    23    1
   107    72    74   ar
   108    23    24    1
   109    48    46    1
   110    46    43    1
   111    41    39   am
   112    43    44    1
   113    43    42    1
   114    24    25    2
   115    44    45    2
   116    39    40    2
   117    39    38    1
   118    38    37    1
   119    36    35    2
   120    33    34    1
   121    35    34    1
   122    37    34    1
