@<TRIPOS>MOLECULE
tmp/5kdrB00.pdb
 144 134 0 0 0
SMALL
GASTEIGER

@<TRIPOS>ATOM
      1  N         23.4550   -5.5330   23.1570 N.3   106  MET106     -0.1245
      2  CA        22.8550   -6.0970   21.9450 C.3   106  MET106      0.1570
      3  C         22.2700   -5.0310   21.0080 C.2   106  MET106      0.2261
      4  O         21.4160   -5.3340   20.1810 O.2   106  MET106     -0.2867
      5  CB        21.7700   -7.1180   22.3050 C.3   106  MET106      0.0387
      6  CG        22.1720   -8.1350   23.3600 C.3   106  MET106      0.0595
      7  SD        20.7330   -8.9920   24.0380 S.3   106  MET106     -0.1393
      8  CE        21.4260   -9.6690   25.5490 C.3   106  MET106      0.0692
      9  N         20.2600   -2.6810   21.8150 N.3   108  SER108     -0.1217
     10  CA        18.8650   -2.4100   22.1800 C.3   108  SER108      0.1889
     11  C         18.6090   -0.9100   22.2770 C.2   108  SER108      0.2288
     12  O         19.4900   -0.1440   22.6770 O.2   108  SER108     -0.2866
     13  CB        18.5110   -3.0690   23.5150 C.3   108  SER108      0.2089
     14  OG        18.5230   -4.4790   23.4090 O.3   108  SER108     -0.2183
     15  N         18.6260   -6.0080   18.8840 N.3   138  GLY138     -0.1225
     16  CA        17.7890   -7.1160   19.3270 C.3   138  GLY138      0.1811
     17  C         16.3890   -6.6660   19.7260 C.2   138  GLY138      0.2280
     18  O         15.5990   -7.4510   20.2550 O.2   138  GLY138     -0.2866
     19  N         13.7800   -3.5780   21.5430 N.3   140  ALA140     -0.1245
     20  CA        13.6860   -2.5550   22.5660 C.3   140  ALA140      0.1562
     21  C         14.4900   -2.9970   23.7820 C.2   140  ALA140      0.2260
     22  O         14.6200   -4.1920   24.0470 O.2   140  ALA140     -0.2867
     23  CB        12.2300   -2.3260   22.9440 C.3   140  ALA140      0.0290
     24  N         14.5280   -3.7240   27.3110 N.3   142  MET142     -0.1230
     25  CA        13.4970   -4.0450   28.3000 C.3   142  MET142      0.1702
     26  C         13.7000   -3.3730   29.6590 C.2   142  MET142      0.2592
     27  O         12.7590   -3.2880   30.4410 O.2   142  MET142     -0.2718
     28  CB        13.4050   -5.5570   28.4960 C.3   142  MET142      0.0401
     29  CG        12.8730   -6.3020   27.2870 C.3   142  MET142      0.0596
     30  SD        13.2890   -8.0510   27.3650 S.3   142  MET142     -0.1393
     31  CE        14.9720   -8.0170   26.7620 C.3   142  MET142      0.0692
     32  N         14.9090   -2.8870   29.9300 N.am  143  GLN143     -0.1979
     33  CA        15.2350   -2.2880   31.2260 C.3   143  GLN143      0.1601
     34  C         14.5920   -0.9070   31.4210 C.2   143  GLN143      0.2287
     35  O         14.4660   -0.4350   32.5540 O.2   143  GLN143     -0.2864
     36  CB        16.7590   -2.1970   31.4190 C.3   143  GLN143      0.0394
     37  CG        17.4570   -3.5400   31.6190 C.3   143  GLN143      0.0908
     38  CD        17.6780   -4.3120   30.3270 C.2   143  GLN143      0.2608
     39  OE1       17.9450   -3.7290   29.2830 O.2   143  GLN143     -0.2717
     40  NE2       17.5750   -5.6320   30.3980 N.am  143  GLN143     -0.0878
     41  N          9.6550    1.3430   24.2890 N.3   149  LEU149     -0.1245
     42  CA         8.6140    1.2260   23.2780 C.3   149  LEU149      0.1561
     43  C          8.4180    2.5690   22.6010 C.2   149  LEU149      0.2260
     44  O          8.5410    2.6710   21.3810 O.2   149  LEU149     -0.2867
     45  CB         7.2870    0.7430   23.8610 C.3   149  LEU149      0.0270
     46  CG         6.3110    0.2600   22.7820 C.3   149  LEU149      0.0019
     47  CD1        6.7290   -1.1030   22.2570 C.3   149  LEU149      0.0001
     48  CD2        4.8820    0.2240   23.3050 C.3   149  LEU149      0.0001
     49  N         10.1450    4.0400   19.5370 N.3   152  MET152     -0.1245
     50  CA         9.7020    3.7240   18.1850 C.3   152  MET152      0.1570
     51  C          8.9040    4.9000   17.6360 C.2   152  MET152      0.2261
     52  O          9.0660    5.2760   16.4750 O.2   152  MET152     -0.2867
     53  CB         8.8830    2.4340   18.1620 C.3   152  MET152      0.0387
     54  CG         9.7150    1.2000   18.4770 C.3   152  MET152      0.0595
     55  SD         8.7610   -0.3040   18.7540 S.3   152  MET152     -0.1393
     56  CE         7.8050   -0.4170   17.2380 C.3   152  MET152      0.0692
     57  N         22.4770   -8.0380   13.4240 N.3   176  PRO176     -0.2116
     58  CA        21.0760   -8.4240   13.1950 C.3   176  PRO176      0.1372
     59  C         20.1090   -7.2520   13.4200 C.2   176  PRO176      0.2244
     60  O         20.3580   -6.3990   14.2750 O.2   176  PRO176     -0.2868
     61  CB        20.8430   -9.4910   14.2630 C.3   176  PRO176      0.0268
     62  CG        21.7140   -9.0680   15.3920 C.3   176  PRO176      0.0207
     63  CD        22.9090   -8.3660   14.7960 C.3   176  PRO176      0.0892
     64  N         16.1620   -6.5590   14.3580 N.3   178  THR178     -0.1203
     65  CA        14.9880   -7.2490   14.8590 C.3   178  THR178      0.1994
     66  C         14.1510   -6.3770   15.7850 C.2   178  THR178      0.2618
     67  O         14.5700   -5.2810   16.1850 O.2   178  THR178     -0.2717
     68  CB        15.3820   -8.4860   15.6800 C.3   178  THR178      0.1784
     69  OG1       15.9820   -8.0620   16.9080 O.3   178  THR178     -0.2211
     70  CG2       16.3490   -9.3800   14.9130 C.3   178  THR178      0.0376
     71  N         12.9660   -6.8950   16.1220 N.am  179  GLY179     -0.1942
     72  CA        12.1020   -6.3050   17.1380 C.3   179  GLY179      0.2014
     73  C         11.6480   -4.8840   16.8650 C.2   179  GLY179      0.2639
     74  O         11.3260   -4.5260   15.7340 O.2   179  GLY179     -0.2714
     75  N         11.6330   -4.0730   17.9150 N.am  180  GLY180     -0.1954
     76  CA        11.1770   -2.6930   17.8180 C.3   180  GLY180      0.1869
     77  C         11.8540   -1.9010   16.7210 C.2   180  GLY180      0.2309
     78  O         11.2180   -1.0910   16.0500 O.2   180  GLY180     -0.2863
     79  N         20.3560  -11.1830    9.3760 N.3   199  LEU199     -0.1245
     80  CA        19.1800  -11.7820    9.9840 C.3   199  LEU199      0.1561
     81  C         18.2290  -10.6580   10.3380 C.2   199  LEU199      0.2260
     82  O         18.5800   -9.7680   11.1170 O.2   199  LEU199     -0.2867
     83  CB        19.5680  -12.5490   11.2440 C.3   199  LEU199      0.0270
     84  CG        18.5530  -13.5570   11.7850 C.3   199  LEU199      0.0019
     85  CD1       18.5150  -14.8200   10.9280 C.3   199  LEU199      0.0001
     86  CD2       18.8880  -13.9010   13.2280 C.3   199  LEU199      0.0001
     87  N         11.1140   -9.8840   13.3610 N.3   202  PHE202     -0.1227
     88  CA        10.3080   -9.0900   14.2920 C.3   202  PHE202      0.1736
     89  C         10.4570   -9.6860   15.6970 C.2   202  PHE202      0.2595
     90  O         11.3810   -9.3030   16.4240 O.2   202  PHE202     -0.2718
     91  CB         8.8450   -9.0500   13.8170 C.3   202  PHE202      0.0547
     92  CG         7.9130   -8.3230   14.7470 C.ar  202  PHE202     -0.0202
     93  CD1        8.1330   -6.9940   15.0730 C.ar  202  PHE202     -0.0042
     94  CD2        6.7930   -8.9620   15.2700 C.ar  202  PHE202     -0.0042
     95  CE1        7.2650   -6.3200   15.9160 C.ar  202  PHE202     -0.0003
     96  CE2        5.9240   -8.2970   16.1170 C.ar  202  PHE202     -0.0003
     97  CZ         6.1590   -6.9740   16.4400 C.ar  202  PHE202     -0.0000
     98  N          9.6030  -10.6460   16.0590 N.am  203  ALA203     -0.1966
     99  CA         9.6110  -11.2370   17.3990 C.3   203  ALA203      0.1728
    100  C         10.3990  -12.5410   17.4410 C.2   203  ALA203      0.2617
    101  O         10.2550  -13.3910   16.5690 O.2   203  ALA203     -0.2715
    102  CB         8.1860  -11.4730   17.8840 C.3   203  ALA203      0.0334
    103  N         11.2240  -12.6900   18.4730 N.am  204  GLY204     -0.1940
    104  CA        12.0430  -13.8820   18.6460 C.3   204  GLY204      0.2014
    105  C         11.2620  -15.0490   19.2090 C.2   204  GLY204      0.2639
    106  O         10.1920  -14.8700   19.7890 O.2   204  GLY204     -0.2714
    107  N         11.8230  -16.2450   19.0660 N.am  205  ARG205     -0.1963
    108  CA        11.1380  -17.4750   19.4620 C.3   205  ARG205      0.1729
    109  C         10.9340  -17.5440   20.9760 C.2   205  ARG205      0.2616
    110  O          9.9270  -18.0740   21.4400 O.2   205  ARG205     -0.2715
    111  CB        11.8940  -18.7140   18.9630 C.3   205  ARG205      0.0348
    112  CG        11.9520  -18.8490   17.4420 C.3   205  ARG205      0.0492
    113  CD        13.2750  -18.3590   16.8610 C.3   205  ARG205      0.2205
    114  NE        13.2650  -18.2650   15.3990 N.pl3 205  ARG205     -0.0865
    115  CZ        13.4460  -19.2860   14.5570 C.cat 205  ARG205      0.5346
    116  NH1       13.6390  -20.5250   15.0070 N.pl3 205  ARG205      0.1354
    117  NH2       13.4230  -19.0660   13.2450 N.pl3 205  ARG205      0.1354
    118  N         11.8830  -17.0000   21.7360 N.am  206  ARG206     -0.1963
    119  CA        11.7710  -16.9390   23.1960 C.3   206  ARG206      0.1729
    120  C         10.6580  -15.9860   23.6480 C.2   206  ARG206      0.2616
    121  O          9.9630  -16.2610   24.6290 O.2   206  ARG206     -0.2715
    122  CB        13.1010  -16.5290   23.8130 C.3   206  ARG206      0.0348
    123  CG        13.0040  -16.5030   25.3480 C.3   206  ARG206      0.0492
    124  CD        14.2530  -16.0320   26.0050 C.3   206  ARG206      0.2205
    125  NE        14.7080  -14.7170   25.5130 N.pl3 206  ARG206     -0.0865
    126  CZ        14.2460  -13.5650   26.0180 C.cat 206  ARG206      0.5346
    127  NH1       13.3320  -13.5970   26.9770 N.pl3 206  ARG206      0.1354
    128  NH2       14.6810  -12.4130   25.5520 N.pl3 206  ARG206      0.1354
    129  N         10.4930  -14.8720   22.9340 N.am  207  VAL207     -0.1977
    130  CA         9.4360  -13.8990   23.2380 C.3   207  VAL207      0.1596
    131  C          8.0670  -14.4210   22.7890 C.2   207  VAL207      0.2287
    132  O          7.1070  -14.3970   23.5620 O.2   207  VAL207     -0.2864
    133  CB         9.7030  -12.5280   22.5720 C.3   207  VAL207      0.0276
    134  CG1        8.5480  -11.5640   22.8220 C.3   207  VAL207      0.0022
    135  CG2       11.0030  -11.9280   23.0820 C.3   207  VAL207      0.0022
    136  N         14.4940  -15.5050    7.9740 N.3   216  GLN216     -0.1245
    137  CA        14.8720  -14.1830    8.4520 C.3   216  GLN216      0.1566
    138  C         16.0530  -13.5590    7.6730 C.2   216  GLN216      0.2260
    139  O         16.4460  -12.4320    7.9730 O.2   216  GLN216     -0.2867
    140  CB        15.1720  -14.2290    9.9620 C.3   216  GLN216      0.0367
    141  CG        13.9730  -14.6210   10.8240 C.3   216  GLN216      0.0905
    142  CD        14.2170  -14.4950   12.3290 C.2   216  GLN216      0.2608
    143  OE1       14.8740  -13.5640   12.7990 O.2   216  GLN216     -0.2717
    144  NE2       13.6660  -15.4320   13.0940 N.am  216  GLN216     -0.0878
@<TRIPOS>BOND
     1   138   139    2
     2   138   137    1
     3   136   137    1
     4   137   140    1
     5    79    80    1
     6   140   141    1
     7    80    81    1
     8    80    83    1
     9    81    82    2
    10   141   142    1
    11    85    84    1
    12    83    84    1
    13    84    86    1
    14   142   143    2
    15   142   144   am
    16    58    59    1
    17    58    57    1
    18    58    61    1
    19   117   115    1
    20    87    88    1
    21    59    60    2
    22    57    63    1
    23    91    88    1
    24    91    92    1
    25    61    62    1
    26    88    89    1
    27    64    65    1
    28   115   116    1
    29   115   114    2
    30    92    93   ar
    31    92    94   ar
    32    63    62    1
    33    65    68    1
    34    65    66    1
    35    70    68    1
    36    93    95   ar
    37    94    96   ar
    38   114   113    1
    39    68    69    1
    40    89    98   am
    41    89    90    2
    42    74    73    2
    43    66    71   am
    44    66    67    2
    45    95    97   ar
    46    78    77    2
    47    98    99    1
    48    96    97   ar
    49    71    72    1
    50    52    51    2
    51   101   100    2
    52    77    76    1
    53   113   112    1
    54    73    72    1
    55    73    75   am
    56    56    55    1
    57    99   100    1
    58    99   102    1
    59   100   103   am
    60   112   111    1
    61    51    50    1
    62    76    75    1
    63    53    50    1
    64    53    54    1
    65    50    49    1
    66   103   104    1
    67    54    55    1
    68   104   105    1
    69    15    16    1
    70   111   108    1
    71   107   105   am
    72   107   108    1
    73   105   106    2
    74    16    17    1
    75   108   109    1
    76    17    18    2
    77     4     3    2
    78   109   110    2
    79   109   118   am
    80     3     2    1
    81    44    43    2
    82    19    20    1
    83   118   119    1
    84     9    10    1
    85     2     5    1
    86     2     1    1
    87    10    11    1
    88    10    13    1
    89    47    46    1
    90    11    12    2
    91     5     6    1
    92    20    23    1
    93    20    21    1
    94   133   134    1
    95   133   135    1
    96   133   130    1
    97    43    42    1
    98    46    48    1
    99    46    45    1
   100   131   130    1
   101   131   132    2
   102   129   130    1
   103   129   120   am
   104   119   120    1
   105   119   122    1
   106    42    45    1
   107    42    41    1
   108     6     7    1
   109    14    13    1
   110   120   121    2
   111    21    22    2
   112   122   123    1
   113     7     8    1
   114   123   124    1
   115   125   124    1
   116   125   126    2
   117   128   126    1
   118   126   127    1
   119    31    30    1
   120    29    30    1
   121    29    28    1
   122    24    25    1
   123    25    28    1
   124    25    26    1
   125    39    38    2
   126    26    32   am
   127    26    27    2
   128    32    33    1
   129    38    40   am
   130    38    37    1
   131    33    36    1
   132    33    34    1
   133    36    37    1
   134    34    35    2
