@<TRIPOS>MOLECULE
tmp/5kdtB00.pdb
 84 81 0 0 0
SMALL
GASTEIGER

@<TRIPOS>ATOM
      1  N         10.6470   -8.4250  -32.1660 N.3   123  ILE123     -0.1245
      2  CA        10.8550   -7.3440  -31.2170 C.3   123  ILE123      0.1561
      3  C         12.0660   -6.5490  -31.7140 C.2   123  ILE123      0.2260
      4  O         13.1500   -7.1070  -31.8930 O.2   123  ILE123     -0.2867
      5  CB        11.0070   -7.8510  -29.7530 C.3   123  ILE123      0.0252
      6  CG1        9.7980   -8.7120  -29.3320 C.3   123  ILE123      0.0019
      7  CG2       11.1740   -6.6860  -28.7690 C.3   123  ILE123      0.0019
      8  CD1       10.0850   -9.7060  -28.2300 C.3   123  ILE123      0.0001
      9  N          7.0920  -10.2800  -23.2790 N.3   135  LYS135     -0.1231
     10  CA         8.3450  -11.0200  -23.1590 C.3   135  LYS135      0.1678
     11  C          8.3060  -12.0040  -24.3430 C.2   135  LYS135      0.2434
     12  O          7.1930  -12.3710  -24.7690 O.2   135  LYS135     -0.2733
     13  CB         8.4050  -11.7670  -21.8150 C.3   135  LYS135      0.0284
     14  CG         8.7750  -10.8570  -20.6370 C.3   135  LYS135      0.0035
     15  CD        10.2870  -10.5930  -20.5430 C.3   135  LYS135      0.0206
     16  CE        10.6470   -9.5870  -19.4830 C.3   135  LYS135      0.1093
     17  NZ        10.0700   -8.2500  -19.7760 N.3   135  LYS135     -0.1314
     18  N          9.4660  -12.3640  -24.9630 N.am  136  PRO136     -0.2729
     19  CA         9.4180  -13.2510  -26.1470 C.3   136  PRO136      0.1401
     20  C          8.7110  -14.5990  -25.9350 C.2   136  PRO136      0.2269
     21  O          8.8600  -15.2120  -24.8910 O.2   136  PRO136     -0.2865
     22  CB        10.8970  -13.4510  -26.5140 C.3   136  PRO136      0.0296
     23  CG        11.6040  -12.3040  -25.8820 C.3   136  PRO136      0.0237
     24  CD        10.8570  -12.0010  -24.6180 C.3   136  PRO136      0.0939
     25  N          9.0990  -16.7830  -28.4340 N.3   138  LYS138     -0.1231
     26  CA        10.0140  -17.5350  -29.2980 C.3   138  LYS138      0.1693
     27  C         11.2640  -16.7300  -29.5550 C.2   138  LYS138      0.2592
     28  O         11.1650  -15.5680  -29.9260 O.2   138  LYS138     -0.2718
     29  CB         9.3560  -17.8760  -30.6550 C.3   138  LYS138      0.0285
     30  CG        10.2110  -18.7660  -31.5650 C.3   138  LYS138      0.0035
     31  CD         9.7290  -20.2160  -31.5670 C.3   138  LYS138      0.0206
     32  CE        10.6880  -21.1760  -32.2390 C.3   138  LYS138      0.1093
     33  NZ        11.9660  -21.3490  -31.4820 N.3   138  LYS138     -0.1314
     34  N         12.4380  -17.3550  -29.3720 N.am  139  TYR139     -0.1976
     35  CA        13.7380  -16.7950  -29.7150 C.3   139  TYR139      0.1639
     36  C         14.1760  -17.5150  -30.9740 C.2   139  TYR139      0.2290
     37  O         14.0060  -18.7230  -31.0820 O.2   139  TYR139     -0.2864
     38  CB        14.7830  -16.9920  -28.6120 C.3   139  TYR139      0.0560
     39  CG        16.0840  -16.2400  -28.8570 C.ar  139  TYR139     -0.0198
     40  CD1       16.0870  -14.9690  -29.4360 C.ar  139  TYR139     -0.0009
     41  CD2       17.3020  -16.7650  -28.4440 C.ar  139  TYR139     -0.0009
     42  CE1       17.2700  -14.2480  -29.5910 C.ar  139  TYR139      0.0417
     43  CE2       18.4870  -16.0520  -28.5900 C.ar  139  TYR139      0.0417
     44  CZ        18.4690  -14.7970  -29.1660 C.ar  139  TYR139      0.1957
     45  OH        19.6510  -14.1080  -29.3010 O.3   139  TYR139     -0.2866
     46  N         20.0640  -12.5980  -34.1750 N.3   243  ARG243     -0.1231
     47  CA        19.1800  -13.4100  -33.3670 C.3   243  ARG243      0.1694
     48  C         18.1330  -12.4770  -32.7260 C.2   243  ARG243      0.2593
     49  O         18.4970  -11.4470  -32.1560 O.2   243  ARG243     -0.2718
     50  CB        19.9880  -14.1930  -32.3270 C.3   243  ARG243      0.0321
     51  CG        20.5610  -15.5090  -32.8430 C.3   243  ARG243      0.0489
     52  CD        20.8800  -16.4540  -31.6960 C.3   243  ARG243      0.2205
     53  NE        22.2330  -16.2510  -31.1690 N.pl3 243  ARG243     -0.0865
     54  CZ        22.6790  -16.7320  -30.0090 C.cat 243  ARG243      0.5346
     55  NH1       21.8730  -17.4330  -29.2170 N.pl3 243  ARG243      0.1354
     56  NH2       23.9280  -16.5020  -29.6260 N.pl3 243  ARG243      0.1354
     57  N         16.8410  -12.7720  -32.9440 N.am  244  SER244     -0.1938
     58  CA        15.7320  -11.9450  -32.4720 C.3   244  SER244      0.2055
     59  C         14.5580  -12.7500  -31.9320 C.2   244  SER244      0.2643
     60  O         14.3910  -13.9290  -32.2660 O.2   244  SER244     -0.2714
     61  CB        15.2560  -11.0160  -33.5880 C.3   244  SER244      0.2130
     62  OG        14.8850  -11.7220  -34.7610 O.3   244  SER244     -0.2179
     63  N         13.7340  -12.0990  -31.1200 N.am  245  GLY245     -0.1954
     64  CA        12.5500  -12.7270  -30.5490 C.3   245  GLY245      0.1869
     65  C         11.2370  -12.2440  -31.1480 C.2   245  GLY245      0.2309
     66  O         11.1600  -11.1430  -31.7090 O.2   245  GLY245     -0.2863
     67  N          5.5460  -16.1790  -19.6990 N.3   265  LEU265     -0.1245
     68  CA         6.5590  -16.7050  -18.7830 C.3   265  LEU265      0.1561
     69  C          6.1250  -18.0530  -18.2060 C.2   265  LEU265      0.2260
     70  O          6.9120  -18.9980  -18.2350 O.2   265  LEU265     -0.2867
     71  CB         6.9400  -15.7110  -17.6540 C.3   265  LEU265      0.0270
     72  CG         7.5990  -14.3810  -18.0570 C.3   265  LEU265      0.0019
     73  CD1        7.7950  -13.5000  -16.8760 C.3   265  LEU265      0.0001
     74  CD2        8.9180  -14.5860  -18.8010 C.3   265  LEU265      0.0001
     75  N          6.3990  -20.8200  -20.8410 N.3   268  HIS268     -0.1241
     76  CA         7.7690  -21.2740  -21.1000 C.3   268  HIS268      0.1621
     77  C          8.1990  -22.2170  -19.9640 C.2   268  HIS268      0.2264
     78  O          8.8460  -23.2340  -20.2100 O.2   268  HIS268     -0.2867
     79  CB         8.7640  -20.0960  -21.1460 C.3   268  HIS268      0.0745
     80  CG         8.7800  -19.3490  -22.4380 C.ar  268  HIS268      0.0817
     81  ND1        9.2240  -19.9380  -23.6030 N.ar  268  HIS268     -0.2268
     82  CD2        8.4380  -18.0690  -22.6970 C.ar  268  HIS268      0.1154
     83  CE1        9.1070  -19.0110  -24.5310 C.ar  268  HIS268      0.1986
     84  NE2        8.6780  -17.8610  -24.0240 N.ar  268  HIS268     -0.2212
@<TRIPOS>BOND
     1    62    61    1
     2    46    47    1
     3    61    58    1
     4    47    48    1
     5    47    50    1
     6    57    48   am
     7    57    58    1
     8    51    50    1
     9    51    52    1
    10    48    49    2
    11    58    59    1
    12    60    59    2
    13    32    31    1
    14    32    33    1
    15     1     2    1
    16    59    63   am
    17     4     3    2
    18     3     2    1
    19    66    65    2
    20    52    53    1
    21    31    30    1
    22    30    29    1
    23     2     5    1
    24    53    54    2
    25    65    64    1
    26    63    64    1
    27    37    36    2
    28    36    35    1
    29    29    26    1
    30    54    56    1
    31    54    55    1
    32    28    27    2
    33     5     6    1
    34     5     7    1
    35    35    34    1
    36    35    38    1
    37    42    40   ar
    38    42    44   ar
    39    27    34   am
    40    27    26    1
    41    40    39   ar
    42     6     8    1
    43    45    44    1
    44    26    25    1
    45    44    43   ar
    46    39    38    1
    47    39    41   ar
    48    43    41   ar
    49    22    19    1
    50    22    23    1
    51    19    20    1
    52    19    18    1
    53    20    21    2
    54    23    24    1
    55    18    24    1
    56    18    11   am
    57    12    11    2
    58    83    84   ar
    59    83    81   ar
    60    11    10    1
    61    84    82   ar
    62    81    80   ar
    63     9    10    1
    64    10    13    1
    65    82    80   ar
    66    80    79    1
    67    13    14    1
    68    79    76    1
    69    76    75    1
    70    76    77    1
    71    14    15    1
    72    15    16    1
    73    78    77    2
    74    17    16    1
    75    67    68    1
    76    74    72    1
    77    68    69    1
    78    68    71    1
    79    70    69    2
    80    72    71    1
    81    72    73    1
