@<TRIPOS>MOLECULE
tmp/5kdtA01.pdb
 99 94 0 0 0
SMALL
GASTEIGER

@<TRIPOS>ATOM
      1  N         14.9780  -14.2770  -15.7630 N.3   110  ILE110     -0.1245
      2  CA        13.6160  -13.7660  -15.8300 C.3   110  ILE110      0.1561
      3  C         12.6850  -14.9540  -15.5860 C.2   110  ILE110      0.2260
      4  O         12.7860  -15.9590  -16.2760 O.2   110  ILE110     -0.2867
      5  CB        13.2810  -13.1000  -17.1910 C.3   110  ILE110      0.0252
      6  CG1       14.2140  -11.8940  -17.4940 C.3   110  ILE110      0.0019
      7  CG2       11.8000  -12.6690  -17.2140 C.3   110  ILE110      0.0019
      8  CD1       14.1860  -11.3220  -18.9950 C.3   110  ILE110      0.0001
      9  N         14.0880   -6.3190  -21.4710 N.3   122  VAL122     -0.1231
     10  CA        14.0180   -7.3500  -22.5040 C.3   122  VAL122      0.1678
     11  C         15.1410   -8.3790  -22.1570 C.2   122  VAL122      0.2434
     12  O         16.1130   -7.9910  -21.5060 O.2   122  VAL122     -0.2733
     13  CB        14.1760   -6.7630  -23.9490 C.3   122  VAL122      0.0265
     14  CG1       13.0250   -5.8310  -24.3000 C.3   122  VAL122      0.0020
     15  CG2       15.5190   -6.0650  -24.1510 C.3   122  VAL122      0.0020
     16  N         15.0280   -9.6790  -22.4810 N.am  123  PRO123     -0.2718
     17  CA        16.1420  -10.6000  -22.1520 C.3   123  PRO123      0.1535
     18  C         17.3760  -10.2310  -22.9920 C.2   123  PRO123      0.2599
     19  O         17.2040   -9.9000  -24.1720 O.2   123  PRO123     -0.2715
     20  CB        15.5900  -11.9620  -22.5480 C.3   123  PRO123      0.0310
     21  CG        14.5480  -11.6490  -23.6140 C.3   123  PRO123      0.0237
     22  CD        13.9320  -10.3690  -23.1990 C.3   123  PRO123      0.0939
     23  N         18.5960  -10.2100  -22.4050 N.am  124  PHE124     -0.1960
     24  CA        19.7630   -9.8230  -23.2060 C.3   124  PHE124      0.1771
     25  C         20.7220  -10.9890  -23.4630 C.2   124  PHE124      0.2619
     26  O         21.6530  -10.8490  -24.2460 O.2   124  PHE124     -0.2715
     27  CB        20.4740   -8.5960  -22.6400 C.3   124  PHE124      0.0574
     28  CG        20.9110   -8.7110  -21.2040 C.ar  124  PHE124     -0.0200
     29  CD1       22.1290   -9.2890  -20.8750 C.ar  124  PHE124     -0.0042
     30  CD2       20.1190   -8.2160  -20.1810 C.ar  124  PHE124     -0.0042
     31  CE1       22.5240   -9.4120  -19.5440 C.ar  124  PHE124     -0.0003
     32  CE2       20.5110   -8.3550  -18.8480 C.ar  124  PHE124     -0.0003
     33  CZ        21.7160   -8.9470  -18.5410 C.ar  124  PHE124     -0.0000
     34  N         20.4880  -12.1360  -22.8140 N.am  125  VAL125     -0.1963
     35  CA        21.2540  -13.3840  -22.9580 C.3   125  VAL125      0.1727
     36  C         20.2020  -14.4820  -22.8890 C.2   125  VAL125      0.2616
     37  O         19.4020  -14.4800  -21.9640 O.2   125  VAL125     -0.2715
     38  CB        22.3500  -13.6340  -21.8590 C.3   125  VAL125      0.0290
     39  CG1       23.1360  -14.9260  -22.1160 C.3   125  VAL125      0.0023
     40  CG2       23.2990  -12.4660  -21.7040 C.3   125  VAL125      0.0023
     41  N         20.2140  -15.4170  -23.8380 N.am  126  GLU126     -0.1977
     42  CA        19.2950  -16.5300  -23.8150 C.3   126  GLU126      0.1602
     43  C         19.7840  -17.5580  -22.8030 C.2   126  GLU126      0.2287
     44  O         20.9600  -17.9600  -22.8100 O.2   126  GLU126     -0.2864
     45  CB        19.1340  -17.1760  -25.1970 C.3   126  GLU126      0.0415
     46  CG        18.1280  -18.3340  -25.1870 C.3   126  GLU126      0.1163
     47  CD        18.0380  -19.2540  -26.3940 C.2   126  GLU126      0.3649
     48  OE1       19.0870  -19.5860  -26.9960 O.co2 126  GLU126     -0.2457
     49  OE2       16.9010  -19.6530  -26.7320 O.co2 126  GLU126     -0.2457
     50  N         13.1370  -22.3520  -21.6830 N.3   235  THR235     -0.1203
     51  CA        13.9230  -21.2930  -22.2610 C.3   235  THR235      0.1994
     52  C         13.4510  -19.9360  -21.7200 C.2   235  THR235      0.2619
     53  O         12.2590  -19.6750  -21.5930 O.2   235  THR235     -0.2717
     54  CB        13.9910  -21.4390  -23.8000 C.3   235  THR235      0.1784
     55  OG1       15.2280  -20.9040  -24.2750 O.3   235  THR235     -0.2211
     56  CG2       12.8370  -20.7990  -24.5150 C.3   235  THR235      0.0376
     57  N         14.4100  -19.1270  -21.3060 N.am  236  THR236     -0.1938
     58  CA        14.1790  -17.7910  -20.7530 C.3   236  THR236      0.2028
     59  C         15.3910  -16.9410  -21.1180 C.2   236  THR236      0.2642
     60  O         16.1120  -17.2640  -22.0530 O.2   236  THR236     -0.2714
     61  CB        13.8040  -17.8460  -19.2240 C.3   236  THR236      0.1808
     62  OG1       13.5550  -16.5330  -18.7210 O.3   236  THR236     -0.2208
     63  CG2       14.8540  -18.5090  -18.3650 C.3   236  THR236      0.0379
     64  N         15.6020  -15.8660  -20.4010 N.am  237  GLY237     -0.1954
     65  CA        16.7580  -15.0270  -20.6090 C.3   237  GLY237      0.1869
     66  C         17.1640  -14.2960  -19.3630 C.2   237  GLY237      0.2309
     67  O         16.4010  -14.2480  -18.3990 O.2   237  GLY237     -0.2863
     68  N         17.9540   -3.2800  -27.2150 N.3   257  LEU257     -0.1245
     69  CA        17.5350   -3.6310  -28.5770 C.3   257  LEU257      0.1561
     70  C         18.4230   -2.9110  -29.6040 C.2   257  LEU257      0.2260
     71  O         18.6910   -3.4620  -30.6800 O.2   257  LEU257     -0.2867
     72  CB        16.0360   -3.3100  -28.7960 C.3   257  LEU257      0.0270
     73  CG        15.0600   -4.1950  -28.0230 C.3   257  LEU257      0.0019
     74  CD1       13.7540   -3.5070  -27.7860 C.3   257  LEU257      0.0001
     75  CD2       14.8680   -5.5250  -28.7000 C.3   257  LEU257      0.0001
     76  N         21.7030   -4.8880  -29.6560 N.3   260  VAL260     -0.1245
     77  CA        21.5360   -6.1100  -30.4600 C.3   260  VAL260      0.1561
     78  C         21.5970   -5.7280  -31.9620 C.2   260  VAL260      0.2260
     79  O         22.3660   -6.3270  -32.7250 O.2   260  VAL260     -0.2867
     80  CB        20.2450   -6.9270  -30.1280 C.3   260  VAL260      0.0252
     81  CG1       20.2250   -8.2430  -30.9010 C.3   260  VAL260      0.0019
     82  CG2       20.1060   -7.1880  -28.6310 C.3   260  VAL260      0.0019
     83  N         26.1410   -6.1940  -29.1600 N.3   265  MET265     -0.1245
     84  CA        25.8520   -7.3930  -28.3770 C.3   265  MET265      0.1570
     85  C         26.6730   -8.5900  -28.8150 C.2   265  MET265      0.2261
     86  O         27.2230   -9.2770  -27.9480 O.2   265  MET265     -0.2867
     87  CB        24.3570   -7.7340  -28.3990 C.3   265  MET265      0.0387
     88  CG        23.5830   -7.1150  -27.2400 C.3   265  MET265      0.0595
     89  SD        23.8990   -7.8360  -25.5990 S.3   265  MET265     -0.1393
     90  CE        23.8620   -9.5600  -25.9920 C.3   265  MET265      0.0692
     91  N         29.5540  -11.1540  -26.8260 N.3   269  GLU269     -0.1245
     92  CA        29.4430  -12.6050  -26.8480 C.3   269  GLU269      0.1567
     93  C         30.7560  -13.1830  -27.3410 C.2   269  GLU269      0.2260
     94  O         31.2250  -14.1890  -26.8030 O.2   269  GLU269     -0.2867
     95  CB        28.2840  -13.0500  -27.7540 C.3   269  GLU269      0.0388
     96  CG        26.9280  -12.4340  -27.4070 C.3   269  GLU269      0.1160
     97  CD        25.7740  -12.7030  -28.3560 C.2   269  GLU269      0.3649
     98  OE1       24.6460  -12.2450  -28.0590 O.co2 269  GLU269     -0.2457
     99  OE2       25.9870  -13.3860  -29.3840 O.co2 269  GLU269     -0.2457
@<TRIPOS>BOND
     1    79    78    2
     2    78    77    1
     3    81    80    1
     4    71    70    2
     5    77    80    1
     6    77    76    1
     7    80    82    1
     8    70    69    1
     9    99    97   ar
    10    83    84    1
    11    85    84    1
    12    85    86    2
    13    72    69    1
    14    72    73    1
    15    75    73    1
    16    69    68    1
    17    87    84    1
    18    87    88    1
    19    97    98   ar
    20    97    96    1
    21    73    74    1
    22    95    96    1
    23    95    92    1
    24    93    92    1
    25    93    94    2
    26    88    89    1
    27    48    47   ar
    28    92    91    1
    29    49    47   ar
    30    47    46    1
    31    90    89    1
    32    45    46    1
    33    45    42    1
    34    56    54    1
    35    14    13    1
    36    55    54    1
    37    26    25    2
    38    19    18    2
    39    15    13    1
    40    13    10    1
    41    41    42    1
    42    41    36   am
    43    42    43    1
    44    54    51    1
    45    21    22    1
    46    21    20    1
    47    25    24    1
    48    25    34   am
    49    24    27    1
    50    24    23    1
    51    22    16    1
    52    18    23   am
    53    18    17    1
    54    35    36    1
    55    35    34    1
    56    35    38    1
    57    36    37    2
    58    44    43    2
    59    27    28    1
    60    20    17    1
    61    10    11    1
    62    10     9    1
    63    16    11   am
    64    16    17    1
    65    51    52    1
    66    51    50    1
    67    11    12    2
    68    39    38    1
    69    60    59    2
    70    38    40    1
    71    52    53    2
    72    52    57   am
    73    57    58    1
    74    28    29   ar
    75    28    30   ar
    76    59    58    1
    77    59    64   am
    78    29    31   ar
    79    58    61    1
    80    65    64    1
    81    65    66    1
    82    30    32   ar
    83    31    33   ar
    84    66    67    2
    85    61    62    1
    86    61    63    1
    87     8     6    1
    88    32    33   ar
    89     6     5    1
    90     7     5    1
    91     5     2    1
    92     4     3    2
    93     2     1    1
    94     2     3    1
