@<TRIPOS>MOLECULE
tmp/5kdxA00.pdb
 120 116 0 0 0
SMALL
GASTEIGER

@<TRIPOS>ATOM
      1  N         50.6600   15.6830   13.2220 N.3   634  GLY634     -0.1225
      2  CA        49.6140   15.3990   14.2040 C.3   634  GLY634      0.1811
      3  C         48.3340   15.0120   13.4900 C.2   634  GLY634      0.2280
      4  O         47.9540   15.6620   12.5200 O.2   634  GLY634     -0.2866
      5  N         44.1800   13.4090   13.6830 N.3   636  SER636     -0.1217
      6  CA        42.9020   13.0860   14.3830 C.3   636  SER636      0.1889
      7  C         42.6020   11.5920   14.4530 C.2   636  SER636      0.2288
      8  O         43.0750   10.8330   13.6210 O.2   636  SER636     -0.2866
      9  CB        41.7200   13.7770   13.6820 C.3   636  SER636      0.2089
     10  OG        41.8050   15.1800   13.8330 O.3   636  SER636     -0.2183
     11  N         55.1050   16.2940   18.5780 N.3   644  TRP644     -0.1241
     12  CA        55.8770   17.3440   19.2690 C.3   644  TRP644      0.1605
     13  C         56.2130   16.9800   20.7240 C.2   644  TRP644      0.2264
     14  O         57.0840   17.6060   21.3390 O.2   644  TRP644     -0.2867
     15  CB        55.1150   18.6710   19.2480 C.3   644  TRP644      0.0550
     16  CG        53.6990   18.5750   19.7890 C.ar  644  TRP644      0.0003
     17  CD1       53.3170   18.7250   21.0640 C.ar  644  TRP644      0.0946
     18  CD2       52.5120   18.2900   19.0470 C.ar  644  TRP644      0.0152
     19  NE1       51.9550   18.5600   21.1890 N.ar  644  TRP644     -0.2442
     20  CE2       51.4390   18.2860   19.9570 C.ar  644  TRP644      0.0810
     21  CE3       52.2520   18.0340   17.6980 C.ar  644  TRP644      0.0012
     22  CZ2       50.1260   18.0360   19.5690 C.ar  644  TRP644      0.0191
     23  CZ3       50.9440   17.8000   17.3010 C.ar  644  TRP644      0.0001
     24  CH2       49.8940   17.8030   18.2410 C.ar  644  TRP644      0.0015
     25  N         47.3490   23.5850   22.6370 N.3   651  TRP651     -0.1227
     26  CA        46.1370   23.7960   21.8630 C.3   651  TRP651      0.1737
     27  C         45.7070   22.5250   21.1330 C.2   651  TRP651      0.2596
     28  O         44.5280   22.1860   21.0920 O.2   651  TRP651     -0.2718
     29  CB        46.3610   24.9220   20.8500 C.3   651  TRP651      0.0564
     30  CG        45.1510   25.1750   20.0370 C.ar  651  TRP651      0.0003
     31  CD1       44.7920   24.5590   18.8610 C.ar  651  TRP651      0.0946
     32  CD2       44.1050   26.0900   20.3430 C.ar  651  TRP651      0.0152
     33  NE1       43.5850   25.0390   18.4300 N.ar  651  TRP651     -0.2442
     34  CE2       43.1400   25.9800   19.3220 C.ar  651  TRP651      0.0810
     35  CE3       43.8910   26.9920   21.3760 C.ar  651  TRP651      0.0012
     36  CZ2       41.9890   26.7470   19.3000 C.ar  651  TRP651      0.0191
     37  CZ3       42.7270   27.7520   21.3570 C.ar  651  TRP651      0.0001
     38  CH2       41.8040   27.6320   20.3150 C.ar  651  TRP651      0.0015
     39  N         46.6640   21.8460   20.5200 N.am  652  GLY652     -0.1957
     40  CA        46.3860   20.6150   19.7770 C.3   652  GLY652      0.1869
     41  C         45.7710   19.5730   20.6760 C.2   652  GLY652      0.2309
     42  O         44.7620   18.9410   20.3270 O.2   652  GLY652     -0.2863
     43  N         42.0960   20.6320   21.4500 N.3   655  HIS655     -0.1226
     44  CA        41.3860   20.6200   20.1650 C.3   655  HIS655      0.1752
     45  C         40.9530   19.1940   19.7910 C.2   655  HIS655      0.2595
     46  O         39.7810   18.9200   19.5670 O.2   655  HIS655     -0.2718
     47  CB        42.2990   21.1840   19.0570 C.3   655  HIS655      0.0759
     48  CG        41.6730   21.1750   17.6990 C.ar  655  HIS655      0.0818
     49  ND1       40.9050   22.2190   17.2350 N.ar  655  HIS655     -0.2268
     50  CD2       41.6650   20.2350   16.7250 C.ar  655  HIS655      0.1154
     51  CE1       40.4730   21.9350   16.0200 C.ar  655  HIS655      0.1986
     52  NE2       40.9130   20.7340   15.6900 N.ar  655  HIS655     -0.2212
     53  N         41.9150   18.2850   19.7430 N.am  656  GLU656     -0.1979
     54  CA        41.6200   16.8840   19.4440 C.3   656  GLU656      0.1602
     55  C         40.7730   16.2100   20.5340 C.2   656  GLU656      0.2287
     56  O         39.8480   15.4400   20.2230 O.2   656  GLU656     -0.2864
     57  CB        42.9110   16.1210   19.1840 C.3   656  GLU656      0.0415
     58  CG        43.6710   16.6340   17.9570 C.3   656  GLU656      0.1163
     59  CD        42.8890   16.4920   16.6470 C.2   656  GLU656      0.3649
     60  OE1       42.1130   15.5220   16.4980 O.co2 656  GLU656     -0.2457
     61  OE2       43.0620   17.3320   15.7460 O.co2 656  GLU656     -0.2457
     62  N         37.2380   16.8680   19.8090 N.3   659  HIS659     -0.1241
     63  CA        36.5610   16.0450   18.8050 C.3   659  HIS659      0.1621
     64  C         35.8460   14.8410   19.3940 C.2   659  HIS659      0.2264
     65  O         34.7240   14.5650   19.0340 O.2   659  HIS659     -0.2867
     66  CB        37.5370   15.5890   17.7290 C.3   659  HIS659      0.0745
     67  CG        37.8500   16.6610   16.7490 C.ar  659  HIS659      0.0817
     68  ND1       36.8690   17.4140   16.1410 N.ar  659  HIS659     -0.2268
     69  CD2       39.0280   17.1260   16.2780 C.ar  659  HIS659      0.1154
     70  CE1       37.4260   18.2830   15.3210 C.ar  659  HIS659      0.1986
     71  NE2       38.7350   18.1280   15.3830 N.ar  659  HIS659     -0.2212
     72  N         34.8500   21.6220   12.9450 N.3   675  GLU675     -0.1245
     73  CA        36.1150   22.0870   13.5200 C.3   675  GLU675      0.1567
     74  C         35.8740   23.3320   14.3420 C.2   675  GLU675      0.2260
     75  O         36.8090   24.1220   14.5580 O.2   675  GLU675     -0.2867
     76  CB        37.1350   22.4020   12.4110 C.3   675  GLU675      0.0388
     77  CG        37.5900   21.1960   11.6060 C.3   675  GLU675      0.1160
     78  CD        38.5520   20.2580   12.3450 C.2   675  GLU675      0.3649
     79  OE1       39.1710   20.6300   13.3670 O.co2 675  GLU675     -0.2457
     80  OE2       38.7100   19.1160   11.8680 O.co2 675  GLU675     -0.2457
     81  N         36.1400   23.4220   19.6990 N.3   679  GLN679     -0.1245
     82  CA        37.0610   24.4850   20.1190 C.3   679  GLN679      0.1566
     83  C         36.6960   25.1070   21.4500 C.2   679  GLN679      0.2260
     84  O         37.5020   25.8240   22.0240 O.2   679  GLN679     -0.2867
     85  CB        37.1480   25.6010   19.0720 C.3   679  GLN679      0.0367
     86  CG        37.4930   25.1460   17.6490 C.3   679  GLN679      0.0905
     87  CD        38.9670   24.8520   17.4310 C.2   679  GLN679      0.2608
     88  OE1       39.6000   24.1750   18.2190 O.2   679  GLN679     -0.2717
     89  NE2       39.5070   25.3480   16.3370 N.am  679  GLN679     -0.0878
     90  N         42.7200   33.5290   18.2030 N.3   701  ARG701     -0.1245
     91  CA        41.8960   32.5240   17.5490 C.3   701  ARG701      0.1563
     92  C         40.4890   33.0170   17.2200 C.2   701  ARG701      0.2260
     93  O         39.9640   32.7340   16.1400 O.2   701  ARG701     -0.2867
     94  CB        41.7760   31.3030   18.4470 C.3   701  ARG701      0.0307
     95  CG        43.0530   30.4840   18.5610 C.3   701  ARG701      0.0489
     96  CD        43.1480   29.5260   17.3880 C.3   701  ARG701      0.2205
     97  NE        44.4020   28.7790   17.3190 N.pl3 701  ARG701     -0.0865
     98  CZ        44.6640   27.8410   16.3990 C.cat 701  ARG701      0.5346
     99  NH1       43.7620   27.5200   15.4590 N.pl3 701  ARG701      0.1354
    100  NH2       45.8320   27.2130   16.4210 N.pl3 701  ARG701      0.1354
    101  N         38.2450   23.8660    7.1210 N.3   735  TYR735     -0.1241
    102  CA        38.6220   24.8660    8.1420 C.3   735  TYR735      0.1605
    103  C         38.1360   26.2670    7.7820 C.2   735  TYR735      0.2264
    104  O         38.6310   27.2520    8.3290 O.2   735  TYR735     -0.2867
    105  CB        40.1550   24.8960    8.3570 C.3   735  TYR735      0.0534
    106  CG        40.7110   23.5490    8.7240 C.ar  735  TYR735     -0.0201
    107  CD1       40.8690   23.1670   10.0510 C.ar  735  TYR735     -0.0009
    108  CD2       41.0320   22.6330    7.7310 C.ar  735  TYR735     -0.0009
    109  CE1       41.3540   21.9110   10.3700 C.ar  735  TYR735      0.0417
    110  CE2       41.5110   21.3720    8.0360 C.ar  735  TYR735      0.0417
    111  CZ        41.6710   21.0140    9.3530 C.ar  735  TYR735      0.1957
    112  OH        42.1530   19.7550    9.6130 O.3   735  TYR735     -0.2866
    113  N         37.1330   29.6580   10.3130 N.3   738  ASN738     -0.1240
    114  CA        37.2210   28.9720   11.5810 C.3   738  ASN738      0.1653
    115  C         37.1260   29.9980   12.7120 C.2   738  ASN738      0.2266
    116  O         36.2770   29.8860   13.5810 O.2   738  ASN738     -0.2867
    117  CB        38.5030   28.1450   11.6460 C.3   738  ASN738      0.1155
    118  CG        38.4840   27.0930   12.7490 C.2   738  ASN738      0.2627
    119  OD1       39.0200   27.3130   13.8350 O.2   738  ASN738     -0.2716
    120  ND2       37.8970   25.9350   12.4610 N.am  738  ASN738     -0.0877
@<TRIPOS>BOND
     1   101   102    1
     2   108   110   ar
     3   108   106   ar
     4   103   102    1
     5   103   104    2
     6   110   111   ar
     7   102   105    1
     8   105   106    1
     9   106   107   ar
    10   111   112    1
    11   111   109   ar
    12   107   109   ar
    13   113   114    1
    14   114   117    1
    15   114   115    1
    16    77    78    1
    17    77    76    1
    18   117   118    1
    19    80    78   ar
    20    78    79   ar
    21    76    73    1
    22   120   118   am
    23     4     3    2
    24   115   116    2
    25   118   119    2
    26    72    73    1
    27     1     2    1
    28     3     2    1
    29    73    74    1
    30     8     7    2
    31     9    10    1
    32     9     6    1
    33     5     6    1
    34    74    75    2
    35     6     7    1
    36    70    71   ar
    37    70    68   ar
    38    71    69   ar
    39    99    98    1
    40    52    51   ar
    41    52    50   ar
    42    61    59   ar
    43    51    49   ar
    44    93    92    2
    45    68    67   ar
    46    69    67   ar
    47    89    87   am
    48    98   100    1
    49    98    97    2
    50    60    59   ar
    51    59    58    1
    52    50    48   ar
    53    67    66    1
    54    92    91    1
    55    49    48   ar
    56    23    21   ar
    57    23    24   ar
    58    97    96    1
    59    96    95    1
    60    87    86    1
    61    87    88    2
    62    91    90    1
    63    91    94    1
    64    86    85    1
    65    21    18   ar
    66    48    47    1
    67    66    63    1
    68    58    57    1
    69    24    22   ar
    70    33    31   ar
    71    33    34   ar
    72    94    95    1
    73    11    12    1
    74    63    64    1
    75    63    62    1
    76    31    30   ar
    77    65    64    2
    78    18    16   ar
    79    18    20   ar
    80    47    44    1
    81    85    82    1
    82    57    54    1
    83    15    12    1
    84    15    16    1
    85    12    13    1
    86    36    34   ar
    87    36    38   ar
    88    34    32   ar
    89    54    53    1
    90    54    55    1
    91    46    45    2
    92    22    20   ar
    93    81    82    1
    94    53    45   am
    95    40    39    1
    96    40    41    1
    97    16    17   ar
    98    45    44    1
    99    20    19   ar
   100    30    32   ar
   101    30    29    1
   102    82    83    1
   103    44    43    1
   104    56    55    2
   105    38    37   ar
   106    42    41    2
   107    32    35   ar
   108    39    27   am
   109    13    14    2
   110    29    26    1
   111    17    19   ar
   112    28    27    2
   113    27    26    1
   114    37    35   ar
   115    83    84    2
   116    26    25    1
