@<TRIPOS>MOLECULE
tmp/5ke0A00.pdb
 177 166 0 0 0
SMALL
GASTEIGER

@<TRIPOS>ATOM
      1  N         41.4790   10.1150    5.8900 N.3    14  ILE14      -0.1231
      2  CA        42.1970    9.8130    7.1410 C.3    14  ILE14       0.1692
      3  C         41.6580   10.7260    8.2340 C.2    14  ILE14       0.2593
      4  O         41.2460   10.2370    9.2860 O.2    14  ILE14      -0.2718
      5  CB        43.7450    9.9260    7.0290 C.3    14  ILE14       0.0266
      6  CG1       44.3050    8.8740    6.0700 C.3    14  ILE14       0.0019
      7  CG2       44.4130    9.8050    8.4410 C.3    14  ILE14       0.0020
      8  CD1       45.7610    9.0450    5.7510 C.3    14  ILE14       0.0001
      9  N         41.7460   12.0480    8.0250 N.am   15  GLY15      -0.1942
     10  CA        41.2720   13.0290    8.9970 C.3    15  GLY15       0.2014
     11  C         41.1750   14.4340    8.4060 C.2    15  GLY15       0.2639
     12  O         41.4940   14.6510    7.2290 O.2    15  GLY15      -0.2714
     13  N         40.7180   15.3900    9.2190 N.am   16  GLU16      -0.1963
     14  CA        40.5990   16.7760    8.7780 C.3    16  GLU16       0.1733
     15  C         40.7130   17.7690    9.9060 C.2    16  GLU16       0.2616
     16  O         40.5730   17.4180   11.0810 O.2    16  GLU16      -0.2715
     17  CB        39.2940   17.0010    7.9790 C.3    16  GLU16       0.0429
     18  CG        38.0230   17.0320    8.8110 C.3    16  GLU16       0.1163
     19  CD        36.7670   17.0530    7.9670 C.2    16  GLU16       0.3649
     20  OE1       36.4850   16.0330    7.2990 O.co2  16  GLU16      -0.2457
     21  OE2       36.0740   18.0960    7.9560 O.co2  16  GLU16      -0.2457
     22  N         40.9610   19.0260    9.5280 N.am   17  GLY17      -0.1955
     23  CA        41.0510   20.1500   10.4520 C.3    17  GLY17       0.1869
     24  C         40.2120   21.2960    9.9070 C.2    17  GLY17       0.2309
     25  O         39.4280   21.1120    8.9650 O.2    17  GLY17      -0.2863
     26  N         42.1430   22.0980    6.3600 N.3    20  GLY20      -0.1210
     27  CA        42.8710   21.0580    5.6490 C.3    20  GLY20       0.1956
     28  C         42.2750   19.6710    5.8550 C.2    20  GLY20       0.2612
     29  O         41.4660   19.4580    6.7600 O.2    20  GLY20      -0.2717
     30  N         42.6920   18.7380    5.0100 N.am   21  MET21      -0.1965
     31  CA        42.2360   17.3480    5.0410 C.3    21  MET21       0.1736
     32  C         43.3680   16.4560    4.6030 C.2    21  MET21       0.2616
     33  O         43.9950   16.7410    3.5840 O.2    21  MET21      -0.2715
     34  CB        41.0410   17.1690    4.0990 C.3    21  MET21       0.0427
     35  CG        40.5240   15.7430    4.0300 C.3    21  MET21       0.0599
     36  SD        39.2120   15.5380    2.7990 S.3    21  MET21      -0.1393
     37  CE        37.9350   16.5200    3.5410 C.3    21  MET21       0.0692
     38  N         43.5720   15.3380    5.3090 N.am   22  VAL22      -0.1977
     39  CA        44.6410   14.3970    4.9850 C.3    22  VAL22       0.1596
     40  C         44.0240   13.0730    4.5230 C.2    22  VAL22       0.2287
     41  O         43.0570   12.6020    5.1230 O.2    22  VAL22      -0.2864
     42  CB        45.7020   14.2740    6.1130 C.3    22  VAL22       0.0276
     43  CG1       45.0960   13.7990    7.4350 C.3    22  VAL22       0.0022
     44  CG2       46.8810   13.3950    5.6860 C.3    22  VAL22       0.0022
     45  N         50.7130    9.7650    2.3600 N.3    35  ALA35      -0.1245
     46  CA        49.7040   10.6160    2.9600 C.3    35  ALA35       0.1562
     47  C         49.8010   11.9440    2.2380 C.2    35  ALA35       0.2260
     48  O         50.9030   12.3740    1.8920 O.2    35  ALA35      -0.2867
     49  CB        49.9860   10.8240    4.4450 C.3    35  ALA35       0.0290
     50  N         48.2200   15.8930    2.5200 N.3    37  LYS37      -0.1245
     51  CA        47.4440   16.8870    3.2630 C.3    37  LYS37       0.1561
     52  C         47.0870   18.0730    2.3580 C.2    37  LYS37       0.2260
     53  O         47.9770   18.8310    2.0050 O.2    37  LYS37      -0.2867
     54  CB        48.2640   17.3560    4.4900 C.3    37  LYS37       0.0271
     55  CG        47.6750   18.4590    5.3470 C.3    37  LYS37       0.0035
     56  CD        48.7760   18.9130    6.2920 C.3    37  LYS37       0.0206
     57  CE        48.3320   19.7270    7.4470 C.3    37  LYS37       0.1093
     58  NZ        49.4240   19.8070    8.4400 N.3    37  LYS37      -0.1314
     59  N         54.8160   25.8150    9.0090 N.3    54  GLU54      -0.1245
     60  CA        54.9500   24.3560    8.8990 C.3    54  GLU54       0.1567
     61  C         55.8510   23.9580    7.7310 C.2    54  GLU54       0.2260
     62  O         56.7070   23.0880    7.8850 O.2    54  GLU54      -0.2867
     63  CB        53.5990   23.6580    8.7840 C.3    54  GLU54       0.0388
     64  CG        53.7630   22.1560    8.5360 C.3    54  GLU54       0.1160
     65  CD        52.5210   21.3170    8.7660 C.2    54  GLU54       0.3649
     66  OE1       52.5630   20.3870    9.6030 O.co2  54  GLU54      -0.2457
     67  OE2       51.5420   21.5140    8.0140 O.co2  54  GLU54      -0.2457
     68  N         57.9850   13.8200   11.0000 N.3    67  ILE67      -0.1245
     69  CA        57.4300   13.6480    9.6570 C.3    67  ILE67       0.1561
     70  C         58.1630   14.5890    8.6740 C.2    67  ILE67       0.2260
     71  O         58.4650   15.7330    9.0020 O.2    67  ILE67      -0.2867
     72  CB        55.8990   13.9210    9.6440 C.3    67  ILE67       0.0252
     73  CG1       55.2320   13.2940    8.4160 C.3    67  ILE67       0.0019
     74  CG2       55.6290   15.4350    9.6900 C.3    67  ILE67       0.0019
     75  CD1       55.2680   11.7440    8.4190 C.3    67  ILE67       0.0001
     76  N         53.4680   13.3640    2.4870 N.3    88  GLN88      -0.1231
     77  CA        54.2830   12.8980    3.6020 C.3    88  GLN88       0.1698
     78  C         54.2770   11.3760    3.6570 C.2    88  GLN88       0.2592
     79  O         53.5020   10.7160    2.9780 O.2    88  GLN88      -0.2718
     80  CB        53.7360   13.4720    4.9120 C.3    88  GLN88       0.0381
     81  CG        53.6750   15.0080    4.8920 C.3    88  GLN88       0.0905
     82  CD        53.1900   15.5660    6.1800 C.2    88  GLN88       0.2608
     83  OE1       52.0680   15.2790    6.5950 O.2    88  GLN88      -0.2717
     84  NE2       53.9400   16.4830    6.7650 N.am   88  GLN88      -0.0878
     85  N         55.1180   10.8270    4.5140 N.am   89  ASP89      -0.1960
     86  CA        55.1050    9.3840    4.7250 C.3    89  ASP89       0.1840
     87  C         53.7590    8.9620    5.3030 C.2    89  ASP89       0.2622
     88  O         53.1830    9.6750    6.1280 O.2    89  ASP89      -0.2715
     89  CB        56.2130    8.9590    5.6830 C.3    89  ASP89       0.1450
     90  CG        57.6090    9.0600    5.1300 C.2    89  ASP89       0.3671
     91  OD1       57.7570    9.0830    3.8890 O.co2  89  ASP89      -0.2456
     92  OD2       58.5560    9.0990    5.9360 O.co2  89  ASP89      -0.2456
     93  N         53.2340    7.8230    4.8180 N.am   90  LEU90      -0.1963
     94  CA        51.9930    7.2790    5.3430 C.3    90  LEU90       0.1728
     95  C         52.3760    6.3370    6.4810 C.2    90  LEU90       0.2616
     96  O         53.1540    5.4070    6.2730 O.2    90  LEU90      -0.2715
     97  CB        51.2240    6.4980    4.2660 C.3    90  LEU90       0.0311
     98  CG        49.9060    5.8620    4.6990 C.3    90  LEU90       0.0022
     99  CD1       48.8880    6.9040    5.0610 C.3    90  LEU90       0.0001
    100  CD2       49.3450    5.0050    3.5870 C.3    90  LEU90       0.0001
    101  N         51.7900    6.5450    7.6530 N.am   91  MET91      -0.1963
    102  CA        52.0220    5.6800    8.8030 C.3    91  MET91       0.1736
    103  C         50.7710    4.8220    8.9510 C.2    91  MET91       0.2616
    104  O         49.8400    4.9720    8.1660 O.2    91  MET91      -0.2715
    105  CB        52.3290    6.5330   10.0260 C.3    91  MET91       0.0427
    106  CG        53.6090    7.3710    9.8540 C.3    91  MET91       0.0599
    107  SD        55.1130    6.3750    9.8600 S.3    91  MET91      -0.1393
    108  CE        55.3560    6.1790   11.6950 C.3    91  MET91       0.0692
    109  N         50.7470    3.9010    9.9050 N.am   92  GLU92      -0.1963
    110  CA        49.6140    2.9890   10.0660 C.3    92  GLU92       0.1733
    111  C         48.5270    3.4620   10.9680 C.2    92  GLU92       0.2617
    112  O         47.3700    3.0740   10.7860 O.2    92  GLU92      -0.2715
    113  CB        50.1020    1.6380   10.5420 C.3    92  GLU92       0.0429
    114  CG        50.9370    0.9760    9.4690 C.3    92  GLU92       0.1163
    115  CD        51.3010   -0.4400    9.8140 C.2    92  GLU92       0.3649
    116  OE1       50.3970   -1.3060    9.8020 O.co2  92  GLU92      -0.2457
    117  OE2       52.4930   -0.6860   10.0940 O.co2  92  GLU92      -0.2457
    118  N         48.8920    4.2230   12.0070 N.am   93  THR93      -0.1937
    119  CA        47.9270    4.7340   12.9500 C.3    93  THR93       0.2028
    120  C         48.5590    5.9220   13.7040 C.2    93  THR93       0.2642
    121  O         49.6460    6.4090   13.3460 O.2    93  THR93      -0.2714
    122  CB        47.5040    3.5830   13.9070 C.3    93  THR93       0.1808
    123  OG1       46.3310    3.9990   14.5930 O.3    93  THR93      -0.2208
    124  CG2       48.6230    3.1920   14.8990 C.3    93  THR93       0.0379
    125  N         47.8570    6.4060   14.6990 N.am   94  ASP94      -0.1971
    126  CA        48.3830    7.4430   15.5660 C.3    94  ASP94       0.1709
    127  C         48.1410    6.9800   17.0030 C.2    94  ASP94       0.2293
    128  O         47.4010    6.0200   17.2390 O.2    94  ASP94      -0.2864
    129  CB        47.8490    8.8240   15.2270 C.3    94  ASP94       0.1436
    130  CG        46.3720    8.9950   15.4170 C.2    94  ASP94       0.3671
    131  OD1       45.8660    8.5880   16.4790 O.co2  94  ASP94      -0.2456
    132  OD2       45.7280    9.5900   14.5270 O.co2  94  ASP94      -0.2456
    133  N         44.3720    6.8950   18.2540 N.3    97  LYS97      -0.1245
    134  CA        43.6090    5.7270   17.8240 C.3    97  LYS97       0.1561
    135  C         44.0990    4.4680   18.5500 C.2    97  LYS97       0.2260
    136  O         43.2800    3.6560   18.9730 O.2    97  LYS97      -0.2867
    137  CB        43.7250    5.5290   16.2980 C.3    97  LYS97       0.0271
    138  CG        43.0060    6.5940   15.4920 C.3    97  LYS97       0.0035
    139  CD        43.1260    6.3100   14.0050 C.3    97  LYS97       0.0206
    140  CE        42.7640    7.4820   13.1310 C.3    97  LYS97       0.1093
    141  NZ        42.9360    7.1560   11.6890 N.3    97  LYS97      -0.1314
    142  N         47.1690   12.3610   18.9000 N.3   136  SER136     -0.1202
    143  CA        46.8290   12.3180   17.4700 C.3   136  SER136      0.2020
    144  C         47.9390   12.8450   16.5450 C.2   136  SER136      0.2618
    145  O         47.8880   12.5750   15.3480 O.2   136  SER136     -0.2717
    146  CB        45.5170   13.0440   17.2140 C.3   136  SER136      0.2103
    147  OG        45.6600   14.4240   17.5000 O.3   136  SER136     -0.2182
    148  N         48.9540   13.5720   17.0990 N.am  137  ASN137     -0.1974
    149  CA        50.1010   14.0680   16.3510 C.3   137  ASN137      0.1688
    150  C         51.3260   13.1810   16.4980 C.2   137  ASN137      0.2292
    151  O         52.3890   13.5700   16.0370 O.2   137  ASN137     -0.2864
    152  CB        50.4160   15.5040   16.7710 C.3   137  ASN137      0.1181
    153  CG        49.3950   16.4770   16.2600 C.2   137  ASN137      0.2629
    154  OD1       48.7010   16.2130   15.2540 O.2   137  ASN137     -0.2716
    155  ND2       49.3200   17.6380   16.8820 N.am  137  ASN137     -0.0877
    156  N         52.4960    9.6840   15.1640 N.3   139  LEU139     -0.1245
    157  CA        52.1690    8.6490   14.1820 C.3   139  LEU139      0.1561
    158  C         52.9940    7.4290   14.4160 C.2   139  LEU139      0.2260
    159  O         54.1530    7.5450   14.7930 O.2   139  LEU139     -0.2867
    160  CB        52.4230    9.1680   12.7830 C.3   139  LEU139      0.0270
    161  CG        51.7680   10.5150   12.4220 C.3   139  LEU139      0.0019
    162  CD1       52.0780   10.8500   11.0180 C.3   139  LEU139      0.0001
    163  CD2       50.2770   10.4990   12.6620 C.3   139  LEU139      0.0001
    164  N         54.1310   14.7470   13.9950 N.3   149  CYS149     -0.1221
    165  CA        53.6010   15.5040   12.8750 C.3   149  CYS149      0.1808
    166  C         52.8120   16.7370   13.3630 C.2   149  CYS149      0.2601
    167  O         52.7100   16.9940   14.5590 O.2   149  CYS149     -0.2717
    168  CB        52.7570   14.6160   11.9780 C.3   149  CYS149      0.0970
    169  SG        51.1380   14.2450   12.6670 S.3   149  CYS149     -0.0800
    170  N         52.3400   17.5290   12.4080 N.am  150  ASP150     -0.1973
    171  CA        51.4790   18.7020   12.6120 C.3   150  ASP150      0.1709
    172  C         52.2060   19.8380   13.2820 C.2   150  ASP150      0.2293
    173  O         52.0760   20.0570   14.4900 O.2   150  ASP150     -0.2864
    174  CB        50.1770   18.4100   13.3240 C.3   150  ASP150      0.1436
    175  CG        49.1470   19.5590   13.1630 C.2   150  ASP150      0.3671
    176  OD1       49.5210   20.6360   12.6370 O.co2 150  ASP150     -0.2456
    177  OD2       47.9720   19.3370   13.4490 O.co2 150  ASP150     -0.2456
@<TRIPOS>BOND
     1    48    47    2
     2    53    52    2
     3    47    46    1
     4    52    51    1
     5    45    46    1
     6    76    77    1
     7    50    51    1
     8    36    37    1
     9    36    35    1
    10    46    49    1
    11    79    78    2
    12    51    54    1
    13    33    32    2
    14   100    98    1
    15    77    78    1
    16    77    80    1
    17    78    85   am
    18    91    90   ar
    19    35    34    1
    20    34    31    1
    21    97    98    1
    22    97    94    1
    23    54    55    1
    24    85    86    1
    25    40    39    1
    26    40    41    2
    27    32    31    1
    28    32    38   am
    29    98    99    1
    30    86    87    1
    31    86    89    1
    32    93    87   am
    33    93    94    1
    34    81    80    1
    35    81    82    1
    36    39    38    1
    37    39    42    1
    38    30    31    1
    39    30    28   am
    40    90    89    1
    41    90    92   ar
    42    87    88    2
    43    94    95    1
    44    55    56    1
    45    27    28    1
    46    27    26    1
    47    44    42    1
    48     8     6    1
    49    28    29    2
    50     1     2    1
    51     6     5    1
    52    42    43    1
    53    82    83    2
    54    82    84   am
    55    96    95    2
    56    56    57    1
    57    95   101   am
    58     5     2    1
    59     5     7    1
    60     2     3    1
    61    12    11    2
    62    20    19   ar
    63    57    58    1
    64   101   102    1
    65    61    62    2
    66    61    60    1
    67    21    19   ar
    68    19    18    1
    69    17    14    1
    70    17    18    1
    71    67    65   ar
    72     9     3   am
    73     9    10    1
    74   104   103    2
    75     3     4    2
    76    11    10    1
    77    11    13   am
    78    73    75    1
    79    73    72    1
    80    64    65    1
    81    64    63    1
    82    70    71    2
    83    70    69    1
    84    65    66   ar
    85    14    13    1
    86    14    15    1
    87    63    60    1
    88   102   103    1
    89   102   105    1
    90    60    59    1
    91   103   109   am
    92    25    24    2
    93   114   115    1
    94   114   113    1
    95    22    15   am
    96    22    23    1
    97    72    69    1
    98    72    74    1
    99    69    68    1
   100   116   115   ar
   101   115   117   ar
   102   106   107    1
   103   106   105    1
   104   107   108    1
   105   109   110    1
   106    15    16    2
   107    24    23    1
   108   110   113    1
   109   110   111    1
   110   112   111    2
   111   111   118   am
   112   162   161    1
   113   141   140    1
   114   168   169    1
   115   168   165    1
   116   118   119    1
   117   170   171    1
   118   170   166   am
   119   161   163    1
   120   161   160    1
   121   171   172    1
   122   171   174    1
   123   176   175   ar
   124   160   157    1
   125   165   166    1
   126   165   164    1
   127   119   120    1
   128   119   122    1
   129   140   139    1
   130   175   174    1
   131   175   177   ar
   132   172   173    2
   133   121   120    2
   134   166   167    2
   135   120   125   am
   136   122   123    1
   137   122   124    1
   138   139   138    1
   139   157   158    1
   140   157   156    1
   141   158   159    2
   142   132   130   ar
   143   125   126    1
   144   129   130    1
   145   129   126    1
   146   154   153    2
   147   145   144    2
   148   130   131   ar
   149   138   137    1
   150   126   127    1
   151   151   150    2
   152   153   152    1
   153   153   155   am
   154   137   134    1
   155   149   150    1
   156   149   152    1
   157   149   148    1
   158   144   148   am
   159   144   143    1
   160   127   128    2
   161   146   143    1
   162   146   147    1
   163   143   142    1
   164   134   133    1
   165   134   135    1
   166   135   136    2
