@<TRIPOS>MOLECULE
tmp/5kegA00.pdb
 181 182 0 0 0
SMALL
GASTEIGER

@<TRIPOS>ATOM
      1  N         18.6110    4.2720  137.5500 N.3    17  ILE17      -0.1231
      2  CA        17.5730    3.5870  136.7900 C.3    17  ILE17       0.1692
      3  C         17.4120    4.3200  135.4770 C.2    17  ILE17       0.2593
      4  O         16.9690    5.4750  135.4610 O.2    17  ILE17      -0.2718
      5  CB        16.2300    3.5400  137.5440 C.3    17  ILE17       0.0266
      6  CG1       16.3740    2.7750  138.8550 C.3    17  ILE17       0.0019
      7  CG2       15.1090    2.9030  136.6760 C.3    17  ILE17       0.0020
      8  CD1       15.1390    2.9150  139.7800 C.3    17  ILE17       0.0001
      9  N         17.7470    3.6500  134.3780 N.am   18  GLY18      -0.1942
     10  CA        17.5110    4.2220  133.0610 C.3    18  GLY18       0.2014
     11  C         16.0800    4.0260  132.6100 C.2    18  GLY18       0.2639
     12  O         15.3910    3.0950  133.0300 O.2    18  GLY18      -0.2714
     13  N         15.6350    4.9440  131.7490 N.am   19  ARG19      -0.1963
     14  CA        14.3140    4.9270  131.1410 C.3    19  ARG19       0.1729
     15  C         14.4450    5.1690  129.6410 C.2    19  ARG19       0.2616
     16  O         15.4430    5.7180  129.1740 O.2    19  ARG19      -0.2715
     17  CB        13.4160    5.9970  131.7570 C.3    19  ARG19       0.0348
     18  CG        13.3830    5.9920  133.2860 C.3    19  ARG19       0.0492
     19  CD        12.8020    4.6990  133.8660 C.3    19  ARG19       0.2205
     20  NE        11.5350    4.3240  133.2320 N.pl3  19  ARG19      -0.0865
     21  CZ        10.3480    4.8270  133.5540 C.cat  19  ARG19       0.5346
     22  NH1        9.2630    4.4130  132.9180 N.pl3  19  ARG19       0.1354
     23  NH2       10.2400    5.7530  134.4990 N.pl3  19  ARG19       0.1354
     24  N         13.4140    4.7790  128.8860 N.am   20  HIS20      -0.1959
     25  CA        13.3300    5.0230  127.4400 C.3    20  HIS20       0.1787
     26  C         12.6730    6.3590  127.1270 C.2    20  HIS20       0.2620
     27  O         11.9170    6.4940  126.1500 O.2    20  HIS20      -0.2715
     28  CB        12.5800    3.8860  126.7350 C.3    20  HIS20       0.0785
     29  CG        13.2560    2.5510  126.8370 C.ar   20  HIS20       0.0821
     30  ND1       14.3110    2.1860  126.0310 N.ar   20  HIS20      -0.2267
     31  CD2       13.0280    1.4940  127.6550 C.ar   20  HIS20       0.1154
     32  CE1       14.7070    0.9650  126.3490 C.ar   20  HIS20       0.1986
     33  NE2       13.9460    0.5240  127.3350 N.ar   20  HIS20      -0.2212
     34  N         12.9400    7.3580  127.9620 N.am   21  LYS21      -0.1963
     35  CA        12.4730    8.7140  127.7630 C.3    21  LYS21       0.1728
     36  C         13.5240    9.6570  128.3300 C.2    21  LYS21       0.2616
     37  O         14.4190    9.2460  129.0710 O.2    21  LYS21      -0.2715
     38  CB        11.1340    8.9370  128.4500 C.3    21  LYS21       0.0311
     39  CG         9.9750    8.1560  127.8420 C.3    21  LYS21       0.0038
     40  CD         8.5920    8.6100  128.3780 C.3    21  LYS21       0.0206
     41  CE         8.3120   10.0430  127.9310 C.3    21  LYS21       0.1093
     42  NZ         6.8800   10.4070  127.8450 N.3    21  LYS21      -0.1314
     43  N         13.3700   10.9440  128.0290 N.am   22  THR22      -0.1951
     44  CA        14.2160   11.9670  128.6080 C.3    22  THR22       0.1897
     45  C         13.3640   13.1310  129.0770 C.2    22  THR22       0.2313
     46  O         12.5370   13.6490  128.3190 O.2    22  THR22      -0.2863
     47  CB        15.2860   12.4580  127.5910 C.3    22  THR22       0.1794
     48  OG1       16.0940   11.3510  127.1680 O.3    22  THR22      -0.2208
     49  CG2       16.1910   13.4630  128.2610 C.3    22  THR22       0.0378
     50  N         11.1530   14.4400  125.8020 N.3    48  ASN48      -0.1225
     51  CA        11.3720   14.2560  124.3740 C.3    48  ASN48       0.1785
     52  C         10.0480   13.9260  123.6580 C.2    48  ASN48       0.2597
     53  O          9.0830   13.4470  124.2620 O.2    48  ASN48      -0.2718
     54  CB        12.4020   13.1450  124.1430 C.3    48  ASN48       0.1169
     55  CG        11.9420   11.7910  124.6870 C.2    48  ASN48       0.2627
     56  OD1       11.7170   11.6290  125.8920 O.2    48  ASN48      -0.2716
     57  ND2       11.8460   10.8010  123.8010 N.am   48  ASN48      -0.0877
     58  N          9.9930   14.2320  122.3590 N.am   49  GLN49      -0.1965
     59  CA         8.9200   13.7110  121.5170 C.3    49  GLN49       0.1733
     60  C          9.3280   12.3060  121.1010 C.2    49  GLN49       0.2616
     61  O         10.3760   12.1140  120.4700 O.2    49  GLN49      -0.2715
     62  CB         8.6560   14.6140  120.3160 C.3    49  GLN49       0.0408
     63  CG         7.4700   14.0510  119.4850 C.3    49  GLN49       0.0908
     64  CD         7.1650   14.8900  118.2600 C.2    49  GLN49       0.2608
     65  OE1        6.7560   16.0390  118.3920 O.2    49  GLN49      -0.2717
     66  NE2        7.5050   14.3610  117.1030 N.am   49  GLN49      -0.0878
     67  N          8.5370   11.3280  121.5320 N.am   50  ALA50      -0.1963
     68  CA         8.8600    9.9140  121.3820 C.3    50  ALA50       0.1728
     69  C          8.8870    9.4810  119.9220 C.2    50  ALA50       0.2616
     70  O          8.0560    9.9040  119.1160 O.2    50  ALA50      -0.2715
     71  CB         7.8220    9.0740  122.1250 C.3    50  ALA50       0.0334
     72  N          9.8240    8.5930  119.5910 N.am   51  LYS51      -0.1977
     73  CA         9.7920    7.9750  118.2740 C.3    51  LYS51       0.1596
     74  C          8.4880    7.2030  118.1100 C.2    51  LYS51       0.2287
     75  O          7.9780    6.5960  119.0550 O.2    51  LYS51      -0.2864
     76  CB        10.9930    7.0470  118.0760 C.3    51  LYS51       0.0298
     77  CG        12.2590    7.9270  118.0140 C.3    51  LYS51       0.0038
     78  CD        13.5340    7.1190  117.8900 C.3    51  LYS51       0.0206
     79  CE        14.7820    7.9510  117.7080 C.3    51  LYS51       0.1093
     80  NZ        14.6740    9.2850  118.3320 N.3    51  LYS51      -0.1314
     81  N         14.7180   14.7750  120.3680 N.3    61  HIS61      -0.1226
     82  CA        15.3220   14.6720  121.6780 C.3    61  HIS61       0.1752
     83  C         15.0370   15.9130  122.5010 C.2    61  HIS61       0.2596
     84  O         14.7790   16.9970  121.9730 O.2    61  HIS61      -0.2718
     85  CB        16.8110   14.4140  121.5540 C.3    61  HIS61       0.0759
     86  CG        17.1080   13.0320  121.0920 C.ar   61  HIS61       0.0818
     87  ND1       18.3850   12.5690  120.8730 N.ar   61  HIS61      -0.2268
     88  CD2       16.2720   12.0130  120.7710 C.ar   61  HIS61       0.1154
     89  CE1       18.3290   11.3130  120.4620 C.ar   61  HIS61       0.1986
     90  NE2       17.0570   10.9510  120.3970 N.ar   61  HIS61      -0.2212
     91  N         15.0300   15.7230  123.8230 N.am   62  ALA62      -0.1966
     92  CA        14.5660   16.7760  124.7120 C.3    62  ALA62       0.1728
     93  C         15.3290   18.0740  124.4950 C.2    62  ALA62       0.2616
     94  O         14.7350   19.1610  124.5310 O.2    62  ALA62      -0.2715
     95  CB        14.6950   16.3010  126.1510 C.3    62  ALA62       0.0334
     96  N         16.6510   17.9820  124.2690 N.am   63  ALA63      -0.1977
     97  CA        17.4790   19.1870  124.1440 C.3    63  ALA63       0.1597
     98  C         16.9930   20.0800  123.0260 C.2    63  ALA63       0.2287
     99  O         16.9380   21.3030  123.1780 O.2    63  ALA63      -0.2864
    100  CB        18.9320   18.8040  123.8940 C.3    63  ALA63       0.0319
    101  N         18.7080   17.5190  133.2010 N.3    87  ILE87      -0.1245
    102  CA        18.3030   16.6060  132.1500 C.3    87  ILE87       0.1561
    103  C         18.5840   15.1910  132.6250 C.2    87  ILE87       0.2260
    104  O         19.6500   14.9250  133.1850 O.2    87  ILE87      -0.2867
    105  CB        19.0650   16.9270  130.8370 C.3    87  ILE87       0.0252
    106  CG1       18.4320   16.2150  129.6510 C.3    87  ILE87       0.0019
    107  CG2       20.5490   16.5340  130.9280 C.3    87  ILE87       0.0019
    108  CD1       19.0180   16.6140  128.3130 C.3    87  ILE87       0.0001
    109  N         19.0500   12.3870  131.0010 N.3    89  TRP89      -0.1227
    110  CA        20.1260   11.7960  130.2040 C.3    89  TRP89       0.1737
    111  C         21.0250   12.8790  129.6250 C.2    89  TRP89       0.2596
    112  O         20.5410   13.9200  129.1710 O.2    89  TRP89      -0.2718
    113  CB        19.6030   10.9920  129.0160 C.3    89  TRP89       0.0564
    114  CG        18.9710    9.7260  129.3630 C.ar   89  TRP89       0.0003
    115  CD1       17.6480    9.4300  129.2700 C.ar   89  TRP89       0.0946
    116  CD2       19.6200    8.5480  129.8400 C.ar   89  TRP89       0.0152
    117  NE1       17.4280    8.1440  129.6580 N.ar   89  TRP89      -0.2442
    118  CE2       18.6190    7.5710  130.0200 C.ar   89  TRP89       0.0810
    119  CE3       20.9460    8.2200  130.1310 C.ar   89  TRP89       0.0012
    120  CZ2       18.9030    6.2830  130.4870 C.ar   89  TRP89       0.0191
    121  CZ3       21.2310    6.9480  130.5960 C.ar   89  TRP89       0.0001
    122  CH2       20.2160    5.9920  130.7670 C.ar   89  TRP89       0.0015
    123  N         22.3270   12.6220  129.6100 N.am   90  SER90      -0.1938
    124  CA        23.2310   13.5870  129.0090 C.3    90  SER90       0.2040
    125  C         23.0090   13.6460  127.5020 C.2    90  SER90       0.2485
    126  O         22.5380   12.6780  126.8950 O.2    90  SER90      -0.2729
    127  CB        24.6870   13.2420  129.2990 C.3    90  SER90       0.2129
    128  OG        25.0060   11.9370  128.8420 O.3    90  SER90      -0.2179
    129  N         23.3260   14.7750  126.8750 N.am   91  PRO91      -0.2715
    130  CA        22.9860   14.9410  125.4630 C.3    91  PRO91       0.1536
    131  C         23.7930   14.0220  124.5550 C.2    91  PRO91       0.2598
    132  O         24.9260   13.6390  124.8570 O.2    91  PRO91      -0.2715
    133  CB        23.3100   16.4170  125.1940 C.3    91  PRO91       0.0310
    134  CG        23.1490   17.0810  126.5400 C.3    91  PRO91       0.0237
    135  CD        23.7420   16.0510  127.4800 C.3    91  PRO91       0.0939
    136  N         23.1770   13.6620  123.4320 N.am   92  CYS92      -0.1968
    137  CA        23.7740   12.7570  122.4690 C.3    92  CYS92       0.1712
    138  C         24.5480   13.5270  121.4090 C.2    92  CYS92       0.2296
    139  O         24.3730   14.7400  121.2290 O.2    92  CYS92      -0.2864
    140  CB        22.7090   11.9000  121.7950 C.3    92  CYS92       0.0983
    141  SG        22.0290   12.6350  120.3100 S.3    92  CYS92      -0.0798
    142  N         24.6020    9.3160  132.4680 N.3   120  ILE120     -0.1231
    143  CA        25.3560    9.4590  131.2300 C.3   120  ILE120      0.1692
    144  C         24.7490    8.5320  130.2040 C.2   120  ILE120      0.2592
    145  O         24.6590    7.3210  130.4320 O.2   120  ILE120     -0.2718
    146  CB        26.8480    9.1620  131.4190 C.3   120  ILE120      0.0266
    147  CG1       27.4440   10.2210  132.3250 C.3   120  ILE120      0.0019
    148  CG2       27.5130    9.1300  130.0340 C.3   120  ILE120      0.0020
    149  CD1       28.7890    9.8910  132.8620 C.3   120  ILE120      0.0001
    150  N         24.3470    9.1150  129.0740 N.am  121  TYR121     -0.1962
    151  CA        23.7300    8.4040  127.9610 C.3   121  TYR121      0.1771
    152  C         24.8040    7.7290  127.0980 C.2   121  TYR121      0.2620
    153  O         25.0090    8.0540  125.9280 O.2   121  TYR121     -0.2715
    154  CB        22.8990    9.3920  127.1630 C.3   121  TYR121      0.0574
    155  CG        22.0020    8.7980  126.1050 C.ar  121  TYR121     -0.0198
    156  CD1       20.9760    7.9300  126.4420 C.ar  121  TYR121     -0.0009
    157  CD2       22.1590    9.1500  124.7620 C.ar  121  TYR121     -0.0009
    158  CE1       20.1220    7.3980  125.4610 C.ar  121  TYR121      0.0417
    159  CE2       21.3300    8.6290  123.7750 C.ar  121  TYR121      0.0417
    160  CZ        20.3140    7.7570  124.1300 C.ar  121  TYR121      0.1957
    161  OH        19.4980    7.2440  123.1570 O.3   121  TYR121     -0.2866
    162  N         25.5030    6.7480  127.6930 N.am  122  ASP122     -0.1957
    163  CA        26.5480    6.0550  126.9360 C.3   122  ASP122      0.1840
    164  C         25.9840    4.9930  126.0040 C.2   122  ASP122      0.2622
    165  O         26.7610    4.2350  125.4310 O.2   122  ASP122     -0.2715
    166  CB        27.6140    5.4360  127.8510 C.3   122  ASP122      0.1450
    167  CG        27.0410    4.5280  128.9370 C.2   122  ASP122      0.3671
    168  OD1       25.8440    4.2160  128.9040 O.co2 122  ASP122     -0.2456
    169  OD2       27.8130    4.1220  129.8370 O.co2 122  ASP122     -0.2456
    170  N         24.6620    4.9370  125.8430 N.am  123  TYR123     -0.1974
    171  CA        24.0600    4.2120  124.7250 C.3   123  TYR123      0.1639
    172  C         24.5430    4.7540  123.3880 C.2   123  TYR123      0.2290
    173  O         24.6730    3.9940  122.4230 O.2   123  TYR123     -0.2864
    174  CB        22.5370    4.3020  124.7830 C.3   123  TYR123      0.0560
    175  CG        21.8470    3.6430  123.6150 C.ar  123  TYR123     -0.0198
    176  CD1       21.9370    2.2750  123.4200 C.ar  123  TYR123     -0.0009
    177  CD2       21.1070    4.3790  122.7050 C.ar  123  TYR123     -0.0009
    178  CE1       21.3070    1.6540  122.3540 C.ar  123  TYR123      0.0417
    179  CE2       20.4760    3.7640  121.6320 C.ar  123  TYR123      0.0417
    180  CZ        20.5780    2.3980  121.4680 C.ar  123  TYR123      0.1957
    181  OH        19.9610    1.7650  120.4050 O.3   123  TYR123     -0.2866
@<TRIPOS>BOND
     1    66    64   am
     2    79    78    1
     3    79    80    1
     4    78    77    1
     5    77    76    1
     6    76    73    1
     7    74    73    1
     8    74    75    2
     9    64    65    2
    10    64    63    1
    11    73    72    1
    12    70    69    2
    13    63    62    1
    14    72    69   am
    15    69    68    1
    16   141   140    1
    17    62    59    1
    18    81    82    1
    19    90    89   ar
    20    90    88   ar
    21   181   180    1
    22    89    87   ar
    23    61    60    2
    24    88    86   ar
    25    87    86   ar
    26    86    85    1
    27    60    59    1
    28    60    67   am
    29   139   138    2
    30    68    67    1
    31    68    71    1
    32   138   137    1
    33   180   179   ar
    34   180   178   ar
    35    59    58    1
    36    85    82    1
    37   179   177   ar
    38    82    83    1
    39   140   137    1
    40    84    83    2
    41   178   176   ar
    42    58    52   am
    43   173   172    2
    44   137   136    1
    45    83    91   am
    46   177   175   ar
    47    98    99    2
    48    98    97    1
    49   161   160    1
    50   172   171    1
    51   176   175   ar
    52   136   131   am
    53   175   174    1
    54    52    53    2
    55    52    51    1
    56   159   160   ar
    57   159   157   ar
    58    57    55   am
    59    91    92    1
    60   100    97    1
    61   160   158   ar
    62    54    51    1
    63    54    55    1
    64    97    96    1
    65    96    93   am
    66    51    50    1
    67    93    94    2
    68    93    92    1
    69   131   132    2
    70   131   130    1
    71    55    56    2
    72    92    95    1
    73   171   174    1
    74   171   170    1
    75   157   155   ar
    76   133   130    1
    77   133   134    1
    78   165   164    2
    79   158   156   ar
    80   130   129    1
    81   170   164   am
    82   153   152    2
    83   164   163    1
    84    30    32   ar
    85    30    29   ar
    86   155   156   ar
    87   155   154    1
    88    27    26    2
    89    32    33   ar
    90   134   135    1
    91    28    29    1
    92    28    25    1
    93    29    31   ar
    94   129   135    1
    95   129   125   am
    96   126   125    2
    97   163   162    1
    98   163   166    1
    99   152   162   am
   100   152   151    1
   101    26    25    1
   102    26    34   am
   103   154   151    1
   104    48    47    1
   105    33    31   ar
   106    25    24    1
   107   125   124    1
   108    47    49    1
   109    47    44    1
   110    35    34    1
   111    35    36    1
   112    35    38    1
   113    39    40    1
   114    39    38    1
   115    42    41    1
   116   166   167    1
   117    41    40    1
   118   151   150    1
   119    43    36   am
   120    43    44    1
   121   108   106    1
   122    46    45    2
   123    36    37    2
   124    44    45    1
   125   128   127    1
   126    24    15   am
   127   168   167   ar
   128   167   169   ar
   129   124   127    1
   130   124   123    1
   131   113   114    1
   132   113   110    1
   133   150   144   am
   134   112   111    2
   135    16    15    2
   136   115   114   ar
   137   115   117   ar
   138   114   116   ar
   139   123   111   am
   140   111   110    1
   141    15    14    1
   142   106   105    1
   143   117   118   ar
   144   116   118   ar
   145   116   119   ar
   146   118   120   ar
   147   148   146    1
   148   119   121   ar
   149   144   145    2
   150   144   143    1
   151   110   109    1
   152   120   122   ar
   153   121   122   ar
   154   105   107    1
   155   105   102    1
   156    14    13    1
   157    14    17    1
   158   143   146    1
   159   143   142    1
   160   146   147    1
   161    13    11   am
   162    17    18    1
   163   102   103    1
   164   102   101    1
   165   147   149    1
   166    11    12    2
   167    11    10    1
   168   103   104    2
   169    22    21    1
   170    10     9    1
   171    20    21    2
   172    20    19    1
   173    18    19    1
   174    21    23    1
   175     9     3   am
   176     4     3    2
   177     3     2    1
   178     7     5    1
   179     2     5    1
   180     2     1    1
   181     5     6    1
   182     6     8    1
