@<TRIPOS>MOLECULE
tmp/5kejB03.pdb
 98 96 0 0 0
SMALL
GASTEIGER

@<TRIPOS>ATOM
      1  N         -6.0570    9.1250  -37.2640 N.3    83  SER83      -0.1202
      2  CA        -7.5050    8.9500  -37.3620 C.3    83  SER83       0.2020
      3  C         -8.1970    8.6320  -36.0320 C.2    83  SER83       0.2619
      4  O         -7.7240    7.8010  -35.2580 O.2    83  SER83      -0.2717
      5  CB        -7.8220    7.8430  -38.3490 C.3    83  SER83       0.2103
      6  OG        -7.5540    8.2740  -39.6690 O.3    83  SER83      -0.2182
      7  N         -9.3250    9.2930  -35.7840 N.am   84  ILE84      -0.1965
      8  CA       -10.1150    9.0220  -34.5940 C.3    84  ILE84       0.1727
      9  C        -11.2610    8.0600  -34.9030 C.2    84  ILE84       0.2616
     10  O        -11.4360    7.1140  -34.1830 O.2    84  ILE84      -0.2715
     11  CB       -10.6850   10.2960  -33.9690 C.3    84  ILE84       0.0290
     12  CG1       -9.5470   11.2480  -33.5930 C.3    84  ILE84       0.0022
     13  CG2      -11.4940    9.9500  -32.7080 C.3    84  ILE84       0.0023
     14  CD1       -8.7670   10.7700  -32.3780 C.3    84  ILE84       0.0001
     15  N        -12.0460    8.2930  -35.9510 N.am   85  LEU85      -0.1964
     16  CA       -13.0390    7.3040  -36.3560 C.3    85  LEU85       0.1713
     17  C        -12.3510    6.1930  -37.1510 C.2    85  LEU85       0.2458
     18  O        -11.3230    6.4430  -37.7770 O.2    85  LEU85      -0.2730
     19  CB       -14.1440    7.9360  -37.2020 C.3    85  LEU85       0.0310
     20  CG       -15.3370    8.5840  -36.4940 C.3    85  LEU85       0.0022
     21  CD1      -16.0500    7.5950  -35.5530 C.3    85  LEU85       0.0001
     22  CD2      -14.8970    9.8080  -35.7370 C.3    85  LEU85       0.0001
     23  N        -12.9130    4.9660  -37.1310 N.am   86  PRO86      -0.2727
     24  CA       -12.3680    3.8990  -37.9810 C.3    86  PRO86       0.1402
     25  C        -12.4600    4.2790  -39.4490 C.2    86  PRO86       0.2269
     26  O        -13.2920    5.1120  -39.8120 O.2    86  PRO86      -0.2865
     27  CB       -13.2670    2.6930  -37.6840 C.3    86  PRO86       0.0296
     28  CG       -13.9160    2.9970  -36.3530 C.3    86  PRO86       0.0237
     29  CD       -14.0500    4.5020  -36.3150 C.3    86  PRO86       0.0939
     30  N        -18.8000    1.9490  -34.2150 N.3    95  ALA95      -0.1245
     31  CA       -18.1450    2.7620  -33.2110 C.3    95  ALA95       0.1562
     32  C        -19.0890    3.9060  -32.8040 C.2    95  ALA95       0.2260
     33  O        -19.1710    4.2600  -31.6400 O.2    95  ALA95      -0.2867
     34  CB       -16.8280    3.2950  -33.7310 C.3    95  ALA95       0.0290
     35  N        -14.3270   -6.2450  -30.7090 N.3   143  LEU143     -0.1245
     36  CA       -13.9190   -5.1050  -31.5330 C.3   143  LEU143      0.1561
     37  C        -12.4120   -4.8480  -31.5310 C.2   143  LEU143      0.2260
     38  O        -11.8410   -4.4690  -32.5570 O.2   143  LEU143     -0.2867
     39  CB       -14.6510   -3.8560  -31.0730 C.3   143  LEU143      0.0270
     40  CG       -15.6080   -3.1920  -32.0590 C.3   143  LEU143      0.0019
     41  CD1      -16.6610   -4.1580  -32.5440 C.3   143  LEU143      0.0001
     42  CD2      -16.2520   -1.9910  -31.3750 C.3   143  LEU143      0.0001
     43  N        -10.0370   -0.1730  -28.2880 N.3   150  PHE150     -0.1227
     44  CA       -11.2550   -0.3030  -29.0790 C.3   150  PHE150      0.1736
     45  C        -10.9180    0.0590  -30.5140 C.2   150  PHE150      0.2596
     46  O        -11.5170   -0.4520  -31.4660 O.2   150  PHE150     -0.2718
     47  CB       -12.3570    0.6350  -28.5840 C.3   150  PHE150      0.0547
     48  CG       -13.1140    0.1610  -27.3710 C.ar  150  PHE150     -0.0202
     49  CD1      -14.1820   -0.7080  -27.5010 C.ar  150  PHE150     -0.0042
     50  CD2      -12.8220    0.6770  -26.1090 C.ar  150  PHE150     -0.0042
     51  CE1      -14.9140   -1.0990  -26.4020 C.ar  150  PHE150     -0.0003
     52  CE2      -13.5490    0.2940  -24.9960 C.ar  150  PHE150     -0.0003
     53  CZ       -14.5960   -0.5920  -25.1340 C.ar  150  PHE150     -0.0000
     54  N         -9.9510    0.9630  -30.6510 N.am  151  GLY151     -0.1957
     55  CA        -9.5720    1.4950  -31.9450 C.3   151  GLY151      0.1869
     56  C         -8.4530    0.7430  -32.6400 C.2   151  GLY151      0.2309
     57  O         -8.0470    1.1220  -33.7400 O.2   151  GLY151     -0.2863
     58  N         -4.0220    2.0860  -31.7600 N.3   154  LYS154     -0.1231
     59  CA        -4.0490    3.4530  -31.2420 C.3   154  LYS154      0.1693
     60  C         -5.4210    3.7330  -30.6540 C.2   154  LYS154      0.2592
     61  O         -6.3800    3.0440  -30.9830 O.2   154  LYS154     -0.2718
     62  CB        -3.7270    4.4660  -32.3480 C.3   154  LYS154      0.0285
     63  CG        -2.3720    4.2570  -33.0110 C.3   154  LYS154      0.0035
     64  CD        -2.3790    4.7110  -34.4760 C.3   154  LYS154      0.0206
     65  CE        -2.3460    6.2330  -34.6140 C.3   154  LYS154      0.1093
     66  NZ        -1.1820    6.8480  -33.9040 N.3   154  LYS154     -0.1314
     67  N         -5.5190    4.7300  -29.7760 N.am  155  ILE155     -0.1966
     68  CA        -6.8100    5.0120  -29.1700 C.3   155  ILE155      0.1727
     69  C         -7.7270    5.5560  -30.2230 C.2   155  ILE155      0.2617
     70  O         -7.3180    6.2920  -31.1330 O.2   155  ILE155     -0.2715
     71  CB        -6.7500    6.0020  -28.0060 C.3   155  ILE155      0.0290
     72  CG1       -6.1780    7.3410  -28.4470 C.3   155  ILE155      0.0022
     73  CG2       -5.9640    5.4270  -26.8260 C.3   155  ILE155      0.0023
     74  CD1       -6.2040    8.3510  -27.3130 C.3   155  ILE155      0.0001
     75  N         -8.9810    5.1630  -30.1120 N.am  156  GLY156     -0.1940
     76  CA        -9.9530    5.5670  -31.0890 C.3   156  GLY156      0.2014
     77  C        -11.1900    6.1960  -30.5080 C.2   156  GLY156      0.2639
     78  O        -11.2880    6.4150  -29.2920 O.2   156  GLY156     -0.2714
     79  N        -12.1150    6.5110  -31.4020 N.am  157  TYR157     -0.1959
     80  CA       -13.3850    7.1290  -31.0660 C.3   157  TYR157      0.1771
     81  C        -14.0610    6.5250  -29.8400 C.2   157  TYR157      0.2619
     82  O        -14.4000    7.2230  -28.8840 O.2   157  TYR157     -0.2715
     83  CB       -14.3000    7.0110  -32.2640 C.3   157  TYR157      0.0574
     84  CG       -15.6470    7.6740  -32.1070 C.ar  157  TYR157     -0.0198
     85  CD1      -15.7850    9.0460  -32.2400 C.ar  157  TYR157     -0.0009
     86  CD2      -16.7890    6.9180  -31.8690 C.ar  157  TYR157     -0.0009
     87  CE1      -17.0290    9.6560  -32.1310 C.ar  157  TYR157      0.0417
     88  CE2      -18.0290    7.5090  -31.7730 C.ar  157  TYR157      0.0417
     89  CZ       -18.1470    8.8840  -31.9060 C.ar  157  TYR157      0.1957
     90  OH       -19.3910    9.4690  -31.7980 O.3   157  TYR157     -0.2866
     91  N        -14.2220    5.2130  -29.8640 N.am  158  LEU158     -0.1977
     92  CA       -14.9130    4.5020  -28.8080 C.3   158  LEU158      0.1596
     93  C        -14.0670    4.4220  -27.5470 C.2   158  LEU158      0.2287
     94  O        -14.6030    4.4670  -26.4310 O.2   158  LEU158     -0.2864
     95  CB       -15.3130    3.1120  -29.2940 C.3   158  LEU158      0.0297
     96  CG       -16.3530    2.4100  -28.4230 C.3   158  LEU158      0.0022
     97  CD1      -17.5230    3.3460  -28.1070 C.3   158  LEU158      0.0001
     98  CD2      -16.8320    1.1380  -29.1330 C.3   158  LEU158      0.0001
@<TRIPOS>BOND
     1    26    25    2
     2     6     5    1
     3    25    24    1
     4     5     2    1
     5    24    27    1
     6    24    23    1
     7    18    17    2
     8    27    28    1
     9     2     1    1
    10     2     3    1
    11    19    20    1
    12    19    16    1
    13    17    23   am
    14    17    16    1
    15    23    29    1
    16    20    22    1
    17    20    21    1
    18    16    15    1
    19    28    29    1
    20     3     7   am
    21     3     4    2
    22    15     9   am
    23     7     8    1
    24     9     8    1
    25     9    10    2
    26    65    64    1
    27    65    66    1
    28     8    11    1
    29    64    63    1
    30    30    31    1
    31    11    12    1
    32    11    13    1
    33    57    56    2
    34    34    31    1
    35    12    14    1
    36    31    32    1
    37    63    62    1
    38    32    33    2
    39    56    55    1
    40    38    37    2
    41    41    40    1
    42    62    59    1
    43    83    84    1
    44    83    80    1
    45    85    87   ar
    46    85    84   ar
    47    87    89   ar
    48    84    86   ar
    49    40    42    1
    50    40    39    1
    51    55    54    1
    52    89    90    1
    53    89    88   ar
    54    86    88   ar
    55    58    59    1
    56    36    37    1
    57    36    39    1
    58    36    35    1
    59    46    45    2
    60    79    80    1
    61    79    77   am
    62    59    60    1
    63    70    69    2
    64    76    77    1
    65    76    75    1
    66    80    81    1
    67    61    60    2
    68    60    67   am
    69    54    45   am
    70    45    44    1
    71    77    78    2
    72    69    75   am
    73    69    68    1
    74    91    81   am
    75    91    92    1
    76    81    82    2
    77    67    68    1
    78    95    92    1
    79    95    96    1
    80    68    71    1
    81    98    96    1
    82    44    47    1
    83    44    43    1
    84    92    93    1
    85    47    48    1
    86    72    71    1
    87    72    74    1
    88    96    97    1
    89    71    73    1
    90    93    94    2
    91    49    48   ar
    92    49    51   ar
    93    48    50   ar
    94    51    53   ar
    95    50    52   ar
    96    53    52   ar
