@<TRIPOS>MOLECULE
tmp/5kewB00.pdb
 184 177 0 0 0
SMALL
GASTEIGER

@<TRIPOS>ATOM
      1  N        -29.3460    7.7430  -10.9890 N.3    10  TYR10      -0.1241
      2  CA       -28.7600    8.8330  -10.2240 C.3    10  TYR10       0.1605
      3  C        -29.6690   10.0460  -10.3330 C.2    10  TYR10       0.2264
      4  O        -30.4930   10.1510  -11.2460 O.2    10  TYR10      -0.2867
      5  CB       -27.3350    9.1650  -10.7030 C.3    10  TYR10       0.0534
      6  CG       -27.2520    9.8570  -12.0480 C.ar   10  TYR10      -0.0201
      7  CD1      -27.3710   11.2370  -12.1500 C.ar   10  TYR10      -0.0009
      8  CD2      -27.0370    9.1320  -13.2130 C.ar   10  TYR10      -0.0009
      9  CE1      -27.2920   11.8720  -13.3740 C.ar   10  TYR10       0.0417
     10  CE2      -26.9560    9.7600  -14.4410 C.ar   10  TYR10       0.0417
     11  CZ       -27.0850   11.1290  -14.5170 C.ar   10  TYR10       0.1957
     12  OH       -27.0060   11.7610  -15.7390 O.3    10  TYR10      -0.2866
     13  N        -32.7630   23.3450  -11.4460 N.3    19  TYR19      -0.1241
     14  CA       -32.6620   22.2790  -12.4360 C.3    19  TYR19       0.1605
     15  C        -32.3310   20.9540  -11.7630 C.2    19  TYR19       0.2264
     16  O        -31.4230   20.8760  -10.9300 O.2    19  TYR19      -0.2867
     17  CB       -31.5900   22.6150  -13.4740 C.3    19  TYR19       0.0534
     18  CG       -32.1230   23.2740  -14.7220 C.ar   19  TYR19      -0.0201
     19  CD1      -32.9120   22.5670  -15.6190 C.ar   19  TYR19      -0.0009
     20  CD2      -31.8390   24.6040  -15.0050 C.ar   19  TYR19      -0.0009
     21  CE1      -33.4030   23.1650  -16.7640 C.ar   19  TYR19       0.0417
     22  CE2      -32.3260   25.2110  -16.1480 C.ar   19  TYR19       0.0417
     23  CZ       -33.1070   24.4860  -17.0240 C.ar   19  TYR19       0.1957
     24  OH       -33.5950   25.0840  -18.1620 O.3    19  TYR19      -0.2866
     25  N        -32.2350   16.5070  -12.7620 N.3    21  HIS21      -0.1241
     26  CA       -32.4330   15.3410  -13.6150 C.3    21  HIS21       0.1621
     27  C        -32.5600   14.0970  -12.7500 C.2    21  HIS21       0.2264
     28  O        -31.7910   13.9110  -11.8030 O.2    21  HIS21      -0.2867
     29  CB       -31.2680   15.0920  -14.5930 C.3    21  HIS21       0.0745
     30  CG       -30.8380   16.2910  -15.3730 C.ar   21  HIS21       0.0817
     31  ND1      -29.5370   16.4620  -15.7960 N.ar   21  HIS21      -0.2268
     32  CD2      -31.5280   17.3610  -15.8330 C.ar   21  HIS21       0.1154
     33  CE1      -29.4410   17.5940  -16.4680 C.ar   21  HIS21       0.1986
     34  NE2      -30.6340   18.1580  -16.5070 N.ar   21  HIS21      -0.2212
     35  N        -32.2370   10.1380  -13.6410 N.3    23  VAL23      -0.1245
     36  CA       -31.6590    9.4380  -14.7790 C.3    23  VAL23       0.1561
     37  C        -31.5270    7.9600  -14.4470 C.2    23  VAL23       0.2260
     38  O        -30.9630    7.6000  -13.4070 O.2    23  VAL23      -0.2867
     39  CB       -30.2880   10.0260  -15.1580 C.3    23  VAL23       0.0252
     40  CG1      -29.7040    9.3020  -16.3610 C.3    23  VAL23       0.0019
     41  CG2      -30.4140   11.5190  -15.4320 C.3    23  VAL23       0.0019
     42  N        -30.7660    5.5080  -21.9660 N.3    38  ILE38      -0.1245
     43  CA       -30.7170    6.5030  -20.9020 C.3    38  ILE38       0.1561
     44  C        -32.0740    7.1870  -20.8490 C.2    38  ILE38       0.2260
     45  O        -32.4980    7.8100  -21.8310 O.2    38  ILE38      -0.2867
     46  CB       -29.5980    7.5290  -21.1300 C.3    38  ILE38       0.0252
     47  CG1      -28.2550    6.8220  -21.3380 C.3    38  ILE38       0.0019
     48  CG2      -29.5150    8.4970  -19.9530 C.3    38  ILE38       0.0019
     49  CD1      -27.2000    7.7030  -21.9670 C.3    38  ILE38       0.0001
     50  N        -34.3720    9.9890  -18.8820 N.3    40  ILE40      -0.1245
     51  CA       -34.1680   11.2040  -18.1060 C.3    40  ILE40       0.1561
     52  C        -35.5200   11.8470  -17.8440 C.2    40  ILE40       0.2260
     53  O        -36.3300   11.9980  -18.7660 O.2    40  ILE40      -0.2867
     54  CB       -33.2420   12.1920  -18.8400 C.3    40  ILE40       0.0252
     55  CG1      -31.8990   11.5350  -19.1670 C.3    40  ILE40       0.0019
     56  CG2      -33.0300   13.4500  -18.0040 C.3    40  ILE40       0.0019
     57  CD1      -31.2030   12.1630  -20.3430 C.3    40  ILE40       0.0001
     58  N        -36.6070   15.5060  -16.4500 N.3    42  GLU42      -0.1245
     59  CA       -35.9960   16.8110  -16.2400 C.3    42  GLU42       0.1567
     60  C        -36.9950   17.7430  -15.5680 C.2    42  GLU42       0.2260
     61  O        -38.1110   17.9270  -16.0660 O.2    42  GLU42      -0.2867
     62  CB       -35.5300   17.3970  -17.5740 C.3    42  GLU42       0.0388
     63  CG       -34.8530   18.7470  -17.4750 C.3    42  GLU42       0.1160
     64  CD       -34.5860   19.3500  -18.8360 C.2    42  GLU42       0.3649
     65  OE1      -35.4980   19.3140  -19.6900 O.co2  42  GLU42      -0.2457
     66  OE2      -33.4640   19.8470  -19.0570 O.co2  42  GLU42      -0.2457
     67  N        -40.4570   25.9390  -15.5750 N.3    47  GLU47      -0.1245
     68  CA       -40.9940   25.2020  -16.7090 C.3    47  GLU47       0.1567
     69  C        -41.5410   23.8720  -16.2140 C.2    47  GLU47       0.2260
     70  O        -41.1210   23.3530  -15.1760 O.2    47  GLU47      -0.2867
     71  CB       -39.9230   24.9910  -17.7870 C.3    47  GLU47       0.0388
     72  CG       -40.4250   24.3120  -19.0500 C.3    47  GLU47       0.1160
     73  CD       -39.3700   24.2590  -20.1380 C.2    47  GLU47       0.3649
     74  OE1      -38.2790   24.8340  -19.9390 O.co2  47  GLU47      -0.2457
     75  OE2      -39.6310   23.6410  -21.1920 O.co2  47  GLU47      -0.2457
     76  N        -36.8110   12.6110  -21.4900 N.3    52  TYR52      -0.1241
     77  CA       -35.9430   12.3160  -22.6190 C.3    52  TYR52       0.1605
     78  C        -35.5650   10.8440  -22.5880 C.2    52  TYR52       0.2264
     79  O        -35.2570   10.2960  -21.5260 O.2    52  TYR52      -0.2867
     80  CB       -34.6670   13.1680  -22.6020 C.3    52  TYR52       0.0534
     81  CG       -34.9040   14.6450  -22.8020 C.ar   52  TYR52      -0.0201
     82  CD1      -34.9060   15.2010  -24.0740 C.ar   52  TYR52      -0.0009
     83  CD2      -35.1200   15.4860  -21.7180 C.ar   52  TYR52      -0.0009
     84  CE1      -35.1210   16.5530  -24.2620 C.ar   52  TYR52       0.0417
     85  CE2      -35.3360   16.8390  -21.8950 C.ar   52  TYR52       0.0417
     86  CZ       -35.3360   17.3680  -23.1690 C.ar   52  TYR52       0.1957
     87  OH       -35.5500   18.7150  -23.3490 O.3    52  TYR52      -0.2866
     88  N        -32.8410    8.4030  -24.5190 N.3    54  VAL54      -0.1245
     89  CA       -31.6370    8.4680  -25.3390 C.3    54  VAL54       0.1561
     90  C        -31.1610    7.0420  -25.5810 C.2    54  VAL54       0.2260
     91  O        -30.6540    6.3850  -24.6630 O.2    54  VAL54      -0.2867
     92  CB       -30.5410    9.3120  -24.6760 C.3    54  VAL54       0.0252
     93  CG1      -29.3490    9.4600  -25.6020 C.3    54  VAL54       0.0019
     94  CG2      -31.0960   10.6760  -24.2790 C.3    54  VAL54       0.0019
     95  N        -32.5850   10.4910  -29.9420 N.3    77  VAL77      -0.1245
     96  CA       -33.1300   11.2420  -28.8170 C.3    77  VAL77       0.1561
     97  C        -34.6310   11.3910  -29.0240 C.2    77  VAL77       0.2260
     98  O        -35.0740   11.9060  -30.0580 O.2    77  VAL77      -0.2867
     99  CB       -32.4600   12.6160  -28.6680 C.3    77  VAL77       0.0252
    100  CG1      -33.0460   13.3700  -27.4770 C.3    77  VAL77       0.0019
    101  CG2      -30.9580   12.4570  -28.5110 C.3    77  VAL77       0.0019
    102  N        -36.4990   13.7470  -31.6010 N.3    89  TYR89      -0.1241
    103  CA       -36.0000   15.0810  -31.3050 C.3    89  TYR89       0.1605
    104  C        -34.6030   15.1990  -31.8940 C.2    89  TYR89       0.2264
    105  O        -33.8020   14.2680  -31.7810 O.2    89  TYR89      -0.2867
    106  CB       -35.9750   15.3120  -29.7870 C.3    89  TYR89       0.0534
    107  CG       -35.8550   16.7490  -29.3270 C.ar   89  TYR89      -0.0201
    108  CD1      -36.9330   17.6190  -29.4110 C.ar   89  TYR89      -0.0009
    109  CD2      -34.6770   17.2200  -28.7630 C.ar   89  TYR89      -0.0009
    110  CE1      -36.8330   18.9270  -28.9720 C.ar   89  TYR89       0.0417
    111  CE2      -34.5660   18.5260  -28.3220 C.ar   89  TYR89       0.0417
    112  CZ       -35.6460   19.3750  -28.4280 C.ar   89  TYR89       0.1957
    113  OH       -35.5380   20.6750  -27.9900 O.3    89  TYR89      -0.2866
    114  N        -29.1400   17.2580  -29.6020 N.3    92  PRO92      -0.2116
    115  CA       -28.3810   18.4230  -29.1340 C.3    92  PRO92       0.1372
    116  C        -26.8890   18.2120  -29.3400 C.2    92  PRO92       0.2244
    117  O        -26.4090   17.1040  -29.5860 O.2    92  PRO92      -0.2868
    118  CB       -28.7300   18.5200  -27.6440 C.3    92  PRO92       0.0268
    119  CG       -29.9300   17.6520  -27.4580 C.3    92  PRO92       0.0207
    120  CD       -29.8470   16.5890  -28.4990 C.3    92  PRO92       0.0892
    121  N        -24.5520   18.2290  -27.1710 N.3    94  SER94      -0.1202
    122  CA       -23.9720   17.3410  -26.1710 C.3    94  SER94       0.2020
    123  C        -24.1950   15.8680  -26.4900 C.2    94  SER94       0.2618
    124  O        -23.5320   15.0170  -25.8880 O.2    94  SER94      -0.2717
    125  CB       -24.5450   17.6650  -24.7930 C.3    94  SER94       0.2103
    126  OG       -25.9520   17.5150  -24.7810 O.3    94  SER94      -0.2182
    127  N        -25.1050   15.5480  -27.4020 N.am   95  ILE95      -0.1979
    128  CA       -25.3200   14.1770  -27.8530 C.3    95  ILE95       0.1595
    129  C        -24.5660   13.8960  -29.1450 C.2    95  ILE95       0.2287
    130  O        -23.7900   12.9440  -29.2250 O.2    95  ILE95      -0.2864
    131  CB       -26.8330   13.9000  -28.0160 C.3    95  ILE95       0.0276
    132  CG1      -27.5240   13.8560  -26.6480 C.3    95  ILE95       0.0022
    133  CG2      -27.0760   12.5960  -28.7930 C.3    95  ILE95       0.0022
    134  CD1      -27.1190   12.6830  -25.7730 C.3    95  ILE95       0.0001
    135  N        -20.9390   13.0260  -29.2020 N.3    98  LEU98      -0.1245
    136  CA       -20.5050   11.7170  -28.7290 C.3    98  LEU98       0.1561
    137  C        -20.3990   10.6850  -29.8450 C.2    98  LEU98       0.2260
    138  O        -19.8310    9.6120  -29.6200 O.2    98  LEU98      -0.2867
    139  CB       -21.4740   11.2000  -27.6600 C.3    98  LEU98       0.0270
    140  CG       -21.7250   12.1160  -26.4600 C.3    98  LEU98       0.0019
    141  CD1      -22.8610   11.5660  -25.6100 C.3    98  LEU98       0.0001
    142  CD2      -20.4630   12.2780  -25.6300 C.3    98  LEU98       0.0001
    143  N        -17.9840   10.1040  -18.4150 N.3   120  PHE120     -0.1227
    144  CA       -17.8490   11.3980  -19.0740 C.3   120  PHE120      0.1736
    145  C        -19.0640   12.3050  -18.9240 C.2   120  PHE120      0.2595
    146  O        -19.0180   13.4450  -19.3980 O.2   120  PHE120     -0.2718
    147  CB       -17.5530   11.1870  -20.5650 C.3   120  PHE120      0.0547
    148  CG       -18.5750   10.3440  -21.2700 C.ar  120  PHE120     -0.0202
    149  CD1      -18.4410    8.9660  -21.3200 C.ar  120  PHE120     -0.0042
    150  CD2      -19.6730   10.9270  -21.8760 C.ar  120  PHE120     -0.0042
    151  CE1      -19.3810    8.1880  -21.9610 C.ar  120  PHE120     -0.0003
    152  CE2      -20.6170   10.1540  -22.5190 C.ar  120  PHE120     -0.0003
    153  CZ       -20.4710    8.7820  -22.5620 C.ar  120  PHE120     -0.0000
    154  N        -20.1420   11.8480  -18.2910 N.am  121  PHE121     -0.1962
    155  CA       -21.2810   12.7300  -18.0710 C.3   121  PHE121      0.1771
    156  C        -20.8470   13.9580  -17.2830 C.2   121  PHE121      0.2620
    157  O        -20.0400   13.8680  -16.3530 O.2   121  PHE121     -0.2715
    158  CB       -22.3980   12.0020  -17.3200 C.3   121  PHE121      0.0574
    159  CG       -23.2270   11.0860  -18.1800 C.ar  121  PHE121     -0.0200
    160  CD1      -22.7980   10.6940  -19.4370 C.ar  121  PHE121     -0.0042
    161  CD2      -24.4500   10.6200  -17.7220 C.ar  121  PHE121     -0.0042
    162  CE1      -23.5700    9.8520  -20.2150 C.ar  121  PHE121     -0.0003
    163  CE2      -25.2250    9.7780  -18.4990 C.ar  121  PHE121     -0.0003
    164  CZ       -24.7840    9.3960  -19.7450 C.ar  121  PHE121     -0.0000
    165  N        -21.3830   15.1160  -17.6690 N.am  122  TYR122     -0.1960
    166  CA       -21.0940   16.3770  -16.9890 C.3   122  TYR122      0.1771
    167  C        -19.5940   16.6550  -16.9340 C.2   122  TYR122      0.2619
    168  O        -19.1170   17.3620  -16.0450 O.2   122  TYR122     -0.2715
    169  CB       -21.6890   16.3850  -15.5780 C.3   122  TYR122      0.0574
    170  CG       -23.1070   15.8680  -15.5270 C.ar  122  TYR122     -0.0198
    171  CD1      -24.1580   16.6220  -16.0300 C.ar  122  TYR122     -0.0009
    172  CD2      -23.3930   14.6250  -14.9830 C.ar  122  TYR122     -0.0009
    173  CE1      -25.4530   16.1530  -15.9930 C.ar  122  TYR122      0.0417
    174  CE2      -24.6860   14.1470  -14.9380 C.ar  122  TYR122      0.0417
    175  CZ       -25.7120   14.9150  -15.4460 C.ar  122  TYR122      0.1957
    176  OH       -27.0010   14.4460  -15.4070 O.3   122  TYR122     -0.2866
    177  N        -18.8430   16.0960  -17.8840 N.am  123  ASP123     -0.1971
    178  CA       -17.3880   16.2490  -17.9370 C.3   123  ASP123      0.1709
    179  C        -16.7040   15.6470  -16.7110 C.2   123  ASP123      0.2293
    180  O        -15.6360   16.1070  -16.2960 O.2   123  ASP123     -0.2864
    181  CB       -16.9870   17.7190  -18.0970 C.3   123  ASP123      0.1436
    182  CG       -17.4910   18.3240  -19.3920 C.2   123  ASP123      0.3671
    183  OD1      -17.6980   17.5660  -20.3630 O.co2 123  ASP123     -0.2456
    184  OD2      -17.6760   19.5590  -19.4390 O.co2 123  ASP123     -0.2456
@<TRIPOS>BOND
     1   104   105    2
     2   104   103    1
     3   102   103    1
     4   103   106    1
     5    98    97    2
     6    95    96    1
     7   137   138    2
     8   137   136    1
     9   106   107    1
    10   114   115    1
    11   114   120    1
    12   117   116    2
    13   108   107   ar
    14   108   110   ar
    15   116   115    1
    16   107   109   ar
    17   130   129    2
    18   135   136    1
    19   129   128    1
    20   115   118    1
    21    97    96    1
    22   110   112   ar
    23    96    99    1
    24   133   131    1
    25   109   111   ar
    26   136   139    1
    27    99   101    1
    28    99   100    1
    29   120   119    1
    30   112   111   ar
    31   112   113    1
    32   131   128    1
    33   131   132    1
    34   128   127    1
    35   139   140    1
    36   118   119    1
    37   127   123   am
    38   121   122    1
    39   132   134    1
    40   123   122    1
    41   123   124    2
    42   140   142    1
    43   140   141    1
    44   122   125    1
    45    93    92    1
    46    90    89    1
    47    90    91    2
    48    89    92    1
    49    89    88    1
    50   125   126    1
    51    92    94    1
    52    84    82   ar
    53    84    86   ar
    54    82    81   ar
    55    87    86    1
    56    86    85   ar
    57    81    80    1
    58    81    83   ar
    59    77    80    1
    60    77    78    1
    61    77    76    1
    62    78    79    2
    63   153   152   ar
    64   153   151   ar
    65   152   150   ar
    66    49    47    1
    67    42    43    1
    68   151   149   ar
    69    85    83   ar
    70   150   148   ar
    71    45    44    2
    72    47    46    1
    73   149   148   ar
    74   148   147    1
    75    75    73   ar
    76    46    43    1
    77    46    48    1
    78    43    44    1
    79   147   144    1
    80   183   182   ar
    81    57    55    1
    82   162   164   ar
    83   162   160   ar
    84    73    74   ar
    85    73    72    1
    86   164   163   ar
    87    65    64   ar
    88   184   182   ar
    89   160   159   ar
    90   146   145    2
    91   182   181    1
    92    55    54    1
    93   144   145    1
    94   144   143    1
    95    66    64   ar
    96    72    71    1
    97   145   154   am
    98    50    51    1
    99    54    51    1
   100    54    56    1
   101    64    63    1
   102    53    52    2
   103   163   161   ar
   104   154   155    1
   105   159   161   ar
   106   159   158    1
   107    24    23    1
   108    51    52    1
   109   181   178    1
   110   155   158    1
   111   155   156    1
   112   178   177    1
   113   178   179    1
   114   177   167   am
   115    71    68    1
   116   165   156   am
   117   165   166    1
   118    62    63    1
   119    62    59    1
   120   156   157    2
   121    23    21   ar
   122    23    22   ar
   123   166   167    1
   124   166   169    1
   125   167   168    2
   126    21    19   ar
   127   179   180    2
   128    68    69    1
   129    68    67    1
   130    34    33   ar
   131    34    32   ar
   132    33    31   ar
   133    58    59    1
   134    40    39    1
   135    59    60    1
   136    69    70    2
   137    22    20   ar
   138    61    60    2
   139   171   173   ar
   140   171   170   ar
   141   173   175   ar
   142    32    30   ar
   143    31    30   ar
   144    12    11    1
   145    19    18   ar
   146   169   170    1
   147   170   172   ar
   148   175   176    1
   149   175   174   ar
   150    41    39    1
   151    30    29    1
   152    39    36    1
   153    20    18   ar
   154   172   174   ar
   155    36    37    1
   156    36    35    1
   157    18    17    1
   158    29    26    1
   159    11    10   ar
   160    11     9   ar
   161    37    38    2
   162    10     8   ar
   163    26    25    1
   164    26    27    1
   165    17    14    1
   166     9     7   ar
   167     8     6   ar
   168    27    28    2
   169    14    15    1
   170    14    13    1
   171     7     6   ar
   172     6     5    1
   173    15    16    2
   174     4     3    2
   175     1     2    1
   176     5     2    1
   177     3     2    1
