@<TRIPOS>MOLECULE
tmp/5kf8A03.pdb
 197 199 0 0 0
SMALL
GASTEIGER

@<TRIPOS>ATOM
      1  N         21.8010   16.3180   21.2830 N.3   189  PHE189     -0.1241
      2  CA        20.3950   16.0960   21.0270 C.3   189  PHE189      0.1605
      3  C         19.6930   15.8010   22.3350 C.2   189  PHE189      0.2264
      4  O         19.2490   14.6760   22.5650 O.2   189  PHE189     -0.2867
      5  CB        20.1750   14.9720   20.0110 C.3   189  PHE189      0.0534
      6  CG        20.7890   15.2230   18.6620 C.ar  189  PHE189     -0.0203
      7  CD1       20.2490   16.1710   17.7900 C.ar  189  PHE189     -0.0042
      8  CD2       21.9190   14.5240   18.2680 C.ar  189  PHE189     -0.0042
      9  CE1       20.7970   16.3970   16.5510 C.ar  189  PHE189     -0.0003
     10  CE2       22.5050   14.7760   17.0370 C.ar  189  PHE189     -0.0003
     11  CZ        21.9280   15.7000   16.1690 C.ar  189  PHE189     -0.0000
     12  N         14.8960   13.3310   21.5680 N.3   193  TRP193     -0.1241
     13  CA        15.6090   12.1630   21.0890 C.3   193  TRP193      0.1605
     14  C         16.3460   11.4750   22.2440 C.2   193  TRP193      0.2264
     15  O         16.4040   10.2400   22.3110 O.2   193  TRP193     -0.2867
     16  CB        16.5640   12.5690   19.9520 C.3   193  TRP193      0.0550
     17  CG        15.8690   12.8430   18.6230 C.ar  193  TRP193      0.0003
     18  CD1       14.5350   12.7460   18.3650 C.ar  193  TRP193      0.0946
     19  CD2       16.4800   13.2230   17.3780 C.ar  193  TRP193      0.0152
     20  NE1       14.2730   13.0710   17.0580 N.ar  193  TRP193     -0.2442
     21  CE2       15.4400   13.3420   16.4160 C.ar  193  TRP193      0.0810
     22  CE3       17.8100   13.4730   16.9710 C.ar  193  TRP193      0.0012
     23  CZ2       15.6780   13.7090   15.0830 C.ar  193  TRP193      0.0191
     24  CZ3       18.0450   13.8380   15.6440 C.ar  193  TRP193      0.0001
     25  CH2       16.9820   13.9560   14.7130 C.ar  193  TRP193      0.0015
     26  N         15.1760    8.2500   14.3090 N.3   252  PRO252     -0.2102
     27  CA        15.9130    9.4120   13.8170 C.3   252  PRO252      0.1504
     28  C         17.3900    9.1570   13.4600 C.2   252  PRO252      0.2576
     29  O         17.8890    8.0320   13.5750 O.2   252  PRO252     -0.2718
     30  CB        15.9010   10.3590   15.0070 C.3   252  PRO252      0.0282
     31  CG        15.6300    9.5250   16.2210 C.3   252  PRO252      0.0208
     32  CD        14.8080    8.3460   15.7370 C.3   252  PRO252      0.0893
     33  N         18.0450   10.2140   12.9860 N.am  253  ILE253     -0.1966
     34  CA        19.4640   10.2030   12.5580 C.3   253  ILE253      0.1727
     35  C         20.0110   11.6210   12.8260 C.2   253  ILE253      0.2617
     36  O         19.3220   12.6240   12.5860 O.2   253  ILE253     -0.2715
     37  CB        19.5900    9.7880   11.0850 C.3   253  ILE253      0.0290
     38  CG1       21.0440    9.6920   10.6360 C.3   253  ILE253      0.0022
     39  CG2       18.8880   10.7810   10.1910 C.3   253  ILE253      0.0023
     40  CD1       21.2060    9.0700    9.2780 C.3   253  ILE253      0.0001
     41  N         21.2120   11.7110   13.4090 N.am  254  GLY254     -0.1940
     42  CA        21.8380   12.9970   13.6720 C.3   254  GLY254      0.2014
     43  C         23.3450   12.8990   13.8130 C.2   254  GLY254      0.2638
     44  O         23.8360   11.8420   14.2080 O.2   254  GLY254     -0.2714
     45  N         24.0160   14.0270   13.5400 N.am  255  ILE255     -0.1977
     46  CA        25.4640   14.2390   13.6410 C.3   255  ILE255      0.1596
     47  C         25.7130   15.5060   14.4730 C.2   255  ILE255      0.2287
     48  O         25.0090   16.4920   14.3650 O.2   255  ILE255     -0.2864
     49  CB        26.0180   14.5000   12.2310 C.3   255  ILE255      0.0276
     50  CG1       25.8830   13.2240   11.3750 C.3   255  ILE255      0.0022
     51  CG2       27.4340   15.0380   12.2260 C.3   255  ILE255      0.0022
     52  CD1       26.8480   12.1080   11.6960 C.3   255  ILE255      0.0001
     53  N         30.5230   18.6390   13.2230 N.3   259  TYR259     -0.1227
     54  CA        30.9330   17.7320   12.1270 C.3   259  TYR259      0.1736
     55  C         30.0350   17.7360   10.8850 C.2   259  TYR259      0.2595
     56  O         30.1730   16.9140    9.9800 O.2   259  TYR259     -0.2718
     57  CB        30.9580   16.2850   12.6420 C.3   259  TYR259      0.0548
     58  CG        32.1170   16.0220   13.5640 C.ar  259  TYR259     -0.0200
     59  CD1       33.3140   15.5110   13.0770 C.ar  259  TYR259     -0.0009
     60  CD2       32.0350   16.3100   14.9050 C.ar  259  TYR259     -0.0009
     61  CE1       34.3900   15.2490   13.9180 C.ar  259  TYR259      0.0417
     62  CE2       33.0980   16.0590   15.7520 C.ar  259  TYR259      0.0417
     63  CZ        34.2720   15.5250   15.2500 C.ar  259  TYR259      0.1957
     64  OH        35.3250   15.2970   16.0990 O.3   259  TYR259     -0.2866
     65  N         29.0800   18.6540   10.8580 N.am  260  ARG260     -0.1966
     66  CA        28.1010   18.6770    9.7760 C.3   260  ARG260      0.1729
     67  C         28.6760   19.2190    8.4760 C.2   260  ARG260      0.2616
     68  O         29.7180   19.8680    8.4600 O.2   260  ARG260     -0.2715
     69  CB        26.8800   19.4770   10.2220 C.3   260  ARG260      0.0348
     70  CG        25.9510   18.5920   11.0100 C.3   260  ARG260      0.0492
     71  CD        24.7350   19.3140   11.5530 C.3   260  ARG260      0.2205
     72  NE        24.2580   18.7130   12.8080 N.pl3 260  ARG260     -0.0865
     73  CZ        23.3750   19.2740   13.6210 C.cat 260  ARG260      0.5346
     74  NH1       22.8350   20.4390   13.2730 N.pl3 260  ARG260      0.1354
     75  NH2       23.0010   18.6800   14.7660 N.pl3 260  ARG260      0.1354
     76  N         27.9690   18.9740    7.3880 N.am  261  LYS261     -0.1963
     77  CA        28.3930   19.4330    6.0830 C.3   261  LYS261      0.1728
     78  C         29.7980   18.9520    5.6570 C.2   261  LYS261      0.2616
     79  O         30.5010   19.6440    4.9310 O.2   261  LYS261     -0.2715
     80  CB        28.1830   20.9650    5.9950 C.3   261  LYS261      0.0311
     81  CG        26.7050   21.3640    6.0100 C.3   261  LYS261      0.0038
     82  CD        25.9400   20.5570    4.9490 C.3   261  LYS261      0.0206
     83  CE        25.0430   21.3640    4.0230 C.3   261  LYS261      0.1093
     84  NZ        23.9360   21.9650    4.7970 N.3   261  LYS261     -0.1314
     85  N         30.1630   17.7320    6.0500 N.am  262  GLN262     -0.1963
     86  CA        31.3670   17.0640    5.5860 C.3   262  GLN262      0.1733
     87  C         31.1070   15.7480    4.9220 C.2   262  GLN262      0.2617
     88  O         32.0710   15.0350    4.6310 O.2   262  GLN262     -0.2715
     89  CB        32.2850   16.7010    6.7420 C.3   262  GLN262      0.0408
     90  CG        32.7250   17.8740    7.5590 C.3   262  GLN262      0.0908
     91  CD        33.6520   17.4660    8.6960 C.2   262  GLN262      0.2608
     92  OE1       34.2780   16.3960    8.6970 O.2   262  GLN262     -0.2717
     93  NE2       33.7260   18.3270    9.6760 N.am  262  GLN262     -0.0878
     94  N         29.8510   15.3700    4.7010 N.am  263  GLY263     -0.1940
     95  CA        29.5790   14.0850    4.0990 C.3   263  GLY263      0.2014
     96  C         29.4480   12.9740    5.1330 C.2   263  GLY263      0.2639
     97  O         29.2450   11.8360    4.7670 O.2   263  GLY263     -0.2714
     98  N         29.5400   13.2960    6.4200 N.am  264  LEU264     -0.1963
     99  CA        29.4420   12.3000    7.4510 C.3   264  LEU264      0.1728
    100  C         28.0090   11.8100    7.6890 C.2   264  LEU264      0.2617
    101  O         27.8020   10.6530    7.9920 O.2   264  LEU264     -0.2715
    102  CB        30.0720   12.7940    8.7400 C.3   264  LEU264      0.0311
    103  CG        31.5870   13.0370    8.5650 C.3   264  LEU264      0.0022
    104  CD1       32.1640   13.7650    9.7620 C.3   264  LEU264      0.0001
    105  CD2       32.3210   11.7410    8.2790 C.3   264  LEU264      0.0001
    106  N         27.0140   12.6700    7.5580 N.am  265  GLY265     -0.1940
    107  CA        25.6060   12.2130    7.5910 C.3   265  GLY265      0.2014
    108  C         25.2950   11.2690    6.4510 C.2   265  GLY265      0.2638
    109  O         24.6900   10.2140    6.6230 O.2   265  GLY265     -0.2714
    110  N         25.8040   11.6120    5.2670 N.am  266  ARG266     -0.1977
    111  CA        25.5940   10.7700    4.1320 C.3   266  ARG266      0.1597
    112  C         26.2660    9.3970    4.3600 C.2   266  ARG266      0.2287
    113  O         25.7150    8.3620    4.0220 O.2   266  ARG266     -0.2864
    114  CB        26.0700   11.5160    2.8660 C.3   266  ARG266      0.0334
    115  CG        25.8900   10.7080    1.6190 C.3   266  ARG266      0.0492
    116  CD        26.5640   11.3830    0.4360 C.3   266  ARG266      0.2205
    117  NE        25.9640   12.6970    0.2040 N.pl3 266  ARG266     -0.0865
    118  CZ        26.3350   13.5210   -0.7690 C.cat 266  ARG266      0.5346
    119  NH1       27.2870   13.1520   -1.6230 N.pl3 266  ARG266      0.1354
    120  NH2       25.7320   14.6990   -0.9010 N.pl3 266  ARG266      0.1354
    121  N         11.1130    6.1940    6.2710 N.3   286  ILE286     -0.1231
    122  CA        11.7600    7.2290    7.0450 C.3   286  ILE286      0.1692
    123  C         10.6930    8.2260    7.4900 C.2   286  ILE286      0.2592
    124  O         10.0610    8.8810    6.6530 O.2   286  ILE286     -0.2718
    125  CB        12.8960    7.8750    6.2220 C.3   286  ILE286      0.0266
    126  CG1       13.8540    6.7420    5.7900 C.3   286  ILE286      0.0019
    127  CG2       13.5750    8.9190    7.1010 C.3   286  ILE286      0.0020
    128  CD1       15.0030    7.1050    4.9130 C.3   286  ILE286      0.0001
    129  N         10.4500    8.3230    8.7910 N.am  287  ASP287     -0.1960
    130  CA         9.2340    8.9610    9.2660 C.3   287  ASP287      0.1840
    131  C          9.4890   10.4380    9.6030 C.2   287  ASP287      0.2622
    132  O         10.6000   10.8060    9.9820 O.2   287  ASP287     -0.2715
    133  CB         8.6990    8.2650   10.5360 C.3   287  ASP287      0.1450
    134  CG         9.5980    8.4850   11.7550 C.2   287  ASP287      0.3671
    135  OD1       10.7580    8.0300   11.7140 O.co2 287  ASP287     -0.2456
    136  OD2        9.2110    9.2210   12.6990 O.co2 287  ASP287     -0.2456
    137  N          8.4360   11.2610    9.5370 N.am  288  TRP288     -0.1960
    138  CA         8.4540   12.6360   10.0810 C.3   288  TRP288      0.1771
    139  C          9.7310   13.4380    9.7340 C.2   288  TRP288      0.2620
    140  O         10.5570   13.8160   10.6140 O.2   288  TRP288     -0.2715
    141  CB         8.2360   12.5390   11.5790 C.3   288  TRP288      0.0590
    142  CG         7.8170   13.8200   12.3120 C.ar  288  TRP288      0.0006
    143  CD1        7.8440   15.0610   11.8100 C.ar  288  TRP288      0.0946
    144  CD2        7.3780   13.9460   13.6800 C.ar  288  TRP288      0.0152
    145  NE1        7.4480   15.9680   12.7370 N.ar  288  TRP288     -0.2442
    146  CE2        7.1860   15.3200   13.9160 C.ar  288  TRP288      0.0810
    147  CE3        7.1440   13.0380   14.7290 C.ar  288  TRP288      0.0012
    148  CZ2        6.7210   15.8270   15.1440 C.ar  288  TRP288      0.0191
    149  CZ3        6.7220   13.5270   15.9510 C.ar  288  TRP288      0.0001
    150  CH2        6.5140   14.9170   16.1600 C.ar  288  TRP288      0.0015
    151  N          9.8270   13.7100    8.4360 N.am  289  THR289     -0.1937
    152  CA        10.8260   14.5800    7.8150 C.3   289  THR289      0.2028
    153  C         10.3250   15.9700    7.4200 C.2   289  THR289      0.2642
    154  O          9.1760   16.1730    7.1220 O.2   289  THR289     -0.2714
    155  CB        11.4860   13.9300    6.5880 C.3   289  THR289      0.1808
    156  OG1       10.5840   13.7860    5.4610 O.3   289  THR289     -0.2208
    157  CG2       11.9710   12.5740    6.9710 C.3   289  THR289      0.0379
    158  N         11.2270   16.9360    7.3740 N.am  290  GLU290     -0.1976
    159  CA        10.8730   18.2660    6.8840 C.3   290  GLU290      0.1602
    160  C         11.1350   18.3190    5.3920 C.2   290  GLU290      0.2287
    161  O         11.9790   17.5800    4.8500 O.2   290  GLU290     -0.2864
    162  CB        11.7430   19.3310    7.5520 C.3   290  GLU290      0.0415
    163  CG        11.7980   19.2110    9.0450 C.3   290  GLU290      0.1163
    164  CD        11.6700   20.5400    9.7240 C.2   290  GLU290      0.3649
    165  OE1       12.7050   21.0740   10.1640 O.co2 290  GLU290     -0.2457
    166  OE2       10.5280   21.0340    9.8100 O.co2 290  GLU290     -0.2457
    167  N         14.8660   18.5370    4.0520 N.3   293  ILE293     -0.1245
    168  CA        15.7840   17.3980    4.2000 C.3   293  ILE293      0.1561
    169  C         15.4330   16.2360    3.2580 C.2   293  ILE293      0.2260
    170  O         16.1130   15.1960    3.2390 O.2   293  ILE293     -0.2867
    171  CB        15.8550   16.9030    5.6780 C.3   293  ILE293      0.0252
    172  CG1       17.1170   16.0830    5.9820 C.3   293  ILE293      0.0019
    173  CG2       14.6730   15.9970    6.0020 C.3   293  ILE293      0.0019
    174  CD1       18.4130   16.8330    5.6890 C.3   293  ILE293      0.0001
    175  N         18.1470   14.7180    0.9170 N.3   296  PHE296     -0.1227
    176  CA        19.1960   13.9580    1.6100 C.3   296  PHE296      0.1736
    177  C         18.8860   12.4600    1.5610 C.2   296  PHE296      0.2595
    178  O         19.7400   11.5980    1.2260 O.2   296  PHE296     -0.2718
    179  CB        19.2620   14.4710    3.0340 C.3   296  PHE296      0.0547
    180  CG        20.1570   13.6820    3.9500 C.ar  296  PHE296     -0.0202
    181  CD1       21.5120   13.6910    3.7690 C.ar  296  PHE296     -0.0042
    182  CD2       19.6180   12.9580    5.0410 C.ar  296  PHE296     -0.0042
    183  CE1       22.3250   12.9840    4.6640 C.ar  296  PHE296     -0.0003
    184  CE2       20.4340   12.2700    5.9380 C.ar  296  PHE296     -0.0003
    185  CZ        21.8030   12.2480    5.7120 C.ar  296  PHE296     -0.0000
    186  N         17.6220   12.1260    1.8000 N.am  297  TYR297     -0.1976
    187  CA        17.2120   10.7410    1.7110 C.3   297  TYR297      0.1639
    188  C         16.9290   10.3480    0.2510 C.2   297  TYR297      0.2290
    189  O         17.1070    9.2140   -0.1310 O.2   297  TYR297     -0.2864
    190  CB        15.9520   10.5360    2.5670 C.3   297  TYR297      0.0560
    191  CG        16.1240   10.8520    4.0490 C.ar  297  TYR297     -0.0198
    192  CD1       16.8320    9.9950    4.8740 C.ar  297  TYR297     -0.0009
    193  CD2       15.5750   11.9910    4.6290 C.ar  297  TYR297     -0.0009
    194  CE1       16.9960   10.2570    6.2210 C.ar  297  TYR297      0.0417
    195  CE2       15.7380   12.2490    5.9820 C.ar  297  TYR297      0.0417
    196  CZ        16.4450   11.3870    6.7710 C.ar  297  TYR297      0.1957
    197  OH        16.5730   11.6170    8.1310 O.3   297  TYR297     -0.2866
@<TRIPOS>BOND
     1   119   118    1
     2   120   118    1
     3   118   117    2
     4   189   188    2
     5   117   116    1
     6   188   187    1
     7   116   115    1
     8   175   176    1
     9   178   177    2
    10   177   176    1
    11   177   186   am
    12   176   179    1
    13   115   114    1
    14   187   186    1
    15   187   190    1
    16   190   191    1
    17   114   111    1
    18   179   180    1
    19   170   169    2
    20   169   168    1
    21   181   180   ar
    22   181   183   ar
    23   180   182   ar
    24   113   112    2
    25    83    84    1
    26    83    82    1
    27   191   193   ar
    28   191   192   ar
    29   167   168    1
    30    95    94    1
    31    95    96    1
    32   111   112    1
    33   111   110    1
    34   168   171    1
    35   193   195   ar
    36    88    87    2
    37   183   185   ar
    38    94    87   am
    39    97    96    2
    40   161   160    2
    41   192   194   ar
    42   128   126    1
    43    87    86    1
    44    79    78    2
    45    82    81    1
    46   182   184   ar
    47    96    98   am
    48   110   108   am
    49   160   159    1
    50   156   155    1
    51    86    85    1
    52    86    89    1
    53    78    85   am
    54    78    77    1
    55   171   172    1
    56   171   173    1
    57   174   172    1
    58   185   184   ar
    59   126   125    1
    60   195   196   ar
    61    80    81    1
    62    80    77    1
    63    77    76    1
    64   194   196   ar
    65   125   122    1
    66   125   127    1
    67   121   122    1
    68    98    99    1
    69   108   109    2
    70   108   107    1
    71   155   157    1
    72   155   152    1
    73   124   123    2
    74    89    90    1
    75   196   197    1
    76   159   158    1
    77   159   162    1
    78   122   123    1
    79   154   153    2
    80   158   153   am
    81    76    67   am
    82   153   152    1
    83    99   100    1
    84    99   102    1
    85   123   129   am
    86   162   163    1
    87   106   107    1
    88   106   100   am
    89    90    91    1
    90   100   101    2
    91   152   151    1
    92   105   103    1
    93   151   139   am
    94    68    67    2
    95    67    66    1
    96   103   102    1
    97   103   104    1
    98    91    92    2
    99    91    93   am
   100   129   130    1
   101   163   164    1
   102   130   131    1
   103   130   133    1
   104    40    38    1
   105   137   131   am
   106   137   138    1
   107   131   132    2
   108   164   166   ar
   109   164   165   ar
   110   139   138    1
   111   139   140    2
   112    66    69    1
   113    66    65    1
   114    56    55    2
   115   138   141    1
   116    39    37    1
   117    69    70    1
   118   133   134    1
   119    38    37    1
   120    65    55   am
   121    55    54    1
   122    70    71    1
   123    37    34    1
   124    50    52    1
   125    50    49    1
   126    71    72    1
   127   141   142    1
   128   135   134   ar
   129   134   136   ar
   130   143   142   ar
   131   143   145   ar
   132    54    57    1
   133    54    53    1
   134    51    49    1
   135    49    46    1
   136   142   144   ar
   137    34    35    1
   138    34    33    1
   139    36    35    2
   140    57    58    1
   141   145   146   ar
   142    72    73    2
   143    35    41   am
   144    33    28   am
   145    59    58   ar
   146    59    61   ar
   147    74    73    1
   148    41    42    1
   149    28    29    2
   150    28    27    1
   151    45    46    1
   152    45    43   am
   153    58    60   ar
   154    73    75    1
   155    46    47    1
   156    42    43    1
   157   144   146   ar
   158   144   147   ar
   159    43    44    2
   160    27    26    1
   161    27    30    1
   162   146   148   ar
   163    61    63   ar
   164    26    32    1
   165    48    47    2
   166    25    23   ar
   167    25    24   ar
   168   147   149   ar
   169    60    62   ar
   170    30    31    1
   171    23    21   ar
   172   148   150   ar
   173    63    62   ar
   174    63    64    1
   175    24    22   ar
   176    32    31    1
   177   149   150   ar
   178    11     9   ar
   179    11    10   ar
   180    21    20   ar
   181    21    19   ar
   182     9     7   ar
   183    22    19   ar
   184    10     8   ar
   185    20    18   ar
   186    19    17   ar
   187     7     6   ar
   188     8     6   ar
   189    18    17   ar
   190    17    16    1
   191     6     5    1
   192    16    13    1
   193     5     2    1
   194     2     1    1
   195     2     3    1
   196    13    12    1
   197    13    14    1
   198    14    15    2
   199     3     4    2
