@<TRIPOS>MOLECULE
tmp/5kf9A03.pdb
 109 110 0 0 0
SMALL
GASTEIGER

@<TRIPOS>ATOM
      1  N         14.7550   18.9230   28.4950 N.3    69  LEU69      -0.1245
      2  CA        13.6250   19.8440   28.3590 C.3    69  LEU69       0.1561
      3  C         12.5220   19.5810   29.3840 C.2    69  LEU69       0.2260
      4  O         11.8090   18.5700   29.3490 O.2    69  LEU69      -0.2867
      5  CB        12.9840   19.7660   26.9740 C.3    69  LEU69       0.0270
      6  CG        13.8550   19.8470   25.7230 C.3    69  LEU69       0.0019
      7  CD1       12.9470   20.0000   24.5090 C.3    69  LEU69       0.0001
      8  CD2       14.8830   20.9700   25.8100 C.3    69  LEU69       0.0001
      9  N          4.9170   18.0350    7.1620 N.3   147  PHE147     -0.1241
     10  CA         5.9300   17.0100    7.4010 C.3   147  PHE147      0.1605
     11  C          5.5980   15.8260    6.5330 C.2   147  PHE147      0.2264
     12  O          4.4840   15.5940    6.1890 O.2   147  PHE147     -0.2867
     13  CB         5.9450   16.5620    8.8700 C.3   147  PHE147      0.0534
     14  CG         6.2940   17.6480    9.8600 C.ar  147  PHE147     -0.0203
     15  CD1        7.5290   18.2120    9.8400 C.ar  147  PHE147     -0.0042
     16  CD2        5.3410   18.0920   10.7770 C.ar  147  PHE147     -0.0042
     17  CE1        7.9050   19.1760   10.7510 C.ar  147  PHE147     -0.0003
     18  CE2        5.6940   19.0770   11.7000 C.ar  147  PHE147     -0.0003
     19  CZ         6.9580   19.5940   11.6620 C.ar  147  PHE147     -0.0000
     20  N         24.2510   16.9590   22.4160 N.3   188  SER188     -0.1202
     21  CA        23.8310   17.3150   21.0550 C.3   188  SER188      0.2020
     22  C         22.3470   17.2300   20.7560 C.2   188  SER188      0.2619
     23  O         21.8140   17.9430   19.8820 O.2   188  SER188     -0.2717
     24  CB        24.5440   16.4260   20.0530 C.3   188  SER188      0.2103
     25  OG        25.9070   16.7570   19.9880 O.3   188  SER188     -0.2182
     26  N         21.6520   16.3180   21.4310 N.am  189  PHE189     -0.1961
     27  CA        20.2590   16.0270   21.1410 C.3   189  PHE189      0.1771
     28  C         19.5680   15.7210   22.4490 C.2   189  PHE189      0.2620
     29  O         19.0250   14.6270   22.6310 O.2   189  PHE189     -0.2715
     30  CB        20.0960   14.8590   20.1640 C.3   189  PHE189      0.0574
     31  CG        20.6640   15.1190   18.8260 C.ar  189  PHE189     -0.0200
     32  CD1       20.0830   16.0220   17.9740 C.ar  189  PHE189     -0.0042
     33  CD2       21.8100   14.4540   18.4380 C.ar  189  PHE189     -0.0042
     34  CE1       20.6400   16.2980   16.7550 C.ar  189  PHE189     -0.0003
     35  CE2       22.3970   14.7380   17.2280 C.ar  189  PHE189     -0.0003
     36  CZ        21.7700   15.6140   16.3540 C.ar  189  PHE189     -0.0000
     37  N         19.4930   16.7190   23.3280 N.am  190  SER190     -0.1936
     38  CA        19.1800   16.4830   24.7100 C.3   190  SER190      0.2055
     39  C         17.7210   16.6270   25.0240 C.2   190  SER190      0.2644
     40  O         17.3530   16.4770   26.1820 O.2   190  SER190     -0.2714
     41  CB        19.9650   17.4240   25.6090 C.3   190  SER190      0.2130
     42  OG        19.5570   18.7670   25.4370 O.3   190  SER190     -0.2179
     43  N         16.9060   16.8850   24.0100 N.am  191  GLY191     -0.1939
     44  CA        15.4560   16.9690   24.2310 C.3   191  GLY191      0.2014
     45  C         14.7250   15.6700   23.9520 C.2   191  GLY191      0.2639
     46  O         14.9820   14.6230   24.5210 O.2   191  GLY191     -0.2714
     47  N         13.7980   15.7240   23.0030 N.am  192  ARG192     -0.1963
     48  CA        12.9410   14.5850   22.7450 C.3   192  ARG192      0.1729
     49  C         13.6930   13.3130   22.3790 C.2   192  ARG192      0.2616
     50  O         13.3180   12.2160   22.7920 O.2   192  ARG192     -0.2715
     51  CB        11.9650   14.9170   21.6050 C.3   192  ARG192      0.0348
     52  CG        11.0060   13.7800   21.3240 C.3   192  ARG192      0.0492
     53  CD         9.8930   14.1590   20.3510 C.3   192  ARG192      0.2205
     54  NE         9.0810   13.0010   20.0300 N.pl3 192  ARG192     -0.0865
     55  CZ         7.7690   13.0290   19.7290 C.cat 192  ARG192      0.5346
     56  NH1        7.1330   11.9070   19.4640 N.pl3 192  ARG192      0.1354
     57  NH2        7.1220   14.1590   19.8220 N.pl3 192  ARG192      0.1354
     58  N         14.7690   13.4700   21.6250 N.am  193  TRP193     -0.1974
     59  CA        15.4760   12.2780   21.2140 C.3   193  TRP193      0.1640
     60  C         16.1710   11.6190   22.3720 C.2   193  TRP193      0.2290
     61  O         16.2270   10.3990   22.3930 O.2   193  TRP193     -0.2864
     62  CB        16.4330   12.6110   20.0910 C.3   193  TRP193      0.0576
     63  CG        15.7450   12.8680   18.7590 C.ar  193  TRP193      0.0006
     64  CD1       14.4190   12.7670   18.4760 C.ar  193  TRP193      0.0946
     65  CD2       16.3930   13.1670   17.5400 C.ar  193  TRP193      0.0152
     66  NE1       14.1990   13.0930   17.1520 N.ar  193  TRP193     -0.2442
     67  CE2       15.3970   13.3320   16.5540 C.ar  193  TRP193      0.0810
     68  CE3       17.7150   13.4100   17.1870 C.ar  193  TRP193      0.0012
     69  CZ2       15.7040   13.6950   15.2430 C.ar  193  TRP193      0.0191
     70  CZ3       18.0080   13.7490   15.8800 C.ar  193  TRP193      0.0001
     71  CH2       17.0170   13.8480   14.9170 C.ar  193  TRP193      0.0015
     72  N          8.5710   11.3560    9.5080 N.3   288  TRP288     -0.1227
     73  CA         8.5230   12.7080   10.0760 C.3   288  TRP288      0.1737
     74  C          9.7570   13.5240    9.6680 C.2   288  TRP288      0.2596
     75  O         10.5550   13.9650   10.4970 O.2   288  TRP288     -0.2718
     76  CB         8.3510   12.6670   11.5830 C.3   288  TRP288      0.0564
     77  CG         7.8930   13.9370   12.2560 C.ar  288  TRP288      0.0003
     78  CD1        7.9130   15.2120   11.7590 C.ar  288  TRP288      0.0946
     79  CD2        7.4140   14.0290   13.6030 C.ar  288  TRP288      0.0152
     80  NE1        7.4280   16.0740   12.7060 N.ar  288  TRP288     -0.2442
     81  CE2        7.1810   15.3890   13.8700 C.ar  288  TRP288      0.0810
     82  CE3        7.1780   13.1010   14.6110 C.ar  288  TRP288      0.0012
     83  CZ2        6.6750   15.8420   15.0840 C.ar  288  TRP288      0.0191
     84  CZ3        6.7290   13.5640   15.8380 C.ar  288  TRP288      0.0001
     85  CH2        6.4730   14.9010   16.0600 C.ar  288  TRP288      0.0015
     86  N          9.8130   13.8210    8.3720 N.am  289  THR289     -0.1939
     87  CA        10.8680   14.6340    7.7760 C.3   289  THR289      0.2028
     88  C         10.3030   16.0110    7.3730 C.2   289  THR289      0.2642
     89  O          9.1330   16.1650    7.1630 O.2   289  THR289     -0.2714
     90  CB        11.5240   13.9950    6.5670 C.3   289  THR289      0.1808
     91  OG1       10.6230   13.9650    5.4520 O.3   289  THR289     -0.2208
     92  CG2       12.0010   12.5960    6.8800 C.3   289  THR289      0.0379
     93  N         11.1630   17.0040    7.3040 N.am  290  GLU290     -0.1976
     94  CA        10.8420   18.3320    6.7950 C.3   290  GLU290      0.1602
     95  C         11.1800   18.4090    5.3110 C.2   290  GLU290      0.2287
     96  O         12.0700   17.7100    4.7700 O.2   290  GLU290     -0.2864
     97  CB        11.6710   19.3800    7.5480 C.3   290  GLU290      0.0415
     98  CG        11.6260   19.2670    9.0540 C.3   290  GLU290      0.1163
     99  CD        12.1050   20.5270    9.7290 C.2   290  GLU290      0.3649
    100  OE1       13.2980   20.5710   10.0980 O.co2 290  GLU290     -0.2457
    101  OE2       11.2830   21.4570    9.8610 O.co2 290  GLU290     -0.2457
    102  N         14.8610   18.6590    3.9260 N.3   293  ILE293     -0.1245
    103  CA        15.7760   17.5260    4.0540 C.3   293  ILE293      0.1561
    104  C         15.4190   16.3500    3.1710 C.2   293  ILE293      0.2260
    105  O         16.1660   15.3630    3.0720 O.2   293  ILE293     -0.2867
    106  CB        15.9860   17.0630    5.5330 C.3   293  ILE293      0.0252
    107  CG1       17.3340   16.2790    5.6920 C.3   293  ILE293      0.0019
    108  CG2       14.7970   16.2520    5.9970 C.3   293  ILE293      0.0019
    109  CD1       18.5750   17.0970    5.4120 C.3   293  ILE293      0.0001
@<TRIPOS>BOND
     1   105   104    2
     2   104   103    1
     3   102   103    1
     4   103   106    1
     5    96    95    2
     6    95    94    1
     7   109   107    1
     8    91    90    1
     9   106   107    1
    10   106   108    1
    11    12    11    2
    12    11    10    1
    13    90    92    1
    14    90    87    1
    15    94    93    1
    16    94    97    1
    17     9    10    1
    18    89    88    2
    19    93    88   am
    20    88    87    1
    21    10    13    1
    22    97    98    1
    23    87    86    1
    24    86    74   am
    25    13    14    1
    26    98    99    1
    27    72    73    1
    28    74    73    1
    29    74    75    2
    30    99   101   ar
    31    99   100   ar
    32    15    14   ar
    33    15    17   ar
    34    14    16   ar
    35    73    76    1
    36    17    19   ar
    37    16    18   ar
    38    76    77    1
    39    19    18   ar
    40    78    77   ar
    41    78    80   ar
    42    77    79   ar
    43    80    81   ar
    44    79    81   ar
    45    79    82   ar
    46    81    83   ar
    47    82    84   ar
    48    71    69   ar
    49    71    70   ar
    50    83    85   ar
    51    69    67   ar
    52    84    85   ar
    53    70    68   ar
    54    36    34   ar
    55    36    35   ar
    56    67    66   ar
    57    67    65   ar
    58    34    32   ar
    59    66    64   ar
    60    68    65   ar
    61    35    33   ar
    62    65    63   ar
    63    32    31   ar
    64    33    31   ar
    65    64    63   ar
    66    63    62    1
    67    31    30    1
    68    56    55    1
    69    55    57    1
    70    55    54    2
    71    23    22    2
    72    25    24    1
    73    54    53    1
    74    24    21    1
    75    62    59    1
    76    30    27    1
    77    53    52    1
    78    22    21    1
    79    22    26   am
    80    21    20    1
    81    27    26    1
    82    27    28    1
    83    59    58    1
    84    59    60    1
    85    52    51    1
    86    51    48    1
    87    58    49   am
    88    60    61    2
    89    49    48    1
    90    49    50    2
    91    28    29    2
    92    28    37   am
    93    48    47    1
    94    47    45   am
    95    37    38    1
    96    45    44    1
    97    45    46    2
    98    43    44    1
    99    43    39   am
   100     7     6    1
   101    38    39    1
   102    38    41    1
   103    39    40    2
   104    42    41    1
   105     6     8    1
   106     6     5    1
   107     5     2    1
   108     2     1    1
   109     2     3    1
   110     4     3    2
