@<TRIPOS>MOLECULE
tmp/5kf9A02.pdb
 144 142 0 0 0
SMALL
GASTEIGER

@<TRIPOS>ATOM
      1  N         21.6520   16.3180   21.4310 N.3   189  PHE189     -0.1241
      2  CA        20.2590   16.0270   21.1410 C.3   189  PHE189      0.1605
      3  C         19.5680   15.7210   22.4490 C.2   189  PHE189      0.2264
      4  O         19.0250   14.6270   22.6310 O.2   189  PHE189     -0.2867
      5  CB        20.0960   14.8590   20.1640 C.3   189  PHE189      0.0534
      6  CG        20.6640   15.1190   18.8260 C.ar  189  PHE189     -0.0203
      7  CD1       20.0830   16.0220   17.9740 C.ar  189  PHE189     -0.0042
      8  CD2       21.8100   14.4540   18.4380 C.ar  189  PHE189     -0.0042
      9  CE1       20.6400   16.2980   16.7550 C.ar  189  PHE189     -0.0003
     10  CE2       22.3970   14.7380   17.2280 C.ar  189  PHE189     -0.0003
     11  CZ        21.7700   15.6140   16.3540 C.ar  189  PHE189     -0.0000
     12  N         14.7690   13.4700   21.6250 N.3   193  TRP193     -0.1241
     13  CA        15.4760   12.2780   21.2140 C.3   193  TRP193      0.1605
     14  C         16.1710   11.6190   22.3720 C.2   193  TRP193      0.2264
     15  O         16.2270   10.3990   22.3930 O.2   193  TRP193     -0.2867
     16  CB        16.4330   12.6110   20.0910 C.3   193  TRP193      0.0550
     17  CG        15.7450   12.8680   18.7590 C.ar  193  TRP193      0.0003
     18  CD1       14.4190   12.7670   18.4760 C.ar  193  TRP193      0.0946
     19  CD2       16.3930   13.1670   17.5400 C.ar  193  TRP193      0.0152
     20  NE1       14.1990   13.0930   17.1520 N.ar  193  TRP193     -0.2442
     21  CE2       15.3970   13.3320   16.5540 C.ar  193  TRP193      0.0810
     22  CE3       17.7150   13.4100   17.1870 C.ar  193  TRP193      0.0012
     23  CZ2       15.7040   13.6950   15.2430 C.ar  193  TRP193      0.0191
     24  CZ3       18.0080   13.7490   15.8800 C.ar  193  TRP193      0.0001
     25  CH2       17.0170   13.8480   14.9170 C.ar  193  TRP193      0.0015
     26  N         17.9340   10.2250   13.0140 N.3   253  ILE253     -0.1231
     27  CA        19.3100   10.2400   12.5260 C.3   253  ILE253      0.1692
     28  C         19.8960   11.6070   12.8150 C.2   253  ILE253      0.2593
     29  O         19.2870   12.6420   12.5440 O.2   253  ILE253     -0.2718
     30  CB        19.4610    9.8100   11.0630 C.3   253  ILE253      0.0266
     31  CG1       20.9310    9.8200   10.6360 C.3   253  ILE253      0.0019
     32  CG2       18.5550   10.6910   10.1920 C.3   253  ILE253      0.0020
     33  CD1       21.1320    9.1090    9.3350 C.3   253  ILE253      0.0001
     34  N         21.0440   11.6470   13.4840 N.am  254  GLY254     -0.1942
     35  CA        21.6200   12.9200   13.8850 C.3   254  GLY254      0.2014
     36  C         23.1270   12.8410   13.9590 C.2   254  GLY254      0.2638
     37  O         23.6680   11.8160   14.3600 O.2   254  GLY254     -0.2714
     38  N         23.7670   13.9590   13.6220 N.am  255  ILE255     -0.1977
     39  CA        25.2040   14.2190   13.6910 C.3   255  ILE255      0.1596
     40  C         25.4340   15.4470   14.5870 C.2   255  ILE255      0.2287
     41  O         24.7030   16.4110   14.5200 O.2   255  ILE255     -0.2864
     42  CB        25.7790   14.5070   12.2700 C.3   255  ILE255      0.0276
     43  CG1       25.6540   13.2910   11.3750 C.3   255  ILE255      0.0022
     44  CG2       27.1520   15.1780   12.3110 C.3   255  ILE255      0.0022
     45  CD1       26.5550   12.1400   11.7130 C.3   255  ILE255      0.0001
     46  N         30.1520   18.8060   13.4660 N.3   259  TYR259     -0.1227
     47  CA        30.6050   17.8590   12.4410 C.3   259  TYR259      0.1736
     48  C         29.7340   17.8470   11.1800 C.2   259  TYR259      0.2595
     49  O         29.8940   17.0310   10.3010 O.2   259  TYR259     -0.2718
     50  CB        30.6670   16.4190   13.0060 C.3   259  TYR259      0.0548
     51  CG        31.8590   16.1690   13.9130 C.ar  259  TYR259     -0.0200
     52  CD1       33.0830   15.7620   13.3860 C.ar  259  TYR259     -0.0009
     53  CD2       31.7660   16.3370   15.2770 C.ar  259  TYR259     -0.0009
     54  CE1       34.1660   15.5330   14.2020 C.ar  259  TYR259      0.0417
     55  CE2       32.8570   16.1440   16.1080 C.ar  259  TYR259      0.0417
     56  CZ        34.0470   15.7190   15.5640 C.ar  259  TYR259      0.1957
     57  OH        35.1320   15.5140   16.3960 O.3   259  TYR259     -0.2866
     58  N         28.7460   18.7280   11.1200 N.am  260  ARG260     -0.1966
     59  CA        27.8180   18.7310   10.0150 C.3   260  ARG260      0.1729
     60  C         28.3970   19.3220    8.7420 C.2   260  ARG260      0.2616
     61  O         29.4300   19.9870    8.7810 O.2   260  ARG260     -0.2715
     62  CB        26.5510   19.4850   10.4250 C.3   260  ARG260      0.0348
     63  CG        25.6400   18.5750   11.2550 C.3   260  ARG260      0.0492
     64  CD        24.3560   19.2640   11.7220 C.3   260  ARG260      0.2205
     65  NE        23.9350   18.7480   13.0210 N.pl3 260  ARG260     -0.0865
     66  CZ        23.0920   19.3270   13.8730 C.cat 260  ARG260      0.5346
     67  NH1       22.4920   20.4850   13.5560 N.pl3 260  ARG260      0.1354
     68  NH2       22.8230   18.7430   15.0490 N.pl3 260  ARG260      0.1354
     69  N         27.7220   19.0680    7.6280 N.am  261  LYS261     -0.1977
     70  CA        28.1000   19.5460    6.3080 C.3   261  LYS261      0.1596
     71  C         29.5110   19.1370    5.8750 C.2   261  LYS261      0.2287
     72  O         30.1580   19.8360    5.0770 O.2   261  LYS261     -0.2864
     73  CB        27.9070   21.0660    6.2230 C.3   261  LYS261      0.0298
     74  CG        26.4640   21.4920    6.3860 C.3   261  LYS261      0.0038
     75  CD        25.5830   20.8560    5.3260 C.3   261  LYS261      0.0206
     76  CE        24.2520   21.5760    5.1920 C.3   261  LYS261      0.1093
     77  NZ        23.6380   21.2320    3.8770 N.3   261  LYS261     -0.1314
     78  N         29.7880   15.5220    5.0480 N.3   263  GLY263     -0.1210
     79  CA        29.5900   14.2220    4.4160 C.3   263  GLY263      0.1956
     80  C         29.3030   13.0530    5.3660 C.2   263  GLY263      0.2612
     81  O         29.1250   11.9250    4.9130 O.2   263  GLY263     -0.2717
     82  N         29.3720   13.3590    6.6530 N.am  264  LEU264     -0.1965
     83  CA        29.2910   12.3570    7.6950 C.3   264  LEU264      0.1728
     84  C         27.8370   11.8770    7.8490 C.2   264  LEU264      0.2617
     85  O         27.6110   10.7220    8.1380 O.2   264  LEU264     -0.2715
     86  CB        29.9080   12.8100    8.9990 C.3   264  LEU264      0.0311
     87  CG        31.4070   13.1840    8.8600 C.3   264  LEU264      0.0022
     88  CD1       31.9000   14.0390   10.0220 C.3   264  LEU264      0.0001
     89  CD2       32.2210   11.9020    8.6840 C.3   264  LEU264      0.0001
     90  N         26.8490   12.7480    7.6560 N.am  265  GLY265     -0.1940
     91  CA        25.4700   12.2690    7.7160 C.3   265  GLY265      0.2014
     92  C         25.2090   11.3290    6.5690 C.2   265  GLY265      0.2638
     93  O         24.5820   10.2790    6.6960 O.2   265  GLY265     -0.2714
     94  N         25.7170   11.6360    5.3620 N.am  266  ARG266     -0.1977
     95  CA        25.5810   10.7520    4.2340 C.3   266  ARG266      0.1597
     96  C         26.2340    9.3730    4.4920 C.2   266  ARG266      0.2287
     97  O         25.7010    8.3180    4.1670 O.2   266  ARG266     -0.2864
     98  CB        26.1140   11.4170    2.9550 C.3   266  ARG266      0.0334
     99  CG        25.9920   10.5880    1.7140 C.3   266  ARG266      0.0492
    100  CD        26.2490   11.4720    0.4910 C.3   266  ARG266      0.2205
    101  NE        27.2440   10.8970   -0.3980 N.pl3 266  ARG266     -0.0865
    102  CZ        27.6990   11.4940   -1.4980 C.cat 266  ARG266      0.5346
    103  NH1       27.2290   12.6830   -1.8670 N.pl3 266  ARG266      0.1354
    104  NH2       28.6230   10.8890   -2.2360 N.pl3 266  ARG266      0.1354
    105  N         11.1630   17.0040    7.3040 N.3   290  GLU290     -0.1245
    106  CA        10.8420   18.3320    6.7950 C.3   290  GLU290      0.1567
    107  C         11.1800   18.4090    5.3110 C.2   290  GLU290      0.2260
    108  O         12.0700   17.7100    4.7700 O.2   290  GLU290     -0.2867
    109  CB        11.6710   19.3800    7.5480 C.3   290  GLU290      0.0388
    110  CG        11.6260   19.2670    9.0540 C.3   290  GLU290      0.1160
    111  CD        12.1050   20.5270    9.7290 C.2   290  GLU290      0.3649
    112  OE1       13.2980   20.5710   10.0980 O.co2 290  GLU290     -0.2457
    113  OE2       11.2830   21.4570    9.8610 O.co2 290  GLU290     -0.2457
    114  N         14.8610   18.6590    3.9260 N.3   293  ILE293     -0.1245
    115  CA        15.7760   17.5260    4.0540 C.3   293  ILE293      0.1561
    116  C         15.4190   16.3500    3.1710 C.2   293  ILE293      0.2260
    117  O         16.1660   15.3630    3.0720 O.2   293  ILE293     -0.2867
    118  CB        15.9860   17.0630    5.5330 C.3   293  ILE293      0.0252
    119  CG1       17.3340   16.2790    5.6920 C.3   293  ILE293      0.0019
    120  CG2       14.7970   16.2520    5.9970 C.3   293  ILE293      0.0019
    121  CD1       18.5750   17.0970    5.4120 C.3   293  ILE293      0.0001
    122  N         18.1350   14.8490    0.7970 N.3   296  PHE296     -0.1227
    123  CA        19.1940   14.0720    1.4870 C.3   296  PHE296      0.1736
    124  C         18.8650   12.5770    1.4380 C.2   296  PHE296      0.2595
    125  O         19.6880   11.7270    1.0820 O.2   296  PHE296     -0.2718
    126  CB        19.3220   14.5520    2.9260 C.3   296  PHE296      0.0547
    127  CG        20.2170   13.7240    3.8110 C.ar  296  PHE296     -0.0202
    128  CD1       21.5860   13.7730    3.6610 C.ar  296  PHE296     -0.0042
    129  CD2       19.6840   13.0140    4.8610 C.ar  296  PHE296     -0.0042
    130  CE1       22.3900   13.0190    4.4940 C.ar  296  PHE296     -0.0003
    131  CE2       20.4900   12.2990    5.7420 C.ar  296  PHE296     -0.0003
    132  CZ        21.8460   12.3030    5.5330 C.ar  296  PHE296     -0.0000
    133  N         17.6160   12.2140    1.7220 N.am  297  TYR297     -0.1976
    134  CA        17.1840   10.8460    1.6200 C.3   297  TYR297      0.1639
    135  C         16.8370   10.4520    0.1790 C.2   297  TYR297      0.2290
    136  O         16.9330    9.2970   -0.2100 O.2   297  TYR297     -0.2864
    137  CB        15.9680   10.6420    2.5400 C.3   297  TYR297      0.0560
    138  CG        16.2050   11.0180    3.9650 C.ar  297  TYR297     -0.0198
    139  CD1       16.9530   10.1960    4.7960 C.ar  297  TYR297     -0.0009
    140  CD2       15.7290   12.2090    4.4860 C.ar  297  TYR297     -0.0009
    141  CE1       17.2290   10.5650    6.0910 C.ar  297  TYR297      0.0417
    142  CE2       15.9750   12.5530    5.8080 C.ar  297  TYR297      0.0417
    143  CZ        16.6920   11.7010    6.5880 C.ar  297  TYR297      0.1957
    144  OH        16.9650   12.0830    7.8880 O.3   297  TYR297     -0.2866
@<TRIPOS>BOND
     1   104   102    1
     2   103   102    1
     3   102   101    2
     4   101   100    1
     5   136   135    2
     6   135   134    1
     7   100    99    1
     8   122   123    1
     9   125   124    2
    10   124   123    1
    11   124   133   am
    12   123   126    1
    13   134   133    1
    14   134   137    1
    15    99    98    1
    16   137   138    1
    17   126   127    1
    18    98    95    1
    19   117   116    2
    20   116   115    1
    21   128   127   ar
    22   128   130   ar
    23   127   129   ar
    24    77    76    1
    25   114   115    1
    26   138   140   ar
    27   138   139   ar
    28   115   118    1
    29    97    96    2
    30    95    96    1
    31    95    94    1
    32    79    78    1
    33    79    80    1
    34   140   142   ar
    35   130   132   ar
    36   108   107    2
    37   139   141   ar
    38   129   131   ar
    39    81    80    2
    40    72    71    2
    41    76    75    1
    42   107   106    1
    43    75    74    1
    44    94    92   am
    45    80    82   am
    46   121   119    1
    47   118   119    1
    48   118   120    1
    49   132   131   ar
    50   142   143   ar
    51    71    70    1
    52   141   143   ar
    53    73    70    1
    54    73    74    1
    55    70    69    1
    56    92    93    2
    57    92    91    1
    58   143   144    1
    59    82    83    1
    60   106   105    1
    61   106   109    1
    62   109   110    1
    63    69    60   am
    64    90    91    1
    65    90    84   am
    66    83    84    1
    67    83    86    1
    68    84    85    2
    69    89    87    1
    70    60    61    2
    71    60    59    1
    72    87    86    1
    73    87    88    1
    74   110   111    1
    75    33    31    1
    76   111   113   ar
    77   111   112   ar
    78    59    62    1
    79    59    58    1
    80    32    30    1
    81    49    48    2
    82    62    63    1
    83    31    30    1
    84    30    27    1
    85    58    48   am
    86    48    47    1
    87    63    64    1
    88    43    45    1
    89    43    42    1
    90    64    65    1
    91    42    44    1
    92    42    39    1
    93    47    50    1
    94    47    46    1
    95    27    28    1
    96    27    26    1
    97    29    28    2
    98    28    34   am
    99    50    51    1
   100    65    66    2
   101    52    51   ar
   102    52    54   ar
   103    34    35    1
   104    67    66    1
   105    38    39    1
   106    38    36   am
   107    39    40    1
   108    66    68    1
   109    35    36    1
   110    51    53   ar
   111    36    37    2
   112    54    56   ar
   113    41    40    2
   114    25    23   ar
   115    25    24   ar
   116    23    21   ar
   117    53    55   ar
   118    56    55   ar
   119    56    57    1
   120    24    22   ar
   121    11     9   ar
   122    11    10   ar
   123    21    20   ar
   124    21    19   ar
   125     9     7   ar
   126    20    18   ar
   127    22    19   ar
   128    10     8   ar
   129    19    17   ar
   130     7     6   ar
   131     8     6   ar
   132    18    17   ar
   133    17    16    1
   134     6     5    1
   135    16    13    1
   136     5     2    1
   137     2     1    1
   138     2     3    1
   139    13    12    1
   140    13    14    1
   141    14    15    2
   142     3     4    2
