@<TRIPOS>MOLECULE
tmp/5kf9A00.pdb
 127 127 0 0 0
SMALL
GASTEIGER

@<TRIPOS>ATOM
      1  N          3.1290    9.5400   19.6650 N.3   120  HIS120     -0.1241
      2  CA         2.1420    9.9680   18.6590 C.3   120  HIS120      0.1621
      3  C          1.7530    8.8440   17.7630 C.2   120  HIS120      0.2264
      4  O          2.5070    7.8910   17.5860 O.2   120  HIS120     -0.2867
      5  CB         2.7130   11.1110   17.7960 C.3   120  HIS120      0.0745
      6  CG         3.9090   10.7130   17.0100 C.ar  120  HIS120      0.0817
      7  ND1        5.1140   10.4160   17.6120 N.ar  120  HIS120     -0.2268
      8  CD2        4.0930   10.5010   15.6840 C.ar  120  HIS120      0.1154
      9  CE1        5.9950   10.0790   16.6900 C.ar  120  HIS120      0.1986
     10  NE2        5.4030   10.1110   15.5080 N.ar  120  HIS120     -0.2212
     11  N         13.7980   15.7240   23.0030 N.3   192  ARG192     -0.1231
     12  CA        12.9410   14.5850   22.7450 C.3   192  ARG192      0.1694
     13  C         13.6930   13.3130   22.3790 C.2   192  ARG192      0.2592
     14  O         13.3180   12.2160   22.7920 O.2   192  ARG192     -0.2718
     15  CB        11.9650   14.9170   21.6050 C.3   192  ARG192      0.0321
     16  CG        11.0060   13.7800   21.3240 C.3   192  ARG192      0.0489
     17  CD         9.8930   14.1590   20.3510 C.3   192  ARG192      0.2205
     18  NE         9.0810   13.0010   20.0300 N.pl3 192  ARG192     -0.0865
     19  CZ         7.7690   13.0290   19.7290 C.cat 192  ARG192      0.5346
     20  NH1        7.1330   11.9070   19.4640 N.pl3 192  ARG192      0.1354
     21  NH2        7.1220   14.1590   19.8220 N.pl3 192  ARG192      0.1354
     22  N         14.7690   13.4700   21.6250 N.am  193  TRP193     -0.1976
     23  CA        15.4760   12.2780   21.2140 C.3   193  TRP193      0.1640
     24  C         16.1710   11.6190   22.3720 C.2   193  TRP193      0.2290
     25  O         16.2270   10.3990   22.3930 O.2   193  TRP193     -0.2864
     26  CB        16.4330   12.6110   20.0910 C.3   193  TRP193      0.0576
     27  CG        15.7450   12.8680   18.7590 C.ar  193  TRP193      0.0006
     28  CD1       14.4190   12.7670   18.4760 C.ar  193  TRP193      0.0946
     29  CD2       16.3930   13.1670   17.5400 C.ar  193  TRP193      0.0152
     30  NE1       14.1990   13.0930   17.1520 N.ar  193  TRP193     -0.2442
     31  CE2       15.3970   13.3320   16.5540 C.ar  193  TRP193      0.0810
     32  CE3       17.7150   13.4100   17.1870 C.ar  193  TRP193      0.0012
     33  CZ2       15.7040   13.6950   15.2430 C.ar  193  TRP193      0.0191
     34  CZ3       18.0080   13.7490   15.8800 C.ar  193  TRP193      0.0001
     35  CH2       17.0170   13.8480   14.9170 C.ar  193  TRP193      0.0015
     36  N         13.4640    9.7950   24.1480 N.3   196  GLU196     -0.1245
     37  CA        13.0880    8.6270   23.4010 C.3   196  GLU196      0.1567
     38  C         14.0740    7.4740   23.6190 C.2   196  GLU196      0.2260
     39  O         13.6320    6.3410   23.7960 O.2   196  GLU196     -0.2867
     40  CB        12.9010    8.9930   21.8960 C.3   196  GLU196      0.0388
     41  CG        11.6240    9.7380   21.5430 C.3   196  GLU196      0.1160
     42  CD        11.5880   10.0950   20.0370 C.2   196  GLU196      0.3649
     43  OE1       12.4270    9.5950   19.2510 O.co2 196  GLU196     -0.2457
     44  OE2       10.6880   10.8660   19.6650 O.co2 196  GLU196     -0.2457
     45  N          7.9270    4.7640   15.1670 N.3   235  PRO235     -0.2116
     46  CA         7.1890    5.4240   14.1230 C.3   235  PRO235      0.1372
     47  C          7.4430    4.9730   12.6890 C.2   235  PRO235      0.2244
     48  O          6.5200    4.8200   11.8900 O.2   235  PRO235     -0.2868
     49  CB         7.5250    6.9100   14.3650 C.3   235  PRO235      0.0268
     50  CG         7.8280    7.0080   15.7760 C.3   235  PRO235      0.0207
     51  CD         8.4760    5.7030   16.1630 C.3   235  PRO235      0.0892
     52  N         14.9020    6.0630   11.6090 N.3   251  GLY251     -0.1210
     53  CA        14.7630    7.4380   12.1070 C.3   251  GLY251      0.1940
     54  C         14.5530    7.3440   13.5580 C.2   251  GLY251      0.2454
     55  O         13.8960    6.3920   14.0210 O.2   251  GLY251     -0.2732
     56  N         15.0910    8.3110   14.3100 N.am  252  PRO252     -0.2717
     57  CA        15.8400    9.4770   13.9160 C.3   252  PRO252      0.1535
     58  C         17.2790    9.1970   13.5130 C.2   252  PRO252      0.2598
     59  O         17.7510    8.0600   13.6630 O.2   252  PRO252     -0.2715
     60  CB        15.9020   10.3030   15.1890 C.3   252  PRO252      0.0310
     61  CG        15.5320    9.4170   16.3020 C.3   252  PRO252      0.0237
     62  CD        14.7310    8.3000   15.7280 C.3   252  PRO252      0.0939
     63  N         17.9340   10.2250   13.0140 N.am  253  ILE253     -0.1978
     64  CA        19.3100   10.2400   12.5260 C.3   253  ILE253      0.1596
     65  C         19.8960   11.6070   12.8150 C.2   253  ILE253      0.2287
     66  O         19.2870   12.6420   12.5440 O.2   253  ILE253     -0.2864
     67  CB        19.4610    9.8100   11.0630 C.3   253  ILE253      0.0276
     68  CG1       20.9310    9.8200   10.6360 C.3   253  ILE253      0.0022
     69  CG2       18.5550   10.6910   10.1920 C.3   253  ILE253      0.0022
     70  CD1       21.1320    9.1090    9.3350 C.3   253  ILE253      0.0001
     71  N         11.1440    6.2800    6.3520 N.3   286  ILE286     -0.1231
     72  CA        11.8530    7.2860    7.1050 C.3   286  ILE286      0.1692
     73  C         10.7700    8.2370    7.5590 C.2   286  ILE286      0.2592
     74  O         10.1670    8.9290    6.7220 O.2   286  ILE286     -0.2718
     75  CB        12.9840    7.9250    6.2960 C.3   286  ILE286      0.0266
     76  CG1       13.9960    6.8050    5.9070 C.3   286  ILE286      0.0019
     77  CG2       13.6040    9.0340    7.1320 C.3   286  ILE286      0.0020
     78  CD1       15.2290    7.2470    5.1490 C.3   286  ILE286      0.0001
     79  N         10.5420    8.3710    8.8440 N.am  287  ASP287     -0.1960
     80  CA         9.3340    9.0790    9.3040 C.3   287  ASP287      0.1840
     81  C          9.6300   10.5310    9.6250 C.2   287  ASP287      0.2622
     82  O         10.7260   10.9050   10.0310 O.2   287  ASP287     -0.2715
     83  CB         8.7670    8.3960   10.5550 C.3   287  ASP287      0.1450
     84  CG         9.6210    8.5930   11.7760 C.2   287  ASP287      0.3671
     85  OD1       10.8190    8.1740   11.7310 O.co2 287  ASP287     -0.2456
     86  OD2        9.1790    9.2440   12.7950 O.co2 287  ASP287     -0.2456
     87  N          8.5710   11.3560    9.5080 N.am  288  TRP288     -0.1960
     88  CA         8.5230   12.7080   10.0760 C.3   288  TRP288      0.1771
     89  C          9.7570   13.5240    9.6680 C.2   288  TRP288      0.2620
     90  O         10.5550   13.9650   10.4970 O.2   288  TRP288     -0.2715
     91  CB         8.3510   12.6670   11.5830 C.3   288  TRP288      0.0590
     92  CG         7.8930   13.9370   12.2560 C.ar  288  TRP288      0.0006
     93  CD1        7.9130   15.2120   11.7590 C.ar  288  TRP288      0.0946
     94  CD2        7.4140   14.0290   13.6030 C.ar  288  TRP288      0.0152
     95  NE1        7.4280   16.0740   12.7060 N.ar  288  TRP288     -0.2442
     96  CE2        7.1810   15.3890   13.8700 C.ar  288  TRP288      0.0810
     97  CE3        7.1780   13.1010   14.6110 C.ar  288  TRP288      0.0012
     98  CZ2        6.6750   15.8420   15.0840 C.ar  288  TRP288      0.0191
     99  CZ3        6.7290   13.5640   15.8380 C.ar  288  TRP288      0.0001
    100  CH2        6.4730   14.9010   16.0600 C.ar  288  TRP288      0.0015
    101  N          9.8130   13.8210    8.3720 N.am  289  THR289     -0.1951
    102  CA        10.8680   14.6340    7.7760 C.3   289  THR289      0.1897
    103  C         10.3030   16.0110    7.3730 C.2   289  THR289      0.2313
    104  O          9.1330   16.1650    7.1630 O.2   289  THR289     -0.2863
    105  CB        11.5240   13.9950    6.5670 C.3   289  THR289      0.1794
    106  OG1       10.6230   13.9650    5.4520 O.3   289  THR289     -0.2208
    107  CG2       12.0010   12.5960    6.8800 C.3   289  THR289      0.0378
    108  N         14.8610   18.6590    3.9260 N.3   293  ILE293     -0.1245
    109  CA        15.7760   17.5260    4.0540 C.3   293  ILE293      0.1561
    110  C         15.4190   16.3500    3.1710 C.2   293  ILE293      0.2260
    111  O         16.1660   15.3630    3.0720 O.2   293  ILE293     -0.2867
    112  CB        15.9860   17.0630    5.5330 C.3   293  ILE293      0.0252
    113  CG1       17.3340   16.2790    5.6920 C.3   293  ILE293      0.0019
    114  CG2       14.7970   16.2520    5.9970 C.3   293  ILE293      0.0019
    115  CD1       18.5750   17.0970    5.4120 C.3   293  ILE293      0.0001
    116  N         17.6160   12.2140    1.7220 N.3   297  TYR297     -0.1241
    117  CA        17.1840   10.8460    1.6200 C.3   297  TYR297      0.1605
    118  C         16.8370   10.4520    0.1790 C.2   297  TYR297      0.2264
    119  O         16.9330    9.2970   -0.2100 O.2   297  TYR297     -0.2867
    120  CB        15.9680   10.6420    2.5400 C.3   297  TYR297      0.0534
    121  CG        16.2050   11.0180    3.9650 C.ar  297  TYR297     -0.0201
    122  CD1       16.9530   10.1960    4.7960 C.ar  297  TYR297     -0.0009
    123  CD2       15.7290   12.2090    4.4860 C.ar  297  TYR297     -0.0009
    124  CE1       17.2290   10.5650    6.0910 C.ar  297  TYR297      0.0417
    125  CE2       15.9750   12.5530    5.8080 C.ar  297  TYR297      0.0417
    126  CZ        16.6920   11.7010    6.5880 C.ar  297  TYR297      0.1957
    127  OH        16.9650   12.0830    7.8880 O.3   297  TYR297     -0.2866
@<TRIPOS>BOND
     1   119   118    2
     2   118   117    1
     3   117   116    1
     4   117   120    1
     5   120   121    1
     6   111   110    2
     7   110   109    1
     8   108   109    1
     9   121   123   ar
    10   121   122   ar
    11   109   112    1
    12   123   125   ar
    13   122   124   ar
    14    78    76    1
    15   115   113    1
    16   106   105    1
    17   112   113    1
    18   112   114    1
    19   125   126   ar
    20    76    75    1
    21   124   126   ar
    22    75    72    1
    23    75    77    1
    24    71    72    1
    25   105   107    1
    26   105   102    1
    27   126   127    1
    28    74    73    2
    29    72    73    1
    30   104   103    2
    31   103   102    1
    32    73    79   am
    33   102   101    1
    34   101    89   am
    35    79    80    1
    36    80    81    1
    37    80    83    1
    38    70    68    1
    39    87    81   am
    40    87    88    1
    41    81    82    2
    42    89    88    1
    43    89    90    2
    44    88    91    1
    45    69    67    1
    46    83    84    1
    47    68    67    1
    48    67    64    1
    49    91    92    1
    50    52    53    1
    51    85    84   ar
    52    93    92   ar
    53    93    95   ar
    54    84    86   ar
    55    48    47    2
    56    53    54    1
    57    92    94   ar
    58    64    65    1
    59    64    63    1
    60    66    65    2
    61    47    46    1
    62    95    96   ar
    63    63    58   am
    64    58    59    2
    65    58    57    1
    66    54    55    2
    67    54    56   am
    68    94    96   ar
    69    94    97   ar
    70    96    98   ar
    71    57    56    1
    72    57    60    1
    73    46    49    1
    74    46    45    1
    75    56    62    1
    76    49    50    1
    77    97    99   ar
    78    35    33   ar
    79    35    34   ar
    80    98   100   ar
    81    45    51    1
    82    60    61    1
    83    33    31   ar
    84    10     8   ar
    85    10     9   ar
    86     8     6   ar
    87    62    61    1
    88    50    51    1
    89    99   100   ar
    90    34    32   ar
    91    31    30   ar
    92    31    29   ar
    93     9     7   ar
    94     6     7   ar
    95     6     5    1
    96    30    28   ar
    97    32    29   ar
    98    29    27   ar
    99     4     3    2
   100     3     2    1
   101     5     2    1
   102    28    27   ar
   103     2     1    1
   104    27    26    1
   105    43    42   ar
   106    20    19    1
   107    44    42   ar
   108    19    21    1
   109    19    18    2
   110    18    17    1
   111    42    41    1
   112    26    23    1
   113    17    16    1
   114    23    22    1
   115    23    24    1
   116    16    15    1
   117    41    40    1
   118    15    12    1
   119    22    13   am
   120    40    37    1
   121    24    25    2
   122    13    12    1
   123    13    14    2
   124    12    11    1
   125    37    38    1
   126    37    36    1
   127    38    39    2
