@<TRIPOS>MOLECULE
tmp/5kf9A01.pdb
 205 201 0 0 0
SMALL
GASTEIGER

@<TRIPOS>ATOM
      1  N        -10.4850    4.4930    9.1710 N.3    20  ILE20      -0.1245
      2  CA        -9.2700    4.9860    8.4830 C.3    20  ILE20       0.1561
      3  C         -8.2560    3.8800    8.2510 C.2    20  ILE20       0.2260
      4  O         -7.1110    4.1390    7.8550 O.2    20  ILE20      -0.2867
      5  CB        -8.6440    6.1750    9.2110 C.3    20  ILE20       0.0252
      6  CG1       -7.9970    5.7600   10.5360 C.3    20  ILE20       0.0019
      7  CG2       -9.6600    7.2950    9.3730 C.3    20  ILE20       0.0019
      8  CD1       -7.2490    6.8690   11.2100 C.3    20  ILE20       0.0001
      9  N         -3.8960   16.8440   20.9180 N.3    78  ILE78      -0.1231
     10  CA        -4.8930   15.9220   20.4310 C.3    78  ILE78       0.1692
     11  C         -4.1610   14.8170   19.6870 C.2    78  ILE78       0.2592
     12  O         -3.6890   15.0320   18.5620 O.2    78  ILE78      -0.2718
     13  CB        -5.9230   16.6020   19.5570 C.3    78  ILE78       0.0266
     14  CG1       -6.4810   17.9110   20.2200 C.3    78  ILE78       0.0019
     15  CG2       -6.9960   15.5890   19.1260 C.3    78  ILE78       0.0020
     16  CD1       -7.0920   17.6970   21.5750 C.3    78  ILE78       0.0001
     17  N         -4.0490   13.6940   20.3300 N.am   79  ASN79      -0.1960
     18  CA        -3.3570   12.5360   19.7620 C.3    79  ASN79       0.1819
     19  C         -4.1120   11.9920   18.5530 C.2    79  ASN79       0.2622
     20  O         -3.4950   11.6850   17.5060 O.2    79  ASN79      -0.2715
     21  CB        -3.1100   11.4600   20.8420 C.3    79  ASN79       0.1195
     22  CG        -2.7750   10.0910   20.2600 C.2    79  ASN79       0.2630
     23  OD1       -3.6630    9.3440   19.8020 O.2    79  ASN79      -0.2716
     24  ND2       -1.5140    9.7570   20.2590 N.am   79  ASN79      -0.0877
     25  N         -5.4210   11.8710   18.6590 N.am   80  SER80      -0.1936
     26  CA        -6.2630   11.3170   17.5920 C.3    80  SER80       0.2055
     27  C         -7.7170   11.6030   17.9660 C.2    80  SER80       0.2643
     28  O         -8.0610   11.7630   19.1380 O.2    80  SER80      -0.2714
     29  CB        -6.0530    9.8330   17.4040 C.3    80  SER80       0.2130
     30  OG        -6.1830    9.1110   18.6290 O.3    80  SER80      -0.2179
     31  N         -8.5470   11.8010   16.9650 N.am   81  ILE81      -0.1963
     32  CA       -10.0000   11.8880   17.1610 C.3    81  ILE81       0.1727
     33  C        -10.6490   11.2350   15.9420 C.2    81  ILE81       0.2616
     34  O        -10.2520   11.5360   14.8050 O.2    81  ILE81      -0.2715
     35  CB       -10.4610   13.3460   17.3440 C.3    81  ILE81       0.0290
     36  CG1      -11.9700   13.3820   17.5690 C.3    81  ILE81       0.0022
     37  CG2       -9.9920   14.2880   16.2740 C.3    81  ILE81       0.0023
     38  CD1      -12.4680   14.7420   18.0260 C.3    81  ILE81       0.0001
     39  N        -11.6000   10.3360   16.1550 N.am   82  ILE82      -0.1963
     40  CA       -12.3160    9.6720   15.0970 C.3    82  ILE82       0.1727
     41  C        -13.7710    9.5470   15.5640 C.2    82  ILE82       0.2616
     42  O        -14.0090    9.0820   16.6730 O.2    82  ILE82      -0.2715
     43  CB       -11.7720    8.2920   14.7080 C.3    82  ILE82       0.0290
     44  CG1      -10.2690    8.3090   14.4530 C.3    82  ILE82       0.0022
     45  CG2      -12.5230    7.8090   13.4780 C.3    82  ILE82       0.0023
     46  CD1       -9.6700    6.9590   14.0990 C.3    82  ILE82       0.0001
     47  N        -14.6800    9.9390   14.6820 N.am   83  VAL83      -0.1977
     48  CA       -16.1120    9.7020   14.8320 C.3    83  VAL83       0.1596
     49  C        -16.4630    8.6670   13.7690 C.2    83  VAL83       0.2287
     50  O        -16.0810    8.7990   12.5930 O.2    83  VAL83      -0.2864
     51  CB       -16.9040   10.9950   14.6720 C.3    83  VAL83       0.0276
     52  CG1      -18.4360   10.7670   14.5710 C.3    83  VAL83       0.0022
     53  CG2      -16.5960   11.9010   15.8660 C.3    83  VAL83       0.0022
     54  N        -22.1120    8.2050   11.8320 N.3    87  PHE87      -0.1227
     55  CA       -22.5240    9.1710   12.8380 C.3    87  PHE87       0.1736
     56  C        -21.8850   10.5090   12.6960 C.2    87  PHE87       0.2595
     57  O        -21.7750   11.2430   13.6640 O.2    87  PHE87      -0.2718
     58  CB       -22.2630    8.6210   14.2560 C.3    87  PHE87       0.0547
     59  CG       -22.9980    7.3140   14.5550 C.ar   87  PHE87      -0.0202
     60  CD1      -24.2730    7.3800   15.1490 C.ar   87  PHE87      -0.0042
     61  CD2      -22.4750    6.0900   14.2740 C.ar   87  PHE87      -0.0042
     62  CE1      -24.9710    6.2250   15.4240 C.ar   87  PHE87      -0.0003
     63  CE2      -23.1760    4.9070   14.5530 C.ar   87  PHE87      -0.0003
     64  CZ       -24.4290    5.0060   15.1350 C.ar   87  PHE87      -0.0000
     65  N        -21.4200   10.8440   11.4920 N.am   88  ARG88      -0.1966
     66  CA       -20.7880   12.1410   11.2100 C.3    88  ARG88       0.1729
     67  C        -21.8040   13.2870   11.0880 C.2    88  ARG88       0.2616
     68  O        -22.9880   13.0210   10.8130 O.2    88  ARG88      -0.2715
     69  CB       -20.0960   12.0700    9.8230 C.3    88  ARG88       0.0348
     70  CG       -19.0310   11.0010    9.7660 C.3    88  ARG88       0.0492
     71  CD       -17.7460   11.5140   10.4000 C.3    88  ARG88       0.2205
     72  NE       -16.7420   10.4430   10.4600 N.pl3  88  ARG88      -0.0865
     73  CZ       -15.9780   10.0150    9.4650 C.cat  88  ARG88       0.5346
     74  NH1      -15.1810    8.9860    9.6570 N.pl3  88  ARG88       0.1354
     75  NH2      -15.9500   10.6780    8.3100 N.pl3  88  ARG88       0.1354
     76  N        -21.3280   14.5240   11.2720 N.am   89  HIS89      -0.1973
     77  CA       -22.1080   15.7250   11.0940 C.3    89  HIS89       0.1656
     78  C        -23.3260   15.6760   11.9690 C.2    89  HIS89       0.2291
     79  O        -24.3500   16.2940   11.6190 O.2    89  HIS89      -0.2864
     80  CB       -22.4590   15.9380    9.6460 C.3    89  HIS89       0.0771
     81  CG       -21.2800   16.3430    8.8370 C.ar   89  HIS89       0.0820
     82  ND1      -20.7890   17.6230    8.8570 N.ar   89  HIS89      -0.2267
     83  CD2      -20.4900   15.6360    7.9910 C.ar   89  HIS89       0.1154
     84  CE1      -19.7730   17.7120    8.0110 C.ar   89  HIS89       0.1986
     85  NE2      -19.5590   16.5120    7.4970 N.ar   89  HIS89      -0.2212
     86  N        -22.4960   16.5220   15.3380 N.3    91  GLY91      -0.1210
     87  CA       -21.9500   17.2710   16.4530 C.3    91  GLY91       0.1956
     88  C        -21.1260   16.4630   17.4360 C.2    91  GLY91       0.2612
     89  O        -20.6440   17.0300   18.4320 O.2    91  GLY91      -0.2717
     90  N        -20.9070   15.1770   17.1670 N.am   92  ILE92      -0.1965
     91  CA       -20.2170   14.3110   18.1100 C.3    92  ILE92       0.1727
     92  C        -18.7420   14.7220   18.2170 C.2    92  ILE92       0.2617
     93  O        -18.1670   14.8050   19.3030 O.2    92  ILE92      -0.2715
     94  CB       -20.3220   12.8420   17.7480 C.3    92  ILE92       0.0290
     95  CG1      -21.8030   12.4640   17.7560 C.3    92  ILE92       0.0022
     96  CG2      -19.5150   11.9750   18.6820 C.3    92  ILE92       0.0023
     97  CD1      -22.1100   11.1070   17.1800 C.3    92  ILE92       0.0001
     98  N        -18.0710   14.9770   17.1070 N.am   93  GLY93      -0.1940
     99  CA       -16.6820   15.4110   17.1290 C.3    93  GLY93       0.2014
    100  C        -16.5140   16.7010   17.9010 C.2    93  GLY93       0.2639
    101  O        -15.5570   16.8380   18.7070 O.2    93  GLY93      -0.2714
    102  N        -17.4640   17.6370   17.7130 N.am   94  THR94      -0.1950
    103  CA       -17.4600   18.8720   18.4800 C.3    94  THR94       0.1897
    104  C        -17.5870   18.6180   19.9700 C.2    94  THR94       0.2313
    105  O        -16.8240   19.1830   20.7620 O.2    94  THR94      -0.2863
    106  CB       -18.6050   19.7870   18.0170 C.3    94  THR94       0.1794
    107  OG1      -18.3870   20.1530   16.6490 O.3    94  THR94      -0.2208
    108  CG2      -18.6590   21.0670   18.8320 C.3    94  THR94       0.0378
    109  N         -2.2860   19.4680   17.1650 N.3   114  CYS114     -0.1221
    110  CA        -2.8160   18.2830   16.5040 C.3   114  CYS114      0.1808
    111  C         -1.6870   17.3130   16.2550 C.2   114  CYS114      0.2601
    112  O         -0.7600   17.5920   15.4580 O.2   114  CYS114     -0.2717
    113  CB        -3.4440   18.6240   15.1440 C.3   114  CYS114      0.0970
    114  SG        -4.9880   19.5150   15.3170 S.3   114  CYS114     -0.0800
    115  N         -1.7050   16.1530   16.9190 N.am  115  GLY115     -0.1957
    116  CA        -0.6180   15.2000   16.8390 C.3   115  GLY115      0.1869
    117  C          0.6780   15.7770   17.3790 C.2   115  GLY115      0.2309
    118  O          0.6530   16.7870   18.1000 O.2   115  GLY115     -0.2863
    119  N          0.5350   10.4190   14.7890 N.3   122  PHE122     -0.1241
    120  CA         0.6330   11.2690   13.6210 C.3   122  PHE122      0.1605
    121  C          1.5200   12.4780   13.9570 C.2   122  PHE122      0.2264
    122  O          1.3130   13.1130   14.9970 O.2   122  PHE122     -0.2867
    123  CB        -0.7420   11.8220   13.2330 C.3   122  PHE122      0.0534
    124  CG        -1.7970   10.7940   13.0750 C.ar  122  PHE122     -0.0203
    125  CD1       -1.6740    9.8200   12.0930 C.ar  122  PHE122     -0.0042
    126  CD2       -2.9420   10.8890   13.8170 C.ar  122  PHE122     -0.0042
    127  CE1       -2.7070    8.9110   11.9260 C.ar  122  PHE122     -0.0003
    128  CE2       -3.9400    9.9520   13.7030 C.ar  122  PHE122     -0.0003
    129  CZ        -3.8130    9.0140   12.7030 C.ar  122  PHE122     -0.0000
    130  N          1.1820   15.2500   12.5250 N.3   124  GLY124     -0.1210
    131  CA         0.2200   16.3370   12.3150 C.3   124  GLY124      0.1956
    132  C         -1.0270   15.7870   11.6660 C.2   124  GLY124      0.2612
    133  O         -1.2620   14.6000   11.7170 O.2   124  GLY124     -0.2717
    134  N         -1.9090   16.6270   11.1270 N.am  125  ILE125     -0.1966
    135  CA        -3.1300   16.1190   10.5200 C.3   125  ILE125      0.1712
    136  C         -2.7710   15.4240    9.2090 C.2   125  ILE125      0.2458
    137  O         -2.2220   16.0740    8.3240 O.2   125  ILE125     -0.2730
    138  CB        -4.1480   17.2680   10.2230 C.3   125  ILE125      0.0289
    139  CG1       -4.4390   18.0350   11.5150 C.3   125  ILE125      0.0022
    140  CG2       -5.3750   16.7110    9.5250 C.3   125  ILE125      0.0023
    141  CD1       -5.2370   19.3100   11.2220 C.3   125  ILE125      0.0001
    142  N         -3.0190   14.1070    9.0630 N.am  126  PRO126     -0.2727
    143  CA        -2.6400   13.4230    7.8060 C.3   126  PRO126      0.1402
    144  C         -3.3290   13.9910    6.5880 C.2   126  PRO126      0.2269
    145  O         -4.4840   14.4180    6.6850 O.2   126  PRO126     -0.2865
    146  CB        -3.1180   11.9770    8.0400 C.3   126  PRO126      0.0296
    147  CG        -3.1420   11.8320    9.5410 C.3   126  PRO126      0.0237
    148  CD        -3.5800   13.1750   10.0440 C.3   126  PRO126      0.0939
    149  N         -6.5820   12.7750    5.9440 N.3   129  CYS129     -0.1235
    150  CA        -7.6170   13.3900    6.7490 C.3   129  CYS129      0.1677
    151  C         -7.7060   14.8510    6.4370 C.2   129  CYS129      0.2270
    152  O         -8.1550   15.6300    7.2820 O.2   129  CYS129     -0.2867
    153  CB        -7.2270   13.2240    8.2270 C.3   129  CYS129      0.0956
    154  SG        -7.1720   11.4810    8.7970 S.3   129  CYS129     -0.0801
    155  N         -9.9390   16.5690    4.8790 N.3   131  PRO131     -0.2102
    156  CA       -11.2240   17.1950    5.1820 C.3   131  PRO131      0.1504
    157  C        -11.3290   17.6570    6.6370 C.2   131  PRO131      0.2576
    158  O        -12.0920   18.6250    6.9070 O.2   131  PRO131     -0.2718
    159  CB       -12.2580   16.1310    4.8010 C.3   131  PRO131      0.0282
    160  CG       -11.5360   15.3330    3.7180 C.3   131  PRO131      0.0208
    161  CD       -10.1250   15.2370    4.2520 C.3   131  PRO131      0.0893
    162  N        -10.6680   17.0000    7.5710 N.am  132  SER132     -0.1953
    163  CA       -10.7160   17.3690    8.9770 C.3   132  SER132      0.1924
    164  C        -10.0700   18.7270    9.1690 C.2   132  SER132      0.2314
    165  O        -10.2970   19.3490   10.2240 O.2   132  SER132     -0.2863
    166  CB       -10.1240   16.3200    9.9170 C.3   132  SER132      0.2116
    167  OG        -8.7400   16.3500    9.8450 O.3   132  SER132     -0.2180
    168  N        -10.8260   21.5020    7.9650 N.3   134  GLU134     -0.1231
    169  CA       -11.9130   22.4690    8.1550 C.3   134  GLU134      0.1699
    170  C        -12.5540   22.3330    9.5160 C.2   134  GLU134      0.2592
    171  O        -12.9440   23.3410   10.1060 O.2   134  GLU134     -0.2718
    172  CB       -12.9530   22.2750    7.0620 C.3   134  GLU134      0.0402
    173  CG       -13.8670   23.4650    6.8480 C.3   134  GLU134      0.1161
    174  CD       -13.0430   24.7230    6.5910 C.2   134  GLU134      0.3649
    175  OE1      -12.1540   24.7210    5.6840 O.co2 134  GLU134     -0.2457
    176  OE2      -13.2620   25.6930    7.3340 O.co2 134  GLU134     -0.2457
    177  N        -12.7120   21.1010   10.0060 N.am  135  PHE135     -0.1962
    178  CA       -13.2260   20.8590   11.3560 C.3   135  PHE135      0.1771
    179  C        -12.3440   21.5750   12.3780 C.2   135  PHE135      0.2619
    180  O        -12.8180   22.2730   13.2870 O.2   135  PHE135     -0.2715
    181  CB       -13.3180   19.3550   11.6210 C.3   135  PHE135      0.0574
    182  CG       -13.5400   18.9830   13.0670 C.ar  135  PHE135     -0.0200
    183  CD1      -14.8080   18.9920   13.6390 C.ar  135  PHE135     -0.0042
    184  CD2      -12.5130   18.5050   13.8240 C.ar  135  PHE135     -0.0042
    185  CE1      -14.9900   18.6200   14.9360 C.ar  135  PHE135     -0.0003
    186  CE2      -12.6980   18.1410   15.1410 C.ar  135  PHE135     -0.0003
    187  CZ       -13.9570   18.1700   15.7060 C.ar  135  PHE135     -0.0000
    188  N        -11.0390   21.4500   12.2490 N.am  136  PHE136     -0.1974
    189  CA       -10.1300   22.0910   13.1910 C.3   136  PHE136      0.1639
    190  C        -10.1090   23.6060   12.9920 C.2   136  PHE136      0.2290
    191  O        -10.0700   24.3320   13.9820 O.2   136  PHE136     -0.2864
    192  CB        -8.7370   21.4640   13.0960 C.3   136  PHE136      0.0560
    193  CG        -8.6780   20.0670   13.6560 C.ar  136  PHE136     -0.0200
    194  CD1       -8.7590   19.8160   15.0010 C.ar  136  PHE136     -0.0042
    195  CD2       -8.4960   18.9710   12.7880 C.ar  136  PHE136     -0.0042
    196  CE1       -8.6800   18.5290   15.5050 C.ar  136  PHE136     -0.0003
    197  CE2       -8.4460   17.7020   13.2790 C.ar  136  PHE136     -0.0003
    198  CZ        -8.4980   17.4740   14.6230 C.ar  136  PHE136     -0.0000
    199  N        -12.5810   25.5390   12.1090 N.3   138  VAL138     -0.1245
    200  CA       -13.7930   26.1230   12.7270 C.3   138  VAL138      0.1561
    201  C        -13.5400   26.3320   14.2020 C.2   138  VAL138      0.2260
    202  O        -14.0530   27.2830   14.8030 O.2   138  VAL138     -0.2867
    203  CB       -15.0120   25.2060   12.4890 C.3   138  VAL138      0.0252
    204  CG1      -16.2070   25.5490   13.3980 C.3   138  VAL138      0.0019
    205  CG2      -15.4260   25.2630   11.0240 C.3   138  VAL138      0.0019
@<TRIPOS>BOND
     1   160   161    1
     2   160   159    1
     3   161   155    1
     4   159   156    1
     5   155   156    1
     6   156   157    1
     7   175   174   ar
     8   149   150    1
     9   151   150    1
    10   151   152    2
    11   144   145    2
    12   144   143    1
    13   174   173    1
    14   174   176   ar
    15   157   158    2
    16   157   162   am
    17   150   153    1
    18   173   172    1
    19   172   169    1
    20    85    83   ar
    21    85    84   ar
    22   162   163    1
    23   143   146    1
    24   143   142    1
    25     4     3    2
    26   168   169    1
    27    83    81   ar
    28    84    82   ar
    29   146   147    1
    30   169   170    1
    31   153   154    1
    32     3     2    1
    33    75    73    1
    34   137   136    2
    35     2     1    1
    36     2     5    1
    37    81    82   ar
    38    81    80    1
    39   163   164    1
    40   163   166    1
    41   142   136   am
    42   142   148    1
    43   164   165    2
    44   136   135    1
    45     5     7    1
    46     5     6    1
    47    73    74    1
    48    73    72    2
    49   170   177   am
    50   170   171    2
    51   140   138    1
    52   147   148    1
    53    80    77    1
    54    70    69    1
    55    70    71    1
    56    69    66    1
    57   167   166    1
    58   177   178    1
    59   138   135    1
    60   138   139    1
    61    71    72    1
    62   135   134    1
    63     6     8    1
    64    68    67    2
    65   205   203    1
    66    67    66    1
    67    67    76   am
    68    77    76    1
    69    77    78    1
    70   134   132   am
    71    66    65    1
    72   141   139    1
    73   178   181    1
    74   178   179    1
    75    65    56   am
    76    79    78    2
    77   181   182    1
    78   132   133    2
    79   132   131    1
    80    54    55    1
    81   127   125   ar
    82   127   129   ar
    83   125   124   ar
    84   199   200    1
    85   188   179   am
    86   188   189    1
    87   131   130    1
    88   179   180    2
    89   203   200    1
    90   203   204    1
    91    50    49    2
    92    56    55    1
    93    56    57    2
    94   129   128   ar
    95   200   201    1
    96   195   197   ar
    97   195   193   ar
    98    55    58    1
    99   190   189    1
   100   190   191    2
   101   182   183   ar
   102   182   184   ar
   103   124   123    1
   104   124   126   ar
   105   192   189    1
   106   192   193    1
   107   123   120    1
   108   197   198   ar
   109    45    43    1
   110   120   121    1
   111   120   119    1
   112   183   185   ar
   113   193   194   ar
   114   128   126   ar
   115    49    48    1
   116   184   186   ar
   117   121   122    2
   118    46    44    1
   119   201   202    2
   120    58    59    1
   121    61    63   ar
   122    61    59   ar
   123    44    43    1
   124    63    64   ar
   125    59    60   ar
   126    52    51    1
   127   198   196   ar
   128    51    48    1
   129    51    53    1
   130    47    48    1
   131    47    41   am
   132    43    40    1
   133    34    33    2
   134   185   187   ar
   135   194   196   ar
   136    40    41    1
   137    40    39    1
   138    64    62   ar
   139   186   187   ar
   140   113   114    1
   141   113   110    1
   142    60    62   ar
   143    86    87    1
   144   112   111    2
   145    41    42    2
   146    33    39   am
   147    33    32    1
   148   111   110    1
   149   111   115   am
   150    37    35    1
   151    87    88    1
   152   110   109    1
   153   107   106    1
   154   116   115    1
   155   116   117    1
   156    31    32    1
   157    31    27   am
   158    98    99    1
   159    98    92   am
   160    99   100    1
   161    32    35    1
   162    90    88   am
   163    90    91    1
   164    97    95    1
   165    35    36    1
   166   117   118    2
   167    29    26    1
   168    29    30    1
   169    88    89    2
   170    20    19    2
   171    36    38    1
   172    26    27    1
   173    26    25    1
   174   102   100   am
   175   102   103    1
   176    94    95    1
   177    94    91    1
   178    94    96    1
   179   100   101    2
   180    27    28    2
   181   106   103    1
   182   106   108    1
   183    91    92    1
   184    92    93    2
   185   103   104    1
   186    19    25   am
   187    19    18    1
   188    12    11    2
   189    15    13    1
   190    13    14    1
   191    13    10    1
   192    11    17   am
   193    11    10    1
   194    18    17    1
   195    18    21    1
   196    23    22    2
   197   104   105    2
   198    14    16    1
   199    24    22   am
   200    22    21    1
   201    10     9    1
