@<TRIPOS>MOLECULE
tmp/5kgdA00.pdb
 140 130 0 0 0
SMALL
GASTEIGER

@<TRIPOS>ATOM
      1  N         31.8350   46.0140   -5.2970 N.3    12  LEU12      -0.1245
      2  CA        30.4270   46.2070   -5.6470 C.3    12  LEU12       0.1561
      3  C         30.2150   47.5260   -6.3860 C.2    12  LEU12       0.2260
      4  O         29.3510   47.6170   -7.2540 O.2    12  LEU12      -0.2867
      5  CB        29.5130   46.1390   -4.3990 C.3    12  LEU12       0.0270
      6  CG        29.4800   44.8150   -3.6090 C.3    12  LEU12       0.0019
      7  CD1       28.5830   44.9360   -2.3790 C.3    12  LEU12       0.0001
      8  CD2       29.0000   43.6410   -4.4840 C.3    12  LEU12       0.0001
      9  N         31.3960   58.5400   -3.2220 N.3    17  PHE17      -0.1241
     10  CA        31.2980   57.9610   -1.8770 C.3    17  PHE17       0.1605
     11  C         32.5220   57.1480   -1.3700 C.2    17  PHE17       0.2264
     12  O         32.6100   56.8900   -0.1660 O.2    17  PHE17      -0.2867
     13  CB        30.0690   57.0560   -1.8300 C.3    17  PHE17       0.0534
     14  CG        30.0180   56.0060   -2.9180 C.ar   17  PHE17      -0.0203
     15  CD1       29.2800   56.2190   -4.0800 C.ar   17  PHE17      -0.0042
     16  CD2       30.6460   54.7750   -2.7510 C.ar   17  PHE17      -0.0042
     17  CE1       29.2170   55.2380   -5.0800 C.ar   17  PHE17      -0.0003
     18  CE2       30.5600   53.7880   -3.7390 C.ar   17  PHE17      -0.0003
     19  CZ        29.8380   54.0240   -4.8900 C.ar   17  PHE17      -0.0000
     20  N         33.2900   50.2940   -2.2840 N.3    20  VAL20      -0.1245
     21  CA        32.5060   49.3270   -1.5130 C.3    20  VAL20       0.1561
     22  C         32.7630   47.9290   -2.0430 C.2    20  VAL20       0.2260
     23  O         32.6160   47.6940   -3.2470 O.2    20  VAL20      -0.2867
     24  CB        30.9890   49.6530   -1.5100 C.3    20  VAL20       0.0252
     25  CG1       30.2200   48.6320   -0.6720 C.3    20  VAL20       0.0019
     26  CG2       30.7210   51.0670   -0.9990 C.3    20  VAL20       0.0019
     27  N         29.0960   44.3620    3.6670 N.3    33  ALA33      -0.1245
     28  CA        29.6610   45.2420    2.6400 C.3    33  ALA33       0.1562
     29  C         30.7510   46.0350    3.3740 C.2    33  ALA33       0.2260
     30  O         30.5710   46.4340    4.5220 O.2    33  ALA33      -0.2867
     31  CB        28.6160   46.1770    2.0480 C.3    33  ALA33       0.0290
     32  N         33.0420   49.2760    3.1430 N.3    35  LYS35      -0.1245
     33  CA        33.1950   50.5700    2.5020 C.3    35  LYS35       0.1561
     34  C         34.4380   51.2880    3.0000 C.2    35  LYS35       0.2260
     35  O         34.6330   51.4410    4.2120 O.2    35  LYS35      -0.2867
     36  CB        31.9190   51.4040    2.7120 C.3    35  LYS35       0.0271
     37  CG        31.9880   52.8080    2.1000 C.3    35  LYS35       0.0035
     38  CD        30.6460   53.5370    2.2360 C.3    35  LYS35       0.0206
     39  CE        30.7840   54.9690    1.7890 C.3    35  LYS35       0.1093
     40  NZ        29.4990   55.7220    1.8260 N.3    35  LYS35      -0.1314
     41  N         29.3990   60.5510    8.5550 N.3    57  GLU57      -0.1245
     42  CA        28.7250   59.3370    8.0950 C.3    57  GLU57       0.1567
     43  C         28.6420   58.2860    9.2210 C.2    57  GLU57       0.2260
     44  O         27.5870   57.6810    9.4190 O.2    57  GLU57      -0.2867
     45  CB        29.4910   58.7690    6.9100 C.3    57  GLU57       0.0388
     46  CG        28.7190   57.6980    6.1840 C.3    57  GLU57       0.1160
     47  CD        29.4080   57.1260    4.9630 C.2    57  GLU57       0.3649
     48  OE1       30.4370   57.6730    4.5020 O.co2  57  GLU57      -0.2457
     49  OE2       28.8770   56.1260    4.4480 O.co2  57  GLU57      -0.2457
     50  N         20.2610   50.6440    6.0020 N.3    72  ILE72      -0.1245
     51  CA        21.3900   49.6870    6.0870 C.3    72  ILE72       0.1561
     52  C         22.1190   49.9100    7.4280 C.2    72  ILE72       0.2260
     53  O         22.4150   51.0520    7.7870 O.2    72  ILE72      -0.2867
     54  CB        22.3360   49.6360    4.8280 C.3    72  ILE72       0.0252
     55  CG1       21.6820   48.8280    3.6670 C.3    72  ILE72       0.0019
     56  CG2       23.7280   49.0110    5.1050 C.3    72  ILE72       0.0019
     57  CD1       21.7520   47.3240    3.7000 C.3    72  ILE72       0.0001
     58  N         29.1700   47.1540    6.8380 N.3    88  LEU88      -0.1231
     59  CA        27.7320   47.3460    6.7240 C.3    88  LEU88       0.1693
     60  C         27.0540   46.0360    6.4920 C.2    88  LEU88       0.2592
     61  O         27.6530   45.1300    5.9350 O.2    88  LEU88      -0.2718
     62  CB        27.4420   48.3130    5.5530 C.3    88  LEU88       0.0284
     63  CG        28.1090   49.6980    5.7330 C.3    88  LEU88       0.0019
     64  CD1       28.6020   50.2610    4.4250 C.3    88  LEU88       0.0001
     65  CD2       27.2530   50.6300    6.5490 C.3    88  LEU88       0.0001
     66  N         25.7840   45.9380    6.8750 N.am   89  GLU89      -0.1966
     67  CA        25.0600   44.7090    6.5880 C.3    89  GLU89       0.1733
     68  C         24.8560   44.6010    5.0750 C.2    89  GLU89       0.2616
     69  O         24.8870   45.6110    4.3690 O.2    89  GLU89      -0.2715
     70  CB        23.7420   44.6560    7.3880 C.3    89  GLU89       0.0429
     71  CG        22.5370   45.2920    6.7340 C.3    89  GLU89       0.1163
     72  CD        21.3820   45.4890    7.6950 C.2    89  GLU89       0.3649
     73  OE1       20.7780   46.5820    7.6480 O.co2  89  GLU89      -0.2457
     74  OE2       21.1100   44.5890    8.5250 O.co2  89  GLU89      -0.2457
     75  N         24.7590   43.3860    4.5670 N.am   90  ARG90      -0.1964
     76  CA        24.5650   43.2140    3.1400 C.3    90  ARG90       0.1714
     77  C         23.4650   42.1900    2.8560 C.2    90  ARG90       0.2458
     78  O         23.6730   41.0000    3.0910 O.2    90  ARG90      -0.2730
     79  CB        25.8860   42.8680    2.4190 C.3    90  ARG90       0.0347
     80  CG        25.7220   42.4610    0.9440 C.3    90  ARG90       0.0492
     81  CD        27.0350   42.1170    0.2370 C.3    90  ARG90       0.2205
     82  NE        27.7790   40.9950    0.8390 N.pl3  90  ARG90      -0.0865
     83  CZ        27.6460   39.7160    0.4920 C.cat  90  ARG90       0.5346
     84  NH1       26.7510   39.3570   -0.4190 N.pl3  90  ARG90       0.1354
     85  NH2       28.4040   38.7840    1.0610 N.pl3  90  ARG90       0.1354
     86  N         22.3040   42.6430    2.3230 N.am   91  PRO91      -0.2727
     87  CA        21.2410   41.6890    1.9420 C.3    91  PRO91       0.1402
     88  C         21.7030   40.8720    0.7500 C.2    91  PRO91       0.2269
     89  O         22.5350   41.3510   -0.0310 O.2    91  PRO91      -0.2865
     90  CB        20.0580   42.6000    1.5500 C.3    91  PRO91       0.0296
     91  CG        20.4380   43.9880    2.0060 C.3    91  PRO91       0.0237
     92  CD        21.9300   44.0270    1.9730 C.3    91  PRO91       0.0939
     93  N         20.4730   40.9590   -3.6550 N.3    94  VAL94      -0.1245
     94  CA        20.1860   42.3970   -3.5770 C.3    94  VAL94       0.1561
     95  C         20.3160   43.0200   -4.9680 C.2    94  VAL94       0.2260
     96  O         21.0050   42.4670   -5.8250 O.2    94  VAL94      -0.2867
     97  CB        21.1330   43.0580   -2.5370 C.3    94  VAL94       0.0252
     98  CG1       22.5720   43.1800   -3.0600 C.3    94  VAL94       0.0019
     99  CG2       20.6040   44.4030   -2.0660 C.3    94  VAL94       0.0019
    100  N         19.6540   55.1360   -6.7640 N.3   139  GLU139     -0.1231
    101  CA        20.9850   54.5240   -6.5360 C.3   139  GLU139      0.1699
    102  C         21.2590   54.2510   -5.0520 C.2   139  GLU139      0.2592
    103  O         22.0630   53.3680   -4.7390 O.2   139  GLU139     -0.2718
    104  CB        22.1070   55.4430   -7.0380 C.3   139  GLU139      0.0402
    105  CG        22.1250   55.6630   -8.5390 C.3   139  GLU139      0.1161
    106  CD        23.1800   56.6750   -8.9360 C.2   139  GLU139      0.3649
    107  OE1       22.8090   57.8350   -9.2280 O.co2 139  GLU139     -0.2457
    108  OE2       24.3810   56.3330   -8.8690 O.co2 139  GLU139     -0.2457
    109  N         20.6030   55.0100   -4.1380 N.am  140  ASN140     -0.1974
    110  CA        20.8240   54.8490   -2.7020 C.3   140  ASN140      0.1688
    111  C         19.7420   54.0520   -1.9890 C.2   140  ASN140      0.2292
    112  O         19.5250   54.2200   -0.7840 O.2   140  ASN140     -0.2864
    113  CB        21.0370   56.2120   -2.0490 C.3   140  ASN140      0.1181
    114  CG        22.3380   56.8400   -2.4680 C.2   140  ASN140      0.2629
    115  OD1       23.2720   56.1370   -2.8230 O.2   140  ASN140     -0.2716
    116  ND2       22.4410   58.1660   -2.4070 N.am  140  ASN140     -0.0877
    117  N         18.4920   50.0150   -1.6700 N.3   142  LEU142     -0.1245
    118  CA        18.7270   48.6060   -1.9800 C.3   142  LEU142      0.1561
    119  C         17.4340   47.8290   -1.8240 C.2   142  LEU142      0.2260
    120  O         16.6670   48.0680   -0.8830 O.2   142  LEU142     -0.2867
    121  CB        19.7900   47.9770   -1.0590 C.3   142  LEU142      0.0270
    122  CG        21.2020   48.5490   -1.1640 C.3   142  LEU142      0.0019
    123  CD1       22.1270   47.8020   -0.2340 C.3   142  LEU142      0.0001
    124  CD2       21.7350   48.4690   -2.6060 C.3   142  LEU142      0.0001
    125  N         20.7670   53.5230    1.8350 N.3   153  ILE153     -0.1231
    126  CA        22.2240   53.4460    1.9740 C.3   153  ILE153      0.1692
    127  C         22.8170   54.8160    1.6930 C.2   153  ILE153      0.2592
    128  O         22.1190   55.7300    1.2420 O.2   153  ILE153     -0.2718
    129  CB        22.8850   52.3840    1.0140 C.3   153  ILE153      0.0266
    130  CG1       22.5690   52.6810   -0.4800 C.3   153  ILE153      0.0019
    131  CG2       22.4770   50.9800    1.4050 C.3   153  ILE153      0.0020
    132  CD1       23.4110   51.8950   -1.5730 C.3   153  ILE153      0.0001
    133  N         24.1300   54.9320    1.9220 N.am  154  ASP154     -0.1974
    134  CA        24.9420   56.1130    1.6720 C.3   154  ASP154      0.1709
    135  C         24.5090   57.3660    2.4270 C.2   154  ASP154      0.2293
    136  O         23.9260   58.3020    1.8660 O.2   154  ASP154     -0.2864
    137  CB        25.0790   56.4070    0.1740 C.3   154  ASP154      0.1436
    138  CG        26.1930   57.4230   -0.1080 C.2   154  ASP154      0.3671
    139  OD1       27.0190   57.6730    0.8040 O.co2 154  ASP154     -0.2456
    140  OD2       26.2210   57.9750   -1.2200 O.co2 154  ASP154     -0.2456
@<TRIPOS>BOND
     1   107   106   ar
     2   106   108   ar
     3   106   105    1
     4   105   104    1
     5     4     3    2
     6   104   101    1
     7   100   101    1
     8   101   102    1
     9     3     2    1
    10    96    95    2
    11     2     1    1
    12     2     5    1
    13    17    19   ar
    14    17    15   ar
    15   102   103    2
    16   102   109   am
    17    95    94    1
    18    19    18   ar
    19     8     6    1
    20     5     6    1
    21   109   110    1
    22    15    14   ar
    23    18    16   ar
    24    93    94    1
    25     6     7    1
    26    94    97    1
    27    23    22    2
    28     9    10    1
    29    98    97    1
    30    14    16   ar
    31    14    13    1
    32   115   114    2
    33   110   113    1
    34   110   111    1
    35   124   122    1
    36    97    99    1
    37   114   116   am
    38   114   113    1
    39    20    21    1
    40    22    21    1
    41   111   112    2
    42   118   119    1
    43   118   117    1
    44   118   121    1
    45    10    13    1
    46    10    11    1
    47   119   120    2
    48   132   130    1
    49    21    24    1
    50    24    26    1
    51    24    25    1
    52    11    12    2
    53   140   138   ar
    54   122   121    1
    55   122   123    1
    56   130   129    1
    57    84    83    1
    58   138   137    1
    59   138   139   ar
    60    89    88    2
    61   137   134    1
    62    81    82    1
    63    81    80    1
    64    83    82    2
    65    83    85    1
    66    88    87    1
    67    80    79    1
    68   129   131    1
    69   129   126    1
    70   128   127    2
    71    90    87    1
    72    90    91    1
    73   134   133    1
    74   134   135    1
    75   127   133   am
    76   127   126    1
    77    39    40    1
    78    39    38    1
    79   125   126    1
    80   136   135    2
    81    87    86    1
    82    92    91    1
    83    92    86    1
    84    31    28    1
    85    37    38    1
    86    37    36    1
    87    86    77   am
    88    79    76    1
    89    33    36    1
    90    33    34    1
    91    33    32    1
    92    28    29    1
    93    28    27    1
    94    77    78    2
    95    77    76    1
    96    34    35    2
    97    76    75    1
    98    29    30    2
    99    55    57    1
   100    55    54    1
   101    69    68    2
   102    64    63    1
   103    49    47   ar
   104    48    47   ar
   105    75    68   am
   106    54    56    1
   107    54    51    1
   108    47    46    1
   109    68    67    1
   110    62    63    1
   111    62    59    1
   112    63    65    1
   113    61    60    2
   114    50    51    1
   115    51    52    1
   116    46    45    1
   117    60    59    1
   118    60    66   am
   119    67    66    1
   120    67    70    1
   121    59    58    1
   122    71    70    1
   123    71    72    1
   124    45    42    1
   125    52    53    2
   126    73    72   ar
   127    72    74   ar
   128    42    41    1
   129    42    43    1
   130    43    44    2
