@<TRIPOS>MOLECULE
tmp/5kgeA00.pdb
 142 133 0 0 0
SMALL
GASTEIGER

@<TRIPOS>ATOM
      1  N         41.7120    5.0770   -4.9830 N.3    12  LEU12      -0.1245
      2  CA        42.2880    3.7810   -5.3430 C.3    12  LEU12       0.1561
      3  C         41.2800    2.9280   -6.0970 C.2    12  LEU12       0.2260
      4  O         41.6550    2.1730   -6.9960 O.2    12  LEU12      -0.2867
      5  CB        42.8060    3.0170   -4.1010 C.3    12  LEU12       0.0270
      6  CG        43.9580    3.6440   -3.3130 C.3    12  LEU12       0.0019
      7  CD1       44.2790    2.8210   -2.0920 C.3    12  LEU12       0.0001
      8  CD2       45.2050    3.7980   -4.1710 C.3    12  LEU12       0.0001
      9  N         31.2350   -1.8810   -2.9290 N.3    17  PHE17      -0.1241
     10  CA        31.7880   -1.6350   -1.5970 C.3    17  PHE17       0.1605
     11  C         31.8210   -0.1650   -1.1110 C.2    17  PHE17       0.2264
     12  O         31.9230    0.0670    0.0950 O.2    17  PHE17      -0.2867
     13  CB        33.2090   -2.2120   -1.5340 C.3    17  PHE17       0.0534
     14  CG        34.1650   -1.7260   -2.6010 C.ar   17  PHE17      -0.0203
     15  CD1       34.4020   -2.4850   -3.7430 C.ar   17  PHE17      -0.0042
     16  CD2       34.8950   -0.5530   -2.4240 C.ar   17  PHE17      -0.0042
     17  CE1       35.3160   -2.0530   -4.7100 C.ar   17  PHE17      -0.0003
     18  CE2       35.8070   -0.1200   -3.3910 C.ar   17  PHE17      -0.0003
     19  CZ        36.0200   -0.8770   -4.5220 C.ar   17  PHE17      -0.0000
     20  N         37.2900    4.0710   -1.9580 N.3    20  VAL20      -0.1245
     21  CA        38.5370    3.9050   -1.2020 C.3    20  VAL20       0.1561
     22  C         39.5970    4.8500   -1.7260 C.2    20  VAL20       0.2260
     23  O         39.8790    4.8480   -2.9220 O.2    20  VAL20      -0.2867
     24  CB        39.0380    2.4310   -1.1960 C.3    20  VAL20       0.0252
     25  CG1       40.3080    2.2710   -0.3600 C.3    20  VAL20       0.0019
     26  CG2       37.9580    1.4850   -0.7020 C.3    20  VAL20       0.0019
     27  N         44.4590    3.4250    3.9260 N.3    33  ALA33      -0.1245
     28  CA        43.4110    3.4660    2.9140 C.3    33  ALA33       0.1562
     29  C         42.1890    4.0110    3.6500 C.2    33  ALA33       0.2260
     30  O         41.9140    3.6050    4.7760 O.2    33  ALA33      -0.2867
     31  CB        43.1360    2.0760    2.3340 C.3    33  ALA33       0.0290
     32  N         38.2640    4.3690    3.4460 N.3    35  LYS35      -0.1245
     33  CA        37.0700    3.8380    2.8030 C.3    35  LYS35       0.1561
     34  C         35.8150    4.5390    3.3080 C.2    35  LYS35       0.2260
     35  O         35.5830    4.6210    4.5130 O.2    35  LYS35      -0.2867
     36  CB        36.9960    2.3070    2.9920 C.3    35  LYS35       0.0271
     37  CG        35.7770    1.6520    2.3650 C.3    35  LYS35       0.0035
     38  CD        35.8340    0.1510    2.4860 C.3    35  LYS35       0.0206
     39  CE        34.5550   -0.4820    2.0190 C.3    35  LYS35       0.1093
     40  NZ        34.6230   -1.9650    1.9890 N.3    35  LYS35      -0.1314
     41  N         30.2690   -4.5090    8.6280 N.3    57  GLU57      -0.1245
     42  CA        31.6530   -4.4440    8.1760 C.3    57  GLU57       0.1567
     43  C         32.6110   -3.9850    9.2870 C.2    57  GLU57       0.2260
     44  O         33.6670   -4.5900    9.4600 O.2    57  GLU57      -0.2867
     45  CB        31.7430   -3.5220    6.9770 C.3    57  GLU57       0.0388
     46  CG        33.0570   -3.6620    6.2510 C.3    57  GLU57       0.1160
     47  CD        33.2100   -2.7750    5.0430 C.2    57  GLU57       0.3649
     48  OE1       32.2170   -2.1670    4.5900 O.co2  57  GLU57      -0.2457
     49  OE2       34.3420   -2.7030    4.5350 O.co2  57  GLU57      -0.2457
     50  N         35.4480   -6.3750   10.9870 N.3    61  LEU61      -0.1245
     51  CA        36.8310   -5.9170   10.9400 C.3    61  LEU61       0.1561
     52  C         37.4400   -5.8600   12.3300 C.2    61  LEU61       0.2260
     53  O         38.5530   -6.3240   12.4860 O.2    61  LEU61      -0.2867
     54  CB        36.9690   -4.5720   10.2100 C.3    61  LEU61       0.0270
     55  CG        36.8860   -4.6260    8.6830 C.3    61  LEU61       0.0019
     56  CD1       36.5770   -3.2680    8.1130 C.3    61  LEU61       0.0001
     57  CD2       38.1650   -5.1860    8.0580 C.3    61  LEU61       0.0001
     58  N         43.4050   -7.4210    6.1420 N.3    72  ILE72      -0.1245
     59  CA        43.6750   -5.9740    6.2340 C.3    72  ILE72       0.1561
     60  C         43.1000   -5.4660    7.5660 C.2    72  ILE72       0.2260
     61  O         41.9530   -5.7810    7.8950 O.2    72  ILE72      -0.2867
     62  CB        43.2390   -5.1240    4.9830 C.3    72  ILE72       0.0252
     63  CG1       44.2320   -5.2990    3.8180 C.3    72  ILE72       0.0019
     64  CG2       43.0630   -3.6080    5.2860 C.3    72  ILE72       0.0019
     65  CD1       45.4950   -4.4630    3.8440 C.3    72  ILE72       0.0001
     66  N         41.9940    2.0480    7.0830 N.3    88  LEU88      -0.1231
     67  CA        42.5450    0.7170    6.9470 C.3    88  LEU88       0.1693
     68  C         44.0180    0.7660    6.7010 C.2    88  LEU88       0.2592
     69  O         44.5090    1.7400    6.1590 O.2    88  LEU88      -0.2718
     70  CB        41.8250   -0.0040    5.7940 C.3    88  LEU88       0.0284
     71  CG        40.3120   -0.1080    5.9680 C.3    88  LEU88       0.0019
     72  CD1       39.6050    0.0210    4.6540 C.3    88  LEU88       0.0001
     73  CD2       39.9340   -1.3690    6.7110 C.3    88  LEU88       0.0001
     74  N         44.7370   -0.2890    7.0710 N.am   89  GLU89      -0.1966
     75  CA        46.1590   -0.3130    6.7820 C.3    89  GLU89       0.1733
     76  C         46.3420   -0.4380    5.2550 C.2    89  GLU89       0.2616
     77  O         45.4530   -0.9420    4.5570 O.2    89  GLU89      -0.2715
     78  CB        46.8580   -1.4260    7.5730 C.3    89  GLU89       0.0429
     79  CG        46.9040   -2.7950    6.9190 C.3    89  GLU89       0.1163
     80  CD        47.3030   -3.9070    7.8640 C.2    89  GLU89       0.3649
     81  OE1       46.6640   -4.9800    7.8080 O.co2  89  GLU89      -0.2457
     82  OE2       48.2160   -3.6940    8.6950 O.co2  89  GLU89      -0.2457
     83  N         47.4330    0.1050    4.7360 N.am   90  ARG90      -0.1964
     84  CA        47.6780    0.0410    3.3070 C.3    90  ARG90       0.1714
     85  C         49.1010   -0.4230    3.0060 C.2    90  ARG90       0.2458
     86  O         50.0530    0.3360    3.2440 O.2    90  ARG90      -0.2730
     87  CB        47.3410    1.3800    2.6170 C.3    90  ARG90       0.0347
     88  CG        47.7820    1.4750    1.1510 C.3    90  ARG90       0.0492
     89  CD        47.4050    2.7860    0.4760 C.3    90  ARG90       0.2205
     90  NE        48.0040    3.9730    1.0830 N.pl3  90  ARG90      -0.0865
     91  CZ        49.1840    4.4840    0.7420 C.cat  90  ARG90       0.5346
     92  NH1       49.9360    3.8830   -0.1770 N.pl3  90  ARG90       0.1354
     93  NH2       49.6250    5.5950    1.3240 N.pl3  90  ARG90       0.1354
     94  N         49.2560   -1.6610    2.4560 N.am   91  PRO91      -0.2727
     95  CA        50.5990   -2.1200    2.0510 C.3    91  PRO91       0.1402
     96  C         51.0510   -1.3160    0.8410 C.2    91  PRO91       0.2269
     97  O         50.2170   -0.8090    0.0810 O.2    91  PRO91      -0.2865
     98  CB        50.3910   -3.6000    1.6800 C.3    91  PRO91       0.0296
     99  CG        48.9900   -3.9480    2.1190 C.3    91  PRO91       0.0237
    100  CD        48.2260   -2.6580    2.0990 C.3    91  PRO91       0.0939
    101  N         51.5190   -2.4910   -3.5730 N.3    94  VAL94      -0.1245
    102  CA        50.4140   -3.4380   -3.4880 C.3    94  VAL94       0.1561
    103  C         49.7760   -3.6440   -4.8700 C.2    94  VAL94       0.2260
    104  O         49.8710   -2.7710   -5.7360 O.2    94  VAL94      -0.2867
    105  CB        49.3910   -2.9600   -2.4080 C.3    94  VAL94       0.0252
    106  CG1       48.5360   -1.7870   -2.8900 C.3    94  VAL94       0.0019
    107  CG2       48.5260   -4.0990   -1.9050 C.3    94  VAL94       0.0019
    108  N         44.6880   -8.7170   -1.5260 N.3   142  LEU142     -0.1245
    109  CA        45.7910   -7.8120   -1.8440 C.3   142  LEU142      0.1561
    110  C         47.1020   -8.5360   -1.6870 C.2   142  LEU142      0.2260
    111  O         47.2690   -9.3100   -0.7470 O.2   142  LEU142     -0.2867
    112  CB        45.8010   -6.5610   -0.9400 C.3   142  LEU142      0.0270
    113  CG        44.5930   -5.6280   -1.0400 C.3   142  LEU142      0.0019
    114  CD1       44.7800   -4.4170   -0.1210 C.3   142  LEU142      0.0001
    115  CD2       44.3740   -5.1480   -2.4740 C.3   142  LEU142      0.0001
    116  N         40.5590   -8.4730    2.0140 N.3   153  ILE153     -0.1231
    117  CA        39.8910   -7.1730    2.1270 C.3   153  ILE153      0.1692
    118  C         38.4080   -7.3610    1.8730 C.2   153  ILE153      0.2592
    119  O         37.9730   -8.4230    1.4260 O.2   153  ILE153     -0.2718
    120  CB        40.4800   -6.0830    1.1750 C.3   153  ILE153      0.0266
    121  CG1       40.3410   -6.4860   -0.3150 C.3   153  ILE153      0.0019
    122  CG2       41.9120   -5.7620    1.5440 C.3   153  ILE153      0.0020
    123  CD1       40.5620   -5.3850   -1.4090 C.3   153  ILE153      0.0001
    124  N         37.6530   -6.2950    2.1060 N.am  154  ASP154     -0.1960
    125  CA        36.2390   -6.1520    1.8650 C.3   154  ASP154      0.1840
    126  C         35.3660   -7.1640    2.6080 C.2   154  ASP154      0.2622
    127  O         34.8690   -8.1360    2.0480 O.2   154  ASP154     -0.2715
    128  CB        35.9210   -6.1230    0.3630 C.3   154  ASP154      0.1450
    129  CG        34.4910   -5.7040    0.0670 C.2   154  ASP154      0.3671
    130  OD1       33.8450   -5.1090    0.9640 O.co2 154  ASP154     -0.2456
    131  OD2       33.9990   -6.0190   -1.0350 O.co2 154  ASP154     -0.2456
    132  N         35.0870   -6.8350    3.8480 N.am  155  PHE155     -0.1974
    133  CA        34.2120   -7.5840    4.7230 C.3   155  PHE155      0.1639
    134  C         32.7750   -7.0220    4.6350 C.2   155  PHE155      0.2290
    135  O         31.9450   -7.3520    5.4770 O.2   155  PHE155     -0.2864
    136  CB        34.7720   -7.5350    6.1530 C.3   155  PHE155      0.0560
    137  CG        35.9430   -8.4660    6.3510 C.ar  155  PHE155     -0.0200
    138  CD1       37.2200   -8.1060    5.9320 C.ar  155  PHE155     -0.0042
    139  CD2       35.7680   -9.7140    6.9370 C.ar  155  PHE155     -0.0042
    140  CE1       38.2970   -8.9800    6.0890 C.ar  155  PHE155     -0.0003
    141  CE2       36.8520  -10.5840    7.1000 C.ar  155  PHE155     -0.0003
    142  CZ        38.1050  -10.2090    6.6720 C.ar  155  PHE155     -0.0000
@<TRIPOS>BOND
     1     4     3    2
     2     3     2    1
     3   104   103    2
     4     2     1    1
     5     2     5    1
     6   103   102    1
     7    17    19   ar
     8    17    15   ar
     9    19    18   ar
    10     8     6    1
    11     5     6    1
    12    15    14   ar
    13   101   102    1
    14   102   105    1
    15    18    16   ar
    16     6     7    1
    17     9    10    1
    18    23    22    2
    19   106   105    1
    20    14    16   ar
    21    14    13    1
    22   115   113    1
    23   105   107    1
    24    20    21    1
    25   109   110    1
    26   109   108    1
    27   109   112    1
    28    22    21    1
    29   110   111    2
    30    10    13    1
    31    10    11    1
    32   123   121    1
    33    21    24    1
    34    24    26    1
    35    24    25    1
    36    11    12    2
    37   113   112    1
    38   113   114    1
    39   131   129   ar
    40   121   120    1
    41    92    91    1
    42   129   128    1
    43   129   130   ar
    44    97    96    2
    45   128   125    1
    46    89    90    1
    47    89    88    1
    48    91    90    2
    49    91    93    1
    50    96    95    1
    51    88    87    1
    52   120   122    1
    53   120   117    1
    54   119   118    2
    55    98    95    1
    56    98    99    1
    57   125   124    1
    58   125   126    1
    59   118   124   am
    60   118   117    1
    61    40    39    1
    62   116   117    1
    63    39    38    1
    64   127   126    2
    65    95    94    1
    66   100    99    1
    67   100    94    1
    68    31    28    1
    69    37    38    1
    70    37    36    1
    71    94    85   am
    72   126   132   am
    73    87    84    1
    74    33    36    1
    75    33    34    1
    76    33    32    1
    77    28    29    1
    78    28    27    1
    79    85    86    2
    80    85    84    1
    81    84    83    1
    82    34    35    2
    83    29    30    2
    84    63    65    1
    85    63    62    1
    86   132   133    1
    87    49    47   ar
    88    77    76    2
    89    48    47   ar
    90   134   133    1
    91   134   135    2
    92    72    71    1
    93   133   136    1
    94    83    76   am
    95    62    64    1
    96    62    59    1
    97    47    46    1
    98    76    75    1
    99    70    71    1
   100    70    67    1
   101   138   140   ar
   102   138   137   ar
   103    71    73    1
   104   140   142   ar
   105    58    59    1
   106   136   137    1
   107    69    68    2
   108    59    60    1
   109    46    45    1
   110   137   139   ar
   111   142   141   ar
   112    68    67    1
   113    68    74   am
   114    75    74    1
   115    75    78    1
   116    79    78    1
   117    79    80    1
   118   139   141   ar
   119    67    66    1
   120    45    42    1
   121    60    61    2
   122    81    80   ar
   123    80    82   ar
   124    57    55    1
   125    56    55    1
   126    42    41    1
   127    42    43    1
   128    55    54    1
   129    43    44    2
   130    54    51    1
   131    51    50    1
   132    51    52    1
   133    52    53    2
