@<TRIPOS>MOLECULE
tmp/5kggA00.pdb
 143 132 0 0 0
SMALL
GASTEIGER

@<TRIPOS>ATOM
      1  N        -16.7860  -38.7560   -4.7720 N.3    12  LEU12      -0.1231
      2  CA       -18.2020  -38.6330   -5.1330 C.3    12  LEU12       0.1693
      3  C        -18.4570  -37.3240   -5.8750 C.2    12  LEU12       0.2592
      4  O        -19.3160  -37.2580   -6.7440 O.2    12  LEU12      -0.2718
      5  CB       -19.0900  -38.6900   -3.8660 C.3    12  LEU12       0.0284
      6  CG       -19.1080  -40.0090   -3.0900 C.3    12  LEU12       0.0019
      7  CD1      -20.0100  -39.8870   -1.8730 C.3    12  LEU12       0.0001
      8  CD2      -19.5860  -41.1670   -3.9700 C.3    12  LEU12       0.0001
      9  N        -17.7120  -36.2920   -5.5200 N.am   13  GLY13      -0.1957
     10  CA       -17.8550  -34.9860   -6.1480 C.3    13  GLY13       0.1869
     11  C        -16.9340  -33.9420   -5.5580 C.2    13  GLY13       0.2309
     12  O        -16.3470  -34.1400   -4.4910 O.2    13  GLY13      -0.2863
     13  N        -17.9600  -26.5040   -2.4240 N.3    17  PHE17      -0.1241
     14  CA       -18.0320  -27.1570   -1.1150 C.3    17  PHE17       0.1605
     15  C        -16.7490  -27.9120   -0.6730 C.2    17  PHE17       0.2264
     16  O        -16.6310  -28.2770    0.5020 O.2    17  PHE17      -0.2867
     17  CB       -19.2200  -28.1180   -1.1020 C.3    17  PHE17       0.0534
     18  CG       -19.2140  -29.1420   -2.2210 C.ar   17  PHE17      -0.0203
     19  CD1      -19.9620  -28.9370   -3.3760 C.ar   17  PHE17      -0.0042
     20  CD2      -18.5010  -30.3270   -2.1000 C.ar   17  PHE17      -0.0042
     21  CE1      -19.9660  -29.8800   -4.4090 C.ar   17  PHE17      -0.0003
     22  CE2      -18.5060  -31.2710   -3.1400 C.ar   17  PHE17      -0.0003
     23  CZ       -19.2490  -31.0410   -4.2790 C.ar   17  PHE17      -0.0000
     24  N        -15.4760  -34.4120   -1.8190 N.3    20  VAL20      -0.1245
     25  CA       -16.1890  -35.3890   -1.0150 C.3    20  VAL20       0.1561
     26  C        -15.9200  -36.7720   -1.5500 C.2    20  VAL20       0.2260
     27  O        -16.1290  -37.0130   -2.7470 O.2    20  VAL20      -0.2867
     28  CB       -17.7050  -35.0950   -0.9680 C.3    20  VAL20       0.0252
     29  CG1      -18.4290  -36.1440   -0.1500 C.3    20  VAL20       0.0019
     30  CG2      -17.9860  -33.7100   -0.3860 C.3    20  VAL20       0.0019
     31  N        -19.5000  -40.1920    4.2060 N.3    33  ALA33      -0.1245
     32  CA       -18.9530  -39.3210    3.1650 C.3    33  ALA33       0.1562
     33  C        -17.8780  -38.5150    3.8750 C.2    33  ALA33       0.2260
     34  O        -18.0710  -38.0580    5.0010 O.2    33  ALA33      -0.2867
     35  CB       -20.0220  -38.3920    2.5830 C.3    33  ALA33       0.0290
     36  N        -15.6110  -35.3280    3.6230 N.3    35  LYS35      -0.1245
     37  CA       -15.4860  -34.0350    2.9780 C.3    35  LYS35       0.1561
     38  C        -14.2500  -33.2940    3.4350 C.2    35  LYS35       0.2260
     39  O        -14.0380  -33.1080    4.6350 O.2    35  LYS35      -0.2867
     40  CB       -16.7620  -33.2230    3.2310 C.3    35  LYS35       0.0271
     41  CG       -16.7650  -31.8400    2.6140 C.3    35  LYS35       0.0035
     42  CD       -18.0310  -31.1450    3.0750 C.3    35  LYS35       0.0206
     43  CE       -18.7440  -30.4290    1.9990 C.3    35  LYS35       0.1093
     44  NZ       -19.7610  -29.5110    2.5500 N.3    35  LYS35      -0.1314
     45  N        -28.3160  -33.5060    6.6440 N.3    72  ILE72      -0.1245
     46  CA       -27.1810  -34.4320    6.7740 C.3    72  ILE72       0.1561
     47  C        -26.6160  -34.4030    8.2360 C.2    72  ILE72       0.2260
     48  O        -26.5780  -33.3440    8.8870 O.2    72  ILE72      -0.2867
     49  CB       -26.1200  -34.0920    5.7090 C.3    72  ILE72       0.0252
     50  CG1      -25.1600  -35.2850    5.4070 C.3    72  ILE72       0.0019
     51  CG2      -25.3510  -32.8050    6.0740 C.3    72  ILE72       0.0019
     52  CD1      -25.7950  -36.3130    4.3920 C.3    72  ILE72       0.0001
     53  N        -19.4240  -37.3160    7.3400 N.3    88  LEU88      -0.1231
     54  CA       -20.8680  -37.1310    7.2420 C.3    88  LEU88       0.1693
     55  C        -21.5370  -38.4480    6.9950 C.2    88  LEU88       0.2592
     56  O        -20.9320  -39.3540    6.4230 O.2    88  LEU88      -0.2718
     57  CB       -21.1770  -36.1630    6.0760 C.3    88  LEU88       0.0284
     58  CG       -20.5360  -34.7890    6.2530 C.3    88  LEU88       0.0019
     59  CD1      -20.0610  -34.2450    4.9550 C.3    88  LEU88       0.0001
     60  CD2      -21.4390  -33.8480    7.0470 C.3    88  LEU88       0.0001
     61  N        -22.8090  -38.5560    7.3780 N.am   89  GLU89      -0.1966
     62  CA       -23.5360  -39.7830    7.0940 C.3    89  GLU89       0.1733
     63  C        -23.6790  -39.9290    5.5680 C.2    89  GLU89       0.2616
     64  O        -23.5920  -38.9410    4.8280 O.2    89  GLU89      -0.2715
     65  CB       -24.9050  -39.7760    7.8020 C.3    89  GLU89       0.0429
     66  CG       -25.9530  -38.9800    7.0580 C.3    89  GLU89       0.1163
     67  CD       -27.2600  -38.7950    7.7860 C.2    89  GLU89       0.3649
     68  OE1      -27.6750  -37.6300    7.9030 O.co2  89  GLU89      -0.2457
     69  OE2      -27.9650  -39.7960    8.0350 O.co2  89  GLU89      -0.2457
     70  N        -23.8060  -41.1510    5.0920 N.am   90  ARG90      -0.1964
     71  CA       -23.9710  -41.3560    3.6600 C.3    90  ARG90       0.1714
     72  C        -25.0680  -42.3620    3.4020 C.2    90  ARG90       0.2458
     73  O        -24.8890  -43.5570    3.6580 O.2    90  ARG90      -0.2730
     74  CB       -22.6430  -41.7700    2.9760 C.3    90  ARG90       0.0347
     75  CG       -22.7940  -42.2330    1.5200 C.3    90  ARG90       0.0492
     76  CD       -21.4740  -42.5530    0.8370 C.3    90  ARG90       0.2205
     77  NE       -20.7210  -43.6550    1.4600 N.pl3  90  ARG90      -0.0865
     78  CZ       -20.8620  -44.9440    1.1570 C.cat  90  ARG90       0.5346
     79  NH1      -21.7660  -45.3300    0.2640 N.pl3  90  ARG90       0.1354
     80  NH2      -20.0900  -45.8560    1.7360 N.pl3  90  ARG90       0.1354
     81  N        -26.2130  -41.8830    2.8700 N.am   91  PRO91      -0.2727
     82  CA       -27.2960  -42.8110    2.4950 C.3    91  PRO91       0.1402
     83  C        -26.8350  -43.6470    1.3130 C.2    91  PRO91       0.2269
     84  O        -25.9840  -43.1950    0.5400 O.2    91  PRO91      -0.2865
     85  CB       -28.4480  -41.8660    2.0840 C.3    91  PRO91       0.0296
     86  CG       -28.0370  -40.4790    2.5130 C.3    91  PRO91       0.0237
     87  CD       -26.5430  -40.4930    2.4810 C.3    91  PRO91       0.0939
     88  N        -27.9010  -43.4710   -3.0980 N.3    94  VAL94      -0.1245
     89  CA       -28.1650  -42.0310   -2.9970 C.3    94  VAL94       0.1561
     90  C        -27.9820  -41.3760   -4.3660 C.2    94  VAL94       0.2260
     91  O        -27.2190  -41.8690   -5.1930 O.2    94  VAL94      -0.2867
     92  CB       -27.2410  -41.3810   -1.9130 C.3    94  VAL94       0.0252
     93  CG1      -25.7750  -41.2960   -2.3780 C.3    94  VAL94       0.0019
     94  CG2      -27.7610  -40.0030   -1.4670 C.3    94  VAL94       0.0019
     95  N        -28.1050  -37.0070   -5.8320 N.3    96  ASP96      -0.1239
     96  CA       -28.4980  -35.6380   -5.5240 C.3    96  ASP96       0.1674
     97  C        -29.6340  -35.2230   -6.4590 C.2    96  ASP96       0.2266
     98  O        -29.8260  -35.8420   -7.5080 O.2    96  ASP96      -0.2867
     99  CB       -27.3130  -34.6560   -5.4680 C.3    96  ASP96       0.1410
    100  CG       -26.6190  -34.2870   -6.7600 C.2    96  ASP96       0.3668
    101  OD1      -27.3170  -34.0980   -7.7840 O.co2  96  ASP96      -0.2456
    102  OD2      -25.4030  -34.0420   -6.7140 O.co2  96  ASP96      -0.2456
    103  N        -28.7550  -34.2800  -10.2030 N.3    99  ASP99      -0.1239
    104  CA       -28.5300  -35.4490  -11.0690 C.3    99  ASP99       0.1674
    105  C        -29.8370  -36.1430  -11.3700 C.2    99  ASP99       0.2266
    106  O        -30.0710  -36.5900  -12.4960 O.2    99  ASP99      -0.2867
    107  CB       -27.5550  -36.4260  -10.4040 C.3    99  ASP99       0.1410
    108  CG       -26.0950  -35.9780  -10.4260 C.2    99  ASP99       0.3668
    109  OD1      -25.7780  -34.9890  -11.1400 O.co2  99  ASP99      -0.2456
    110  OD2      -25.2840  -36.5830   -9.7040 O.co2  99  ASP99      -0.2456
    111  N        -28.5870  -29.1700   -6.2590 N.3   139  GLU139     -0.1245
    112  CA       -27.2520  -29.7660   -6.0130 C.3   139  GLU139      0.1567
    113  C        -26.9880  -30.0240   -4.5330 C.2   139  GLU139      0.2260
    114  O        -26.1590  -30.8880   -4.1980 O.2   139  GLU139     -0.2867
    115  CB       -26.1370  -28.8360   -6.5240 C.3   139  GLU139      0.0388
    116  CG       -26.1030  -28.5930   -8.0270 C.3   139  GLU139      0.1160
    117  CD       -25.1190  -27.4950   -8.3910 C.2   139  GLU139      0.3649
    118  OE1      -25.5640  -26.3980   -8.8010 O.co2 139  GLU139     -0.2457
    119  OE2      -23.9160  -27.6760   -8.1050 O.co2 139  GLU139     -0.2457
    120  N        -29.8410  -34.2930   -1.1520 N.3   142  LEU142     -0.1245
    121  CA       -29.6100  -35.7030   -1.4430 C.3   142  LEU142      0.1561
    122  C        -30.9040  -36.4660   -1.3400 C.2   142  LEU142      0.2260
    123  O        -31.7050  -36.1900   -0.4560 O.2   142  LEU142     -0.2867
    124  CB       -28.6070  -36.3440   -0.4630 C.3   142  LEU142      0.0270
    125  CG       -27.1750  -35.8250   -0.4920 C.3   142  LEU142      0.0019
    126  CD1      -26.3290  -36.6220    0.5070 C.3   142  LEU142      0.0001
    127  CD2      -26.5800  -35.9090   -1.9090 C.3   142  LEU142      0.0001
    128  N        -27.7330  -30.7510    2.3300 N.3   153  ILE153     -0.1231
    129  CA       -26.2810  -30.8520    2.5230 C.3   153  ILE153      0.1692
    130  C        -25.6530  -29.4970    2.2260 C.2   153  ILE153      0.2592
    131  O        -26.3390  -28.5780    1.7640 O.2   153  ILE153     -0.2718
    132  CB       -25.6140  -31.9380    1.6030 C.3   153  ILE153      0.0266
    133  CG1      -25.8820  -31.6720    0.0920 C.3   153  ILE153      0.0019
    134  CG2      -26.0510  -33.3260    2.0480 C.3   153  ILE153      0.0020
    135  CD1      -25.0190  -32.4750   -0.9520 C.3   153  ILE153      0.0001
    136  N        -24.3120  -29.4330    2.4060 N.am  154  ASP154     -0.1974
    137  CA       -23.4870  -28.2630    2.0940 C.3   154  ASP154      0.1709
    138  C        -23.9320  -26.9610    2.7910 C.2   154  ASP154      0.2293
    139  O        -24.4190  -26.0160    2.1770 O.2   154  ASP154     -0.2864
    140  CB       -23.3730  -28.1060    0.5570 C.3   154  ASP154      0.1436
    141  CG       -22.6620  -29.3030   -0.1370 C.2   154  ASP154      0.3671
    142  OD1      -21.8370  -29.9750    0.5240 O.co2 154  ASP154     -0.2456
    143  OD2      -22.8870  -29.5130   -1.3570 O.co2 154  ASP154     -0.2456
@<TRIPOS>BOND
     1   106   105    2
     2   105   104    1
     3   109   108   ar
     4   104   107    1
     5   104   103    1
     6   108   107    1
     7   108   110   ar
     8   118   117   ar
     9   117   119   ar
    10   117   116    1
    11   116   115    1
    12   101   100   ar
    13    98    97    2
    14   100   102   ar
    15   100    99    1
    16     4     3    2
    17   115   112    1
    18    97    96    1
    19   111   112    1
    20    10    11    1
    21    10     9    1
    22   112   113    1
    23     3     9   am
    24     3     2    1
    25    95    96    1
    26    11    12    2
    27    96    99    1
    28    91    90    2
    29     2     1    1
    30     2     5    1
    31   113   114    2
    32    21    23   ar
    33    21    19   ar
    34    90    89    1
    35    23    22   ar
    36     8     6    1
    37     5     6    1
    38    19    18   ar
    39    22    20   ar
    40    88    89    1
    41     6     7    1
    42    89    92    1
    43    27    26    2
    44    13    14    1
    45    93    92    1
    46    18    20   ar
    47    18    17    1
    48    92    94    1
    49   127   125    1
    50    24    25    1
    51    26    25    1
    52   121   122    1
    53   121   120    1
    54   121   124    1
    55   143   141   ar
    56   122   123    2
    57    14    17    1
    58    14    15    1
    59    25    28    1
    60    28    30    1
    61    28    29    1
    62   135   133    1
    63    15    16    2
    64   125   124    1
    65   125   126    1
    66   141   142   ar
    67   141   140    1
    68   133   132    1
    69    79    78    1
    70    84    83    2
    71   140   137    1
    72    76    77    1
    73    76    75    1
    74    78    77    2
    75    78    80    1
    76    83    82    1
    77    75    74    1
    78   132   134    1
    79   132   129    1
    80   131   130    2
    81    43    44    1
    82    43    42    1
    83    85    82    1
    84    85    86    1
    85   137   136    1
    86   137   138    1
    87   139   138    2
    88   130   136   am
    89   130   129    1
    90   128   129    1
    91    87    86    1
    92    87    81    1
    93    82    81    1
    94    35    32    1
    95    41    42    1
    96    41    40    1
    97    81    72   am
    98    74    71    1
    99    37    40    1
   100    37    38    1
   101    37    36    1
   102    32    33    1
   103    32    31    1
   104    72    73    2
   105    72    71    1
   106    38    39    2
   107    71    70    1
   108    33    34    2
   109    52    50    1
   110    64    63    2
   111    59    58    1
   112    70    63   am
   113    50    49    1
   114    63    62    1
   115    49    51    1
   116    49    46    1
   117    57    58    1
   118    57    54    1
   119    58    60    1
   120    56    55    2
   121    45    46    1
   122    46    47    1
   123    55    54    1
   124    55    61   am
   125    66    67    1
   126    66    65    1
   127    62    61    1
   128    62    65    1
   129    54    53    1
   130    67    68   ar
   131    67    69   ar
   132    47    48    2
