@<TRIPOS>MOLECULE
tmp/5kghA01.pdb
 200 202 0 0 0
SMALL
GASTEIGER

@<TRIPOS>ATOM
      1  N        -24.5010  -20.4020  -10.6280 N.3   189  PHE189     -0.1241
      2  CA       -23.1400  -19.8360  -10.6790 C.3   189  PHE189      0.1605
      3  C        -22.2890  -20.1840   -9.4590 C.2   189  PHE189      0.2264
      4  O        -21.8680  -19.3070   -8.7080 O.2   189  PHE189     -0.2867
      5  CB       -23.1960  -18.3080  -10.8400 C.3   189  PHE189      0.0534
      6  CG       -23.9370  -17.8540  -12.0600 C.ar  189  PHE189     -0.0203
      7  CD1      -23.3390  -17.9180  -13.3140 C.ar  189  PHE189     -0.0042
      8  CD2      -25.2330  -17.3560  -11.9560 C.ar  189  PHE189     -0.0042
      9  CE1      -24.0280  -17.5130  -14.4390 C.ar  189  PHE189     -0.0003
     10  CE2      -25.9160  -16.9420  -13.0780 C.ar  189  PHE189     -0.0003
     11  CZ       -25.3120  -17.0160  -14.3220 C.ar  189  PHE189     -0.0000
     12  N        -18.6080  -16.4640   -8.5890 N.3   193  TRP193     -0.1241
     13  CA       -19.6860  -15.5740   -8.2050 C.3   193  TRP193      0.1605
     14  C        -20.3760  -15.9990   -6.9150 C.2   193  TRP193      0.2264
     15  O        -20.7340  -15.1490   -6.0830 O.2   193  TRP193     -0.2867
     16  CB       -20.6450  -15.3760   -9.3730 C.3   193  TRP193      0.0550
     17  CG       -20.0010  -14.6460  -10.5070 C.ar  193  TRP193      0.0003
     18  CD1      -18.7860  -14.0300  -10.5000 C.ar  193  TRP193      0.0946
     19  CD2      -20.5580  -14.4000  -11.8020 C.ar  193  TRP193      0.0152
     20  NE1      -18.5350  -13.4490  -11.7130 N.ar  193  TRP193     -0.2442
     21  CE2      -19.6110  -13.6430  -12.5280 C.ar  193  TRP193      0.0810
     22  CE3      -21.7630  -14.7420  -12.4220 C.ar  193  TRP193      0.0012
     23  CZ2      -19.8130  -13.2540  -13.8500 C.ar  193  TRP193      0.0191
     24  CZ3      -21.9710  -14.3500  -13.7260 C.ar  193  TRP193      0.0001
     25  CH2      -20.9960  -13.6100  -14.4360 C.ar  193  TRP193      0.0015
     26  N        -21.7570   -4.8760  -12.2690 N.3   251  GLY251     -0.1210
     27  CA       -21.1600   -6.1490  -12.6620 C.3   251  GLY251      0.1940
     28  C        -20.7530   -6.9540  -11.4400 C.2   251  GLY251      0.2454
     29  O        -20.3020   -6.3500  -10.4750 O.2   251  GLY251     -0.2732
     30  N        -20.8910   -8.2870  -11.4380 N.am  252  PRO252     -0.2717
     31  CA       -21.4660   -9.0410  -12.5380 C.3   252  PRO252      0.1535
     32  C        -22.9700   -8.9930  -12.6800 C.2   252  PRO252      0.2598
     33  O        -23.6780   -8.4780  -11.8310 O.2   252  PRO252     -0.2715
     34  CB       -21.0230  -10.4770  -12.2680 C.3   252  PRO252      0.0310
     35  CG       -20.8220  -10.5420  -10.7860 C.3   252  PRO252      0.0237
     36  CD       -20.6160   -9.1520  -10.2740 C.3   252  PRO252      0.0939
     37  N        -23.4340   -9.5500  -13.7870 N.am  253  ILE253     -0.1964
     38  CA       -24.8470   -9.7510  -14.0750 C.3   253  ILE253      0.1727
     39  C        -24.9670  -11.1800  -14.6410 C.2   253  ILE253      0.2617
     40  O        -24.1810  -11.5620  -15.5230 O.2   253  ILE253     -0.2715
     41  CB       -25.3460   -8.6960  -15.0930 C.3   253  ILE253      0.0290
     42  CG1      -26.8260   -8.8740  -15.4030 C.3   253  ILE253      0.0022
     43  CG2      -24.5730   -8.7570  -16.4100 C.3   253  ILE253      0.0023
     44  CD1      -27.3870   -7.7490  -16.2380 C.3   253  ILE253      0.0001
     45  N        -25.9590  -11.9420  -14.1640 N.am  254  GLY254     -0.1940
     46  CA       -26.1860  -13.3190  -14.6230 C.3   254  GLY254      0.2014
     47  C        -27.6390  -13.7810  -14.6050 C.2   254  GLY254      0.2638
     48  O        -28.4070  -13.3720  -13.7410 O.2   254  GLY254     -0.2714
     49  N        -28.0190  -14.5820  -15.6000 N.am  255  ILE255     -0.1977
     50  CA       -29.3630  -15.1270  -15.7670 C.3   255  ILE255      0.1596
     51  C        -29.1450  -16.6360  -15.7360 C.2   255  ILE255      0.2287
     52  O        -28.1770  -17.1430  -16.3290 O.2   255  ILE255     -0.2864
     53  CB       -29.9980  -14.7220  -17.1270 C.3   255  ILE255      0.0276
     54  CG1      -30.5830  -13.3070  -17.1190 C.3   255  ILE255      0.0022
     55  CG2      -31.1490  -15.6350  -17.5300 C.3   255  ILE255      0.0022
     56  CD1      -31.1330  -12.8210  -15.8020 C.3   255  ILE255      0.0001
     57  N        -33.2300  -19.8560  -18.6350 N.3   259  TYR259     -0.1227
     58  CA       -33.9440  -18.6340  -18.9930 C.3   259  TYR259      0.1736
     59  C        -33.2010  -17.6860  -19.9410 C.2   259  TYR259      0.2595
     60  O        -33.6920  -16.5860  -20.1940 O.2   259  TYR259     -0.2718
     61  CB       -34.3360  -17.8790  -17.7180 C.3   259  TYR259      0.0548
     62  CG       -35.3620  -18.6140  -16.8800 C.ar  259  TYR259     -0.0200
     63  CD1      -36.7200  -18.4500  -17.1130 C.ar  259  TYR259     -0.0009
     64  CD2      -34.9700  -19.4650  -15.8500 C.ar  259  TYR259     -0.0009
     65  CE1      -37.6540  -19.1220  -16.3480 C.ar  259  TYR259      0.0417
     66  CE2      -35.9000  -20.1400  -15.0780 C.ar  259  TYR259      0.0417
     67  CZ       -37.2430  -19.9670  -15.3370 C.ar  259  TYR259      0.1957
     68  OH       -38.1840  -20.6270  -14.5810 O.3   259  TYR259     -0.2866
     69  N        -32.0480  -18.0860  -20.4780 N.am  260  ARG260     -0.1966
     70  CA       -31.2650  -17.2010  -21.3430 C.3   260  ARG260      0.1729
     71  C        -31.8780  -17.0850  -22.7350 C.2   260  ARG260      0.2616
     72  O        -32.7560  -17.8740  -23.0890 O.2   260  ARG260     -0.2715
     73  CB       -29.7930  -17.6460  -21.4070 C.3   260  ARG260      0.0348
     74  CG       -29.0730  -17.5640  -20.0680 C.3   260  ARG260      0.0492
     75  CD       -27.6060  -17.9830  -20.0910 C.3   260  ARG260      0.2205
     76  NE       -27.0460  -18.0920  -18.7350 N.pl3 260  ARG260     -0.0865
     77  CZ       -25.9470  -18.7730  -18.4110 C.cat 260  ARG260      0.5346
     78  NH1      -25.2350  -19.4030  -19.3340 N.pl3 260  ARG260      0.1354
     79  NH2      -25.5330  -18.8280  -17.1520 N.pl3 260  ARG260      0.1354
     80  N        -31.4340  -16.0840  -23.4980 N.am  261  LYS261     -0.1963
     81  CA       -31.8390  -15.8620  -24.8990 C.3   261  LYS261      0.1728
     82  C        -33.3130  -15.5260  -25.1520 C.2   261  LYS261      0.2616
     83  O        -33.7970  -15.6640  -26.2710 O.2   261  LYS261     -0.2715
     84  CB       -31.4200  -17.0360  -25.7970 C.3   261  LYS261      0.0311
     85  CG       -29.9410  -17.3960  -25.8050 C.3   261  LYS261      0.0038
     86  CD       -29.0250  -16.2270  -26.1230 C.3   261  LYS261      0.0206
     87  CE       -29.0900  -15.8140  -27.5860 C.3   261  LYS261      0.1093
     88  NZ       -28.2400  -16.6640  -28.4710 N.3   261  LYS261     -0.1314
     89  N        -34.0150  -15.0500  -24.1290 N.am  262  GLN262     -0.1963
     90  CA       -35.4150  -14.6470  -24.2500 C.3   262  GLN262      0.1733
     91  C        -35.6490  -13.1900  -23.8480 C.2   262  GLN262      0.2617
     92  O        -36.7920  -12.8250  -23.6110 O.2   262  GLN262     -0.2715
     93  CB       -36.3090  -15.4540  -23.3040 C.3   262  GLN262      0.0408
     94  CG       -36.1260  -16.9550  -23.2080 C.3   262  GLN262      0.0908
     95  CD       -36.8220  -17.4930  -21.9650 C.2   262  GLN262      0.2608
     96  OE1      -37.8490  -16.9570  -21.5370 O.2   262  GLN262     -0.2717
     97  NE2      -36.2550  -18.5290  -21.3590 N.am  262  GLN262     -0.0878
     98  N        -34.6080  -12.3700  -23.7160 N.am  263  GLY263     -0.1940
     99  CA       -34.7960  -10.9540  -23.4030 C.3   263  GLY263      0.2014
    100  C        -34.7380  -10.6270  -21.9200 C.2   263  GLY263      0.2639
    101  O        -34.7550   -9.4590  -21.5340 O.2   263  GLY263     -0.2714
    102  N        -34.6530  -11.6500  -21.0840 N.am  264  LEU264     -0.1963
    103  CA       -34.6140  -11.4650  -19.6410 C.3   264  LEU264      0.1728
    104  C        -33.3730  -10.7230  -19.1020 C.2   264  LEU264      0.2617
    105  O        -33.5010   -9.8320  -18.2540 O.2   264  LEU264     -0.2715
    106  CB       -34.8080  -12.8220  -18.9590 C.3   264  LEU264      0.0311
    107  CG       -36.1870  -13.4720  -19.1840 C.3   264  LEU264      0.0022
    108  CD1      -36.2600  -14.8730  -18.6030 C.3   264  LEU264      0.0001
    109  CD2      -37.2990  -12.6310  -18.5700 C.3   264  LEU264      0.0001
    110  N        -32.1820  -11.0760  -19.5770 N.am  265  GLY265     -0.1940
    111  CA       -30.9790  -10.2570  -19.3330 C.3   265  GLY265      0.2014
    112  C        -31.1240   -8.7740  -19.6740 C.2   265  GLY265      0.2638
    113  O        -30.7220   -7.8690  -18.9430 O.2   265  GLY265     -0.2714
    114  N        -31.6820   -8.5110  -20.8410 N.am  266  ARG266     -0.1977
    115  CA       -31.8900   -7.1480  -21.2740 C.3   266  ARG266      0.1597
    116  C        -32.8270   -6.4430  -20.2750 C.2   266  ARG266      0.2287
    117  O        -32.5370   -5.3390  -19.8000 O.2   266  ARG266     -0.2864
    118  CB       -32.3690   -7.1790  -22.7260 C.3   266  ARG266      0.0334
    119  CG       -33.0240   -5.9130  -23.2090 C.3   266  ARG266      0.0492
    120  CD       -32.6010   -5.5980  -24.6270 C.3   266  ARG266      0.2205
    121  NE       -32.8780   -6.6520  -25.6080 N.pl3 266  ARG266     -0.0865
    122  CZ       -32.1270   -6.9270  -26.6770 C.cat 266  ARG266      0.5346
    123  NH1      -31.0020   -6.2580  -26.9270 N.pl3 266  ARG266      0.1354
    124  NH2      -32.4870   -7.9040  -27.5060 N.pl3 266  ARG266      0.1354
    125  N        -18.7670   -0.9090  -16.3020 N.3   286  ILE286     -0.1231
    126  CA       -19.1360   -2.3120  -16.3040 C.3   286  ILE286      0.1692
    127  C        -17.8440   -3.0750  -16.5570 C.2   286  ILE286      0.2592
    128  O        -17.2090   -2.8820  -17.5880 O.2   286  ILE286     -0.2718
    129  CB       -20.2000   -2.6130  -17.3770 C.3   286  ILE286      0.0266
    130  CG1      -21.4790   -1.8490  -17.0580 C.3   286  ILE286      0.0019
    131  CG2      -20.4420   -4.1160  -17.4770 C.3   286  ILE286      0.0020
    132  CD1      -22.5210   -1.7980  -18.1510 C.3   286  ILE286      0.0001
    133  N        -17.4490   -3.9120  -15.5990 N.am  287  ASP287     -0.1960
    134  CA       -16.0840   -4.4500  -15.5410 C.3   287  ASP287      0.1840
    135  C        -15.9440   -5.8170  -16.2360 C.2   287  ASP287      0.2622
    136  O        -16.8750   -6.6260  -16.2320 O.2   287  ASP287     -0.2715
    137  CB       -15.6350   -4.5820  -14.0780 C.3   287  ASP287      0.1450
    138  CG       -16.2890   -5.7510  -13.3780 C.2   287  ASP287      0.3671
    139  OD1      -17.5320   -5.7150  -13.3100 O.co2 287  ASP287     -0.2456
    140  OD2      -15.5670   -6.6990  -12.9710 O.co2 287  ASP287     -0.2456
    141  N        -14.7840   -6.0620  -16.8410 N.am  288  TRP288     -0.1960
    142  CA       -14.3170   -7.3970  -17.2100 C.3   288  TRP288      0.1771
    143  C        -15.2990   -8.0970  -18.1420 C.2   288  TRP288      0.2620
    144  O        -15.8720   -9.1340  -17.8010 O.2   288  TRP288     -0.2715
    145  CB       -14.0560   -8.2320  -15.9340 C.3   288  TRP288      0.0590
    146  CG       -13.2250   -9.4620  -16.1650 C.ar  288  TRP288      0.0006
    147  CD1      -12.9730  -10.0790  -17.3760 C.ar  288  TRP288      0.0946
    148  CD2      -12.5090  -10.2180  -15.1840 C.ar  288  TRP288      0.0152
    149  NE1      -12.1670  -11.1540  -17.1860 N.ar  288  TRP288     -0.2442
    150  CE2      -11.8850  -11.2820  -15.8500 C.ar  288  TRP288      0.0810
    151  CE3      -12.3460  -10.1010  -13.8020 C.ar  288  TRP288      0.0012
    152  CZ2      -11.0970  -12.2180  -15.1880 C.ar  288  TRP288      0.0191
    153  CZ3      -11.5660  -11.0540  -13.1440 C.ar  288  TRP288      0.0001
    154  CH2      -10.9560  -12.0830  -13.8340 C.ar  288  TRP288      0.0015
    155  N        -15.5010   -7.5160  -19.3240 N.am  289  THR289     -0.1937
    156  CA       -16.3910   -8.0630  -20.3250 C.3   289  THR289      0.2028
    157  C        -15.5750   -8.6470  -21.4620 C.2   289  THR289      0.2642
    158  O        -14.4670   -8.1660  -21.7620 O.2   289  THR289     -0.2714
    159  CB       -17.3050   -6.9770  -20.9100 C.3   289  THR289      0.1808
    160  OG1      -16.5510   -5.9730  -21.6330 O.3   289  THR289     -0.2208
    161  CG2      -18.0370   -6.3180  -19.7750 C.3   289  THR289      0.0379
    162  N        -16.1500   -9.6660  -22.0880 N.am  290  GLU290     -0.1976
    163  CA       -15.6030  -10.2380  -23.3190 C.3   290  GLU290      0.1602
    164  C        -16.1320   -9.4820  -24.5060 C.2   290  GLU290      0.2287
    165  O        -17.1560   -8.8110  -24.4060 O.2   290  GLU290     -0.2864
    166  CB       -15.9660  -11.7180  -23.4400 C.3   290  GLU290      0.0415
    167  CG       -15.1220  -12.5620  -22.4950 C.3   290  GLU290      0.1163
    168  CD       -15.3490  -14.0570  -22.6310 C.2   290  GLU290      0.3649
    169  OE1      -16.5150  -14.4600  -22.8510 O.co2 290  GLU290     -0.2457
    170  OE2      -14.3630  -14.8220  -22.5000 O.co2 290  GLU290     -0.2457
    171  N        -19.8640   -9.8970  -25.7600 N.3   293  ILE293     -0.1245
    172  CA       -20.9250   -9.3080  -24.9440 C.3   293  ILE293      0.1561
    173  C        -20.9170   -7.7850  -24.9010 C.2   293  ILE293      0.2260
    174  O        -21.8100   -7.2100  -24.2880 O.2   293  ILE293     -0.2867
    175  CB       -20.9120   -9.8580  -23.4860 C.3   293  ILE293      0.0252
    176  CG1      -22.3050   -9.7810  -22.8570 C.3   293  ILE293      0.0019
    177  CG2      -19.8740   -9.2140  -22.5790 C.3   293  ILE293      0.0019
    178  CD1      -23.2540  -10.8190  -23.4430 C.3   293  ILE293      0.0001
    179  N        -24.4260   -5.9770  -26.1170 N.3   296  PHE296     -0.1227
    180  CA       -25.5300   -6.1490  -25.1350 C.3   296  PHE296      0.1736
    181  C        -25.5540   -4.9420  -24.2130 C.2   296  PHE296      0.2595
    182  O        -26.6070   -4.3150  -24.0260 O.2   296  PHE296     -0.2718
    183  CB       -25.3070   -7.4600  -24.3680 C.3   296  PHE296      0.0547
    184  CG       -26.1860   -7.6640  -23.1610 C.ar  296  PHE296     -0.0202
    185  CD1      -27.5320   -7.9870  -23.3000 C.ar  296  PHE296     -0.0042
    186  CD2      -25.6570   -7.5890  -21.8820 C.ar  296  PHE296     -0.0042
    187  CE1      -28.3170   -8.2080  -22.1760 C.ar  296  PHE296     -0.0003
    188  CE2      -26.4350   -7.8010  -20.7580 C.ar  296  PHE296     -0.0003
    189  CZ       -27.7770   -8.1030  -20.9150 C.ar  296  PHE296     -0.0000
    190  N        -24.3670   -4.5900  -23.7120 N.am  297  PHE297     -0.1976
    191  CA       -24.1930   -3.3960  -22.9050 C.3   297  PHE297      0.1639
    192  C        -24.2200   -2.1140  -23.7560 C.2   297  PHE297      0.2290
    193  O        -24.7030   -1.0810  -23.3110 O.2   297  PHE297     -0.2864
    194  CB       -22.9130   -3.4960  -22.0660 C.3   297  PHE297      0.0560
    195  CG       -22.9280   -4.6060  -21.0510 C.ar  297  PHE297     -0.0200
    196  CD1      -23.7740   -4.5650  -19.9540 C.ar  297  PHE297     -0.0042
    197  CD2      -22.1130   -5.7150  -21.1980 C.ar  297  PHE297     -0.0042
    198  CE1      -23.7810   -5.6000  -19.0250 C.ar  297  PHE297     -0.0003
    199  CE2      -22.0940   -6.7320  -20.2690 C.ar  297  PHE297     -0.0003
    200  CZ       -22.9380   -6.6840  -19.1850 C.ar  297  PHE297     -0.0000
@<TRIPOS>BOND
     1    88    87    1
     2    87    86    1
     3   124   122    1
     4   123   122    1
     5   122   121    2
     6    83    82    2
     7    86    85    1
     8   179   180    1
     9    85    84    1
    10    84    81    1
    11   171   172    1
    12   121   120    1
    13    82    81    1
    14    82    89   am
    15   180   183    1
    16   180   181    1
    17   172   173    1
    18   172   175    1
    19   173   174    2
    20    81    80    1
    21   120   119    1
    22   164   165    2
    23   164   163    1
    24   183   184    1
    25    90    89    1
    26    90    91    1
    27    90    93    1
    28   181   182    2
    29   181   190   am
    30    91    98   am
    31    91    92    2
    32   192   193    2
    33   192   191    1
    34    98    99    1
    35   190   191    1
    36    80    71   am
    37   175   176    1
    38   175   177    1
    39   178   176    1
    40   166   163    1
    41   166   167    1
    42    99   100    1
    43   163   162    1
    44    93    94    1
    45   185   184   ar
    46   185   187   ar
    47   119   118    1
    48    94    95    1
    49   184   186   ar
    50    72    71    2
    51   191   194    1
    52   169   168   ar
    53    71    70    1
    54   118   115    1
    55   168   170   ar
    56   168   167    1
    57   187   189   ar
    58   162   157   am
    59   194   195    1
    60    95    96    2
    61    95    97   am
    62   100   101    2
    63   100   102   am
    64   186   188   ar
    65   158   157    2
    66   160   159    1
    67   157   156    1
    68    73    70    1
    69    73    74    1
    70    70    69    1
    71   115   114    1
    72   115   116    1
    73   197   195   ar
    74   197   199   ar
    75   102   103    1
    76   195   196   ar
    77   189   188   ar
    78   159   156    1
    79   159   161    1
    80   114   112   am
    81    69    59   am
    82   156   155    1
    83   116   117    2
    84   199   200   ar
    85    60    59    2
    86    75    74    1
    87    75    76    1
    88   196   198   ar
    89    59    58    1
    90   112   111    1
    91   112   113    2
    92   103   104    1
    93   103   106    1
    94   110   111    1
    95   110   104   am
    96    78    77    1
    97   155   143   am
    98   200   198   ar
    99   107   106    1
   100   107   108    1
   101   107   109    1
   102   104   105    2
   103    58    57    1
   104    58    61    1
   105    76    77    2
   106    77    79    1
   107   132   130    1
   108   143   144    2
   109   143   142    1
   110    61    62    1
   111   128   127    2
   112    55    53    1
   113   131   129    1
   114   129   130    1
   115   129   126    1
   116   147   149   ar
   117   147   146   ar
   118   142   141    1
   119   142   145    1
   120   149   150   ar
   121    53    54    1
   122    53    50    1
   123    54    56    1
   124    63    62   ar
   125    63    65   ar
   126    62    64   ar
   127   141   135   am
   128   127   126    1
   129   127   133   am
   130    43    41    1
   131    65    67   ar
   132    52    51    2
   133   126   125    1
   134    44    42    1
   135   135   136    2
   136   135   134    1
   137   146   145    1
   138   146   148   ar
   139   150   152   ar
   140   150   148   ar
   141    64    66   ar
   142    50    51    1
   143    50    49    1
   144    49    47   am
   145   133   134    1
   146   134   137    1
   147    40    39    2
   148    42    41    1
   149    67    66   ar
   150    67    68    1
   151   152   154   ar
   152   148   151   ar
   153    41    38    1
   154    39    45   am
   155    39    38    1
   156    46    47    1
   157    46    45    1
   158    47    48    2
   159     9    11   ar
   160     9     7   ar
   161    25    23   ar
   162    25    24   ar
   163    11    10   ar
   164   137   138    1
   165    38    37    1
   166    23    21   ar
   167   154   153   ar
   168   151   153   ar
   169    37    32   am
   170    24    22   ar
   171   138   139   ar
   172   138   140   ar
   173     7     6   ar
   174    10     8   ar
   175    32    31    1
   176    32    33    2
   177    27    26    1
   178    27    28    1
   179    31    34    1
   180    31    30    1
   181    21    19   ar
   182    21    20   ar
   183    22    19   ar
   184    34    35    1
   185     6     8   ar
   186     6     5    1
   187    19    17   ar
   188    20    18   ar
   189    28    30   am
   190    28    29    2
   191    30    36    1
   192     5     2    1
   193    35    36    1
   194     2     1    1
   195     2     3    1
   196    17    18   ar
   197    17    16    1
   198     3     4    2
   199    16    13    1
   200    12    13    1
   201    13    14    1
   202    14    15    2
