@<TRIPOS>MOLECULE
tmp/5kgiA00.pdb
 135 125 0 0 0
SMALL
GASTEIGER

@<TRIPOS>ATOM
      1  N         25.1230   34.0450    4.9880 N.3    12  LEU12      -0.1231
      2  CA        24.2560   35.1760    5.3300 C.3    12  LEU12       0.1693
      3  C         23.0000   34.7140    6.0770 C.2    12  LEU12       0.2592
      4  O         22.4800   35.4370    6.9230 O.2    12  LEU12      -0.2718
      5  CB        23.8620   35.9790    4.0700 C.3    12  LEU12       0.0284
      6  CG        24.9780   36.6830    3.2750 C.3    12  LEU12       0.0019
      7  CD1       24.4060   37.3830    2.0380 C.3    12  LEU12       0.0001
      8  CD2       25.7340   37.6960    4.1420 C.3    12  LEU12       0.0001
      9  N         22.5260   33.5200    5.7490 N.am   13  GLY13      -0.1957
     10  CA        21.3350   32.9310    6.3470 C.3    13  GLY13       0.1869
     11  C         20.9420   31.6050    5.7260 C.2    13  GLY13       0.2309
     12  O         21.4310   31.2300    4.6520 O.2    13  GLY13      -0.2863
     13  N         13.9460   28.4790    2.7560 N.3    17  PHE17      -0.1241
     14  CA        14.4540   28.8530    1.4380 C.3    17  PHE17       0.1605
     15  C         15.7410   28.1340    0.9580 C.2    17  PHE17       0.2264
     16  O         16.0040   28.1130   -0.2460 O.2    17  PHE17      -0.2867
     17  CB        14.6810   30.3720    1.4040 C.3    17  PHE17       0.0534
     18  CG        15.5620   30.9110    2.5080 C.ar   17  PHE17      -0.0203
     19  CD1       15.0070   31.4460    3.6650 C.ar   17  PHE17      -0.0042
     20  CD2       16.9460   30.9350    2.3660 C.ar   17  PHE17      -0.0042
     21  CE1       15.8210   31.9560    4.6800 C.ar   17  PHE17      -0.0003
     22  CE2       17.7590   31.4510    3.3790 C.ar   17  PHE17      -0.0003
     23  CZ        17.1910   31.9690    4.5230 C.ar   17  PHE17      -0.0000
     24  N         22.1140   30.6650    1.9530 N.3    20  VAL20      -0.1245
     25  CA        22.5790   31.8230    1.1870 C.3    20  VAL20       0.1561
     26  C         23.9240   32.2870    1.7240 C.2    20  VAL20       0.2260
     27  O         24.0500   32.5440    2.9290 O.2    20  VAL20      -0.2867
     28  CB        21.5460   32.9830    1.1760 C.3    20  VAL20       0.0252
     29  CG1       22.0450   34.1460    0.3240 C.3    20  VAL20       0.0019
     30  CG2       20.1880   32.5190    0.6610 C.3    20  VAL20       0.0019
     31  N         25.1440   37.2390   -4.0040 N.3    33  ALA33      -0.1245
     32  CA        24.6420   36.3300   -2.9740 C.3    33  ALA33       0.1562
     33  C         24.4930   34.9890   -3.6990 C.2    33  ALA33       0.2260
     34  O         24.0260   34.9480   -4.8370 O.2    33  ALA33      -0.2867
     35  CB        23.3010   36.8040   -2.3930 C.3    33  ALA33       0.0290
     36  N         22.8660   31.3880   -3.4770 N.3    35  LYS35      -0.1245
     37  CA        21.8090   30.6150   -2.8410 C.3    35  LYS35       0.1561
     38  C         21.7940   29.1750   -3.3350 C.2    35  LYS35       0.2260
     39  O         21.7410   28.9290   -4.5440 O.2    35  LYS35      -0.2867
     40  CB        20.4560   31.3140   -3.0560 C.3    35  LYS35       0.0271
     41  CG        19.2630   30.5940   -2.4520 C.3    35  LYS35       0.0035
     42  CD        17.9960   31.4100   -2.6330 C.3    35  LYS35       0.0206
     43  CE        16.8040   30.6270   -2.1720 C.3    35  LYS35       0.1093
     44  NZ        15.5340   31.4000   -2.2040 N.3    35  LYS35      -0.1314
     45  N         15.1830   41.7010   -6.3170 N.3    72  ILE72      -0.1245
     46  CA        16.5820   41.2160   -6.4080 C.3    72  ILE72       0.1561
     47  C         16.7610   40.4960   -7.7650 C.2    72  ILE72       0.2260
     48  O         15.9000   39.7070   -8.1670 O.2    72  ILE72      -0.2867
     49  CB        17.1140   40.4090   -5.1600 C.3    72  ILE72       0.0252
     50  CG1       17.4820   41.3630   -3.9840 C.3    72  ILE72       0.0019
     51  CG2       18.3530   39.5330   -5.4610 C.3    72  ILE72       0.0019
     52  CD1       18.8480   42.0580   -4.0080 C.3    72  ILE72       0.0001
     53  N         22.7220   35.7990   -7.1800 N.3    88  LEU88      -0.1231
     54  CA        21.8570   36.9570   -7.0740 C.3    88  LEU88       0.1693
     55  C         22.6620   38.1960   -6.8470 C.2    88  LEU88       0.2592
     56  O         23.7380   38.1210   -6.2710 O.2    88  LEU88      -0.2718
     57  CB        20.8460   36.7450   -5.9220 C.3    88  LEU88       0.0284
     58  CG        19.9890   35.4700   -6.0780 C.3    88  LEU88       0.0019
     59  CD1       19.7530   34.7920   -4.7530 C.3    88  LEU88       0.0001
     60  CD2       18.7300   35.7200   -6.9020 C.3    88  LEU88       0.0001
     61  N         22.1340   39.3500   -7.2640 N.am   89  GLU89      -0.1966
     62  CA        22.8300   40.6040   -6.9940 C.3    89  GLU89       0.1733
     63  C         22.8040   40.8430   -5.4810 C.2    89  GLU89       0.2616
     64  O         21.8900   40.3660   -4.8060 O.2    89  GLU89      -0.2715
     65  CB        22.1860   41.7690   -7.7740 C.3    89  GLU89       0.0429
     66  CG        20.9880   42.4410   -7.1020 C.3    89  GLU89       0.1163
     67  CD        20.2080   43.3720   -8.0080 C.2    89  GLU89       0.3649
     68  OE1       18.9590   43.3400   -7.9390 O.co2  89  GLU89      -0.2457
     69  OE2       20.8350   44.0960   -8.8160 O.co2  89  GLU89      -0.2457
     70  N         23.8320   41.4900   -4.9420 N.am   90  ARG90      -0.1964
     71  CA        23.8710   41.7550   -3.5150 C.3    90  ARG90       0.1714
     72  C         24.1700   43.2290   -3.2300 C.2    90  ARG90       0.2458
     73  O         25.2970   43.6770   -3.4810 O.2    90  ARG90      -0.2730
     74  CB        24.8430   40.8000   -2.7800 C.3    90  ARG90       0.0347
     75  CG        25.1130   41.1520   -1.3060 C.3    90  ARG90       0.0492
     76  CD        26.0490   40.1850   -0.5850 C.3    90  ARG90       0.2205
     77  NE        27.3900   40.0810   -1.1780 N.pl3  90  ARG90      -0.0865
     78  CZ        28.4320   40.8450   -0.8540 C.cat  90  ARG90       0.5346
     79  NH1       28.2960   41.8290    0.0280 N.pl3  90  ARG90       0.1354
     80  NH2       29.6160   40.6370   -1.4180 N.pl3  90  ARG90       0.1354
     81  N         23.1770   43.9800   -2.6740 N.am   91  PRO91      -0.2727
     82  CA        23.4460   45.3790   -2.2720 C.3    91  PRO91       0.1402
     83  C         24.3950   45.3930   -1.0790 C.2    91  PRO91       0.2269
     84  O         24.4200   44.4380   -0.2980 O.2    91  PRO91      -0.2865
     85  CB        22.0580   45.9250   -1.8770 C.3    91  PRO91       0.0296
     86  CG        21.0590   44.8720   -2.2990 C.3    91  PRO91       0.0237
     87  CD        21.8060   43.5740   -2.2990 C.3    91  PRO91       0.0939
     88  N         23.6920   46.4090    3.3230 N.3    94  VAL94      -0.1245
     89  CA        22.3130   45.9270    3.2640 C.3    94  VAL94       0.1561
     90  C         21.8500   45.4860    4.6690 C.2    94  VAL94       0.2260
     91  O         22.6820   45.1420    5.5160 O.2    94  VAL94      -0.2867
     92  CB        22.2010   44.7750    2.2090 C.3    94  VAL94       0.0252
     93  CG1       22.8280   43.4660    2.7110 C.3    94  VAL94       0.0019
     94  CG2       20.7680   44.5520    1.7570 C.3    94  VAL94       0.0019
     95  N         17.9570   43.4650    6.1390 N.3    96  ASP96      -0.1239
     96  CA        16.5790   43.1240    5.8220 C.3    96  ASP96       0.1674
     97  C         15.6230   43.9560    6.7210 C.2    96  ASP96       0.2266
     98  O         16.0340   44.4610    7.7760 O.2    96  ASP96      -0.2867
     99  CB        16.3090   41.6070    5.8130 C.3    96  ASP96       0.1410
    100  CG        16.3010   40.8550    7.1320 C.2    96  ASP96       0.3668
    101  OD1       15.8090   41.4060    8.1310 O.co2  96  ASP96      -0.2456
    102  OD2       16.6460   39.6610    7.1280 O.co2  96  ASP96      -0.2456
    103  N         10.9590   39.9620    6.4600 N.3   139  GLU139     -0.1231
    104  CA        12.1360   39.0960    6.2190 C.3   139  GLU139      0.1699
    105  C         12.4970   38.9860    4.7290 C.2   139  GLU139      0.2592
    106  O         13.6590   38.7280    4.4130 O.2   139  GLU139     -0.2718
    107  CB        11.8820   37.6730    6.7220 C.3   139  GLU139      0.0402
    108  CG        11.7080   37.5360    8.2240 C.3   139  GLU139      0.1161
    109  CD        11.3280   36.1210    8.6130 C.2   139  GLU139      0.3649
    110  OE1       10.1400   35.8880    8.9300 O.co2 139  GLU139     -0.2457
    111  OE2       12.1980   35.2270    8.5150 O.co2 139  GLU139     -0.2457
    112  N         11.5080   39.1900    3.8150 N.am  140  ASN140     -0.1974
    113  CA        11.7420   39.0820    2.3710 C.3   140  ASN140      0.1688
    114  C         11.9230   40.4190    1.6690 C.2   140  ASN140      0.2292
    115  O         11.7120   40.5290    0.4540 O.2   140  ASN140     -0.2864
    116  CB        10.6470   38.2350    1.7180 C.3   140  ASN140      0.1181
    117  CG        10.7430   36.7850    2.1360 C.2   140  ASN140      0.2629
    118  OD1       11.8120   36.3110    2.4970 O.2   140  ASN140     -0.2716
    119  ND2        9.6450   36.0360    2.0880 N.am  140  ASN140     -0.0877
    120  N         14.8410   43.5410    1.3700 N.3   142  LEU142     -0.1245
    121  CA        16.1780   44.0500    1.6730 C.3   142  LEU142      0.1561
    122  C         16.2020   45.5510    1.5250 C.2   142  LEU142      0.2260
    123  O         15.5900   46.0940    0.5970 O.2   142  LEU142     -0.2867
    124  CB        17.2560   43.4350    0.7550 C.3   142  LEU142      0.0270
    125  CG        17.4630   41.9200    0.8530 C.3   142  LEU142      0.0019
    126  CD1       18.6030   41.4760   -0.0740 C.3   142  LEU142      0.0001
    127  CD2       17.7710   41.4890    2.3110 C.3   142  LEU142      0.0001
    128  N         12.8870   39.8240   -2.1790 N.3   153  ILE153     -0.1245
    129  CA        13.6770   38.5920   -2.3070 C.3   153  ILE153      0.1561
    130  C         12.7630   37.3990   -2.0360 C.2   153  ILE153      0.2260
    131  O         11.6130   37.5550   -1.6100 O.2   153  ILE153     -0.2867
    132  CB        14.9340   38.5500   -1.3550 C.3   153  ILE153      0.0252
    133  CG1       14.5350   38.6420    0.1280 C.3   153  ILE153      0.0019
    134  CG2       15.9340   39.6220   -1.7280 C.3   153  ILE153      0.0019
    135  CD1       15.6190   38.2840    1.2010 C.3   153  ILE153      0.0001
@<TRIPOS>BOND
     1    69    67   ar
     2    48    47    2
     3    67    68   ar
     4    67    66    1
     5    65    66    1
     6    65    62    1
     7    47    46    1
     8    61    62    1
     9    61    55   am
    10    53    54    1
    11    54    55    1
    12    54    57    1
    13    62    63    1
    14    60    58    1
    15    55    56    2
    16    46    45    1
    17    46    49    1
    18    58    57    1
    19    58    59    1
    20    63    70   am
    21    63    64    2
    22    51    49    1
    23    49    50    1
    24    70    71    1
    25    34    33    2
    26    39    38    2
    27    52    50    1
    28    31    32    1
    29    33    32    1
    30    71    72    1
    31    71    74    1
    32    73    72    2
    33    36    37    1
    34    38    37    1
    35    72    81   am
    36    40    37    1
    37    40    41    1
    38    32    35    1
    39    74    75    1
    40    81    87    1
    41    81    82    1
    42    42    41    1
    43    42    43    1
    44   129   128    1
    45   129   130    1
    46   129   132    1
    47    86    87    1
    48    86    85    1
    49    82    85    1
    50    82    83    1
    51    44    43    1
    52   130   131    2
    53   134   132    1
    54    80    78    1
    55   132   133    1
    56    75    76    1
    57    77    78    2
    58    77    76    1
    59    83    84    2
    60    78    79    1
    61    16    15    2
    62   126   125    1
    63   133   135    1
    64    29    28    1
    65   115   114    2
    66   123   122    2
    67    30    28    1
    68   124   125    1
    69   124   121    1
    70   125   127    1
    71    15    14    1
    72    28    25    1
    73    25    26    1
    74    25    24    1
    75   120   121    1
    76    17    14    1
    77    17    18    1
    78    14    13    1
    79   122   121    1
    80   114   113    1
    81   116   117    1
    82   116   113    1
    83    26    27    2
    84    94    92    1
    85     7     6    1
    86   119   117   am
    87   117   118    2
    88    92    93    1
    89    92    89    1
    90    20    18   ar
    91    20    22   ar
    92   113   112    1
    93    18    19   ar
    94    89    88    1
    95    89    90    1
    96     6     5    1
    97     6     8    1
    98    22    23   ar
    99    19    21   ar
   100   112   105   am
   101     5     2    1
   102   106   105    2
   103    23    21   ar
   104    12    11    2
   105    90    91    2
   106   105   104    1
   107     1     2    1
   108     2     3    1
   109    11    10    1
   110     9     3   am
   111     9    10    1
   112    99    96    1
   113    99   100    1
   114    96    95    1
   115    96    97    1
   116     3     4    2
   117   104   103    1
   118   104   107    1
   119    97    98    2
   120   107   108    1
   121   102   100   ar
   122   100   101   ar
   123   108   109    1
   124   111   109   ar
   125   109   110   ar
