@<TRIPOS>MOLECULE
tmp/5kgjA01.pdb
 108 109 0 0 0
SMALL
GASTEIGER

@<TRIPOS>ATOM
      1  N          3.3110    9.3410   19.6050 N.3   120  HIS120     -0.1241
      2  CA         2.3130    9.8280   18.6670 C.3   120  HIS120      0.1621
      3  C          1.8770    8.6960   17.7640 C.2   120  HIS120      0.2264
      4  O          2.5960    7.7160   17.5840 O.2   120  HIS120     -0.2867
      5  CB         2.8900   10.9580   17.8180 C.3   120  HIS120      0.0745
      6  CG         4.0390   10.5330   16.9790 C.ar  120  HIS120      0.0817
      7  ND1        5.2820   10.2200   17.5020 N.ar  120  HIS120     -0.2268
      8  CD2        4.1200   10.3230   15.6480 C.ar  120  HIS120      0.1154
      9  CE1        6.0830    9.8640   16.5150 C.ar  120  HIS120      0.1986
     10  NE2        5.3970    9.9260   15.3800 N.ar  120  HIS120     -0.2212
     11  N         14.0690   15.5430   23.0480 N.3   192  ARG192     -0.1231
     12  CA        13.1960   14.3760   22.8860 C.3   192  ARG192      0.1694
     13  C         13.9600   13.1370   22.4040 C.2   192  ARG192      0.2592
     14  O         13.6170   12.0180   22.7810 O.2   192  ARG192     -0.2718
     15  CB        12.0430   14.7290   21.9410 C.3   192  ARG192      0.0321
     16  CG        11.2860   13.5400   21.4100 C.3   192  ARG192      0.0489
     17  CD         9.9600   13.9510   20.8020 C.3   192  ARG192      0.2205
     18  NE         9.2550   12.7930   20.2380 N.pl3 192  ARG192     -0.0865
     19  CZ         7.9710   12.8280   19.8710 C.cat 192  ARG192      0.5346
     20  NH1        7.3770   11.7490   19.3710 N.pl3 192  ARG192      0.1354
     21  NH2        7.2720   13.9390   20.0630 N.pl3 192  ARG192      0.1354
     22  N         14.9890   13.3140   21.5830 N.am  193  TRP193     -0.1976
     23  CA        15.6960   12.1600   21.0900 C.3   193  TRP193      0.1640
     24  C         16.4340   11.4190   22.2400 C.2   193  TRP193      0.2290
     25  O         16.4820   10.1770   22.2820 O.2   193  TRP193     -0.2864
     26  CB        16.6330   12.5870   19.9610 C.3   193  TRP193      0.0576
     27  CG        15.9230   12.8490   18.6630 C.ar  193  TRP193      0.0006
     28  CD1       14.5570   12.7780   18.4230 C.ar  193  TRP193      0.0946
     29  CD2       16.5160   13.2190   17.4260 C.ar  193  TRP193      0.0152
     30  NE1       14.2990   13.0740   17.1090 N.ar  193  TRP193     -0.2442
     31  CE2       15.4780   13.3260   16.4690 C.ar  193  TRP193      0.0810
     32  CE3       17.8290   13.4370   17.0120 C.ar  193  TRP193      0.0012
     33  CZ2       15.7270   13.6840   15.1340 C.ar  193  TRP193      0.0191
     34  CZ3       18.0710   13.7790   15.6840 C.ar  193  TRP193      0.0001
     35  CH2       17.0300   13.9070   14.7610 C.ar  193  TRP193      0.0015
     36  N         13.8360    9.6300   24.0910 N.3   196  GLU196     -0.1245
     37  CA        13.4270    8.4550   23.3440 C.3   196  GLU196      0.1567
     38  C         14.4410    7.3040   23.4960 C.2   196  GLU196      0.2260
     39  O         14.0750    6.1320   23.6640 O.2   196  GLU196     -0.2867
     40  CB        13.1810    8.8180   21.8770 C.3   196  GLU196      0.0388
     41  CG        11.8780    9.5880   21.7240 C.3   196  GLU196      0.1160
     42  CD        11.4900    9.9070   20.2740 C.2   196  GLU196      0.3649
     43  OE1       12.3340    9.7130   19.3700 O.co2 196  GLU196     -0.2457
     44  OE2       10.3220   10.3710   20.0900 O.co2 196  GLU196     -0.2457
     45  N          8.1670    4.6740   15.1440 N.3   235  PRO235     -0.2116
     46  CA         7.4260    5.3580   14.0890 C.3   235  PRO235      0.1372
     47  C          7.6730    4.8760   12.6470 C.2   235  PRO235      0.2244
     48  O          6.7330    4.7030   11.9020 O.2   235  PRO235     -0.2868
     49  CB         7.8260    6.8280   14.2860 C.3   235  PRO235      0.0268
     50  CG         8.1200    6.9790   15.7380 C.3   235  PRO235      0.0207
     51  CD         8.7620    5.6390   16.0920 C.3   235  PRO235      0.0892
     52  N         15.1370    5.9860   11.3040 N.3   251  GLY251     -0.1210
     53  CA        14.9190    7.3070   11.8930 C.3   251  GLY251      0.1940
     54  C         14.7420    7.1620   13.3810 C.2   251  GLY251      0.2453
     55  O         14.2360    6.1260   13.8660 O.2   251  GLY251     -0.2732
     56  N         15.1950    8.1680   14.1290 N.am  252  PRO252     -0.2728
     57  CA        15.9280    9.3280   13.5900 C.3   252  PRO252      0.1401
     58  C         17.3990    9.0650   13.2560 C.2   252  PRO252      0.2269
     59  O         17.9150    7.9680   13.4140 O.2   252  PRO252     -0.2865
     60  CB        15.8570   10.3480   14.7150 C.3   252  PRO252      0.0296
     61  CG        15.7370    9.5330   15.9660 C.3   252  PRO252      0.0237
     62  CD        14.8320    8.3510   15.5440 C.3   252  PRO252      0.0939
     63  N         11.0600    6.0830    6.2600 N.3   286  ILE286     -0.1231
     64  CA        11.7430    7.1100    7.0490 C.3   286  ILE286      0.1692
     65  C         10.7100    8.1320    7.4650 C.2   286  ILE286      0.2592
     66  O         10.1740    8.8560    6.6220 O.2   286  ILE286     -0.2718
     67  CB        12.8800    7.7570    6.2510 C.3   286  ILE286      0.0266
     68  CG1       13.8910    6.6540    5.8910 C.3   286  ILE286      0.0019
     69  CG2       13.5870    8.8300    7.0760 C.3   286  ILE286      0.0020
     70  CD1       14.9780    7.0760    4.9340 C.3   286  ILE286      0.0001
     71  N         10.4340    8.1990    8.7620 N.am  287  ASP287     -0.1960
     72  CA         9.2550    8.8860    9.2700 C.3   287  ASP287      0.1840
     73  C          9.5120   10.3810    9.5520 C.2   287  ASP287      0.2622
     74  O         10.6260   10.7900    9.8130 O.2   287  ASP287     -0.2715
     75  CB         8.7450    8.2400   10.5790 C.3   287  ASP287      0.1450
     76  CG         9.6920    8.5600   11.7800 C.2   287  ASP287      0.3671
     77  OD1       10.8420    8.1140   11.7290 O.co2 287  ASP287     -0.2456
     78  OD2        9.3250    9.3400   12.6810 O.co2 287  ASP287     -0.2456
     79  N          8.4540   11.1890    9.4770 N.am  288  TRP288     -0.1960
     80  CA         8.4510   12.5540    9.9810 C.3   288  TRP288      0.1771
     81  C          9.7140   13.3430    9.6080 C.2   288  TRP288      0.2620
     82  O         10.5000   13.7700   10.4770 O.2   288  TRP288     -0.2715
     83  CB         8.2030   12.4770   11.4790 C.3   288  TRP288      0.0590
     84  CG         7.8820   13.7490   12.2110 C.ar  288  TRP288      0.0006
     85  CD1        8.0170   15.0020   11.7440 C.ar  288  TRP288      0.0946
     86  CD2        7.4670   13.8620   13.5770 C.ar  288  TRP288      0.0152
     87  NE1        7.6850   15.9110   12.7210 N.ar  288  TRP288     -0.2442
     88  CE2        7.3420   15.2320   13.8600 C.ar  288  TRP288      0.0810
     89  CE3        7.1620   12.9340   14.5790 C.ar  288  TRP288      0.0012
     90  CZ2        6.9180   15.7130   15.0970 C.ar  288  TRP288      0.0191
     91  CZ3        6.7630   13.3930   15.8010 C.ar  288  TRP288      0.0001
     92  CH2        6.6390   14.7730   16.0640 C.ar  288  TRP288      0.0015
     93  N          9.8400   13.5960    8.3050 N.am  289  THR289     -0.1937
     94  CA        10.9190   14.3730    7.7240 C.3   289  THR289      0.2028
     95  C         10.3740   15.7560    7.3000 C.2   289  THR289      0.2642
     96  O          9.2040   15.9340    6.9980 O.2   289  THR289     -0.2714
     97  CB        11.5710   13.6580    6.5280 C.3   289  THR289      0.1808
     98  OG1       10.6470   13.5910    5.4400 O.3   289  THR289     -0.2208
     99  CG2       11.8860   12.2740    6.8650 C.3   289  THR289      0.0379
    100  N         11.2370   16.7570    7.3110 N.am  290  GLU290     -0.1976
    101  CA        10.8820   18.0700    6.7890 C.3   290  GLU290      0.1602
    102  C         11.1930   18.1780    5.3100 C.2   290  GLU290      0.2287
    103  O         12.0680   17.4940    4.7750 O.2   290  GLU290     -0.2864
    104  CB        11.6640   19.1530    7.5340 C.3   290  GLU290      0.0415
    105  CG        11.4780   19.0930    9.0240 C.3   290  GLU290      0.1163
    106  CD        12.1360   20.2590    9.7200 C.2   290  GLU290      0.3649
    107  OE1       13.3710   20.4180    9.5480 O.co2 290  GLU290     -0.2457
    108  OE2       11.4080   20.9890   10.4380 O.co2 290  GLU290     -0.2457
@<TRIPOS>BOND
     1   103   102    2
     2    70    68    1
     3   102   101    1
     4    98    97    1
     5    68    67    1
     6    67    64    1
     7    67    69    1
     8    63    64    1
     9    97    99    1
    10    97    94    1
    11    66    65    2
    12   101   100    1
    13   101   104    1
    14    96    95    2
    15    64    65    1
    16    95   100   am
    17    95    94    1
    18    65    71   am
    19   104   105    1
    20    94    93    1
    21    93    81   am
    22    71    72    1
    23   105   106    1
    24    72    73    1
    25    72    75    1
    26    79    73   am
    27    79    80    1
    28   107   106   ar
    29    73    74    2
    30    81    80    1
    31    81    82    2
    32   106   108   ar
    33    80    83    1
    34    75    76    1
    35    52    53    1
    36    83    84    1
    37    77    76   ar
    38    85    84   ar
    39    85    87   ar
    40    76    78   ar
    41    53    54    1
    42    48    47    2
    43    84    86   ar
    44    47    46    1
    45    87    88   ar
    46    58    59    2
    47    58    57    1
    48    54    55    2
    49    54    56   am
    50    86    88   ar
    51    86    89   ar
    52    57    56    1
    53    57    60    1
    54    88    90   ar
    55    46    49    1
    56    46    45    1
    57    56    62    1
    58    49    50    1
    59    89    91   ar
    60    60    61    1
    61    35    33   ar
    62    35    34   ar
    63    90    92   ar
    64    33    31   ar
    65    45    51    1
    66    10     8   ar
    67    10     9   ar
    68    62    61    1
    69     8     6   ar
    70    34    32   ar
    71    50    51    1
    72    91    92   ar
    73    31    30   ar
    74    31    29   ar
    75     9     7   ar
    76     6     7   ar
    77     6     5    1
    78    32    29   ar
    79    30    28   ar
    80    29    27   ar
    81     4     3    2
    82     3     2    1
    83     5     2    1
    84    28    27   ar
    85    27    26    1
    86     2     1    1
    87    43    42   ar
    88    20    19    1
    89    19    21    1
    90    19    18    2
    91    26    23    1
    92    44    42   ar
    93    18    17    1
    94    42    41    1
    95    17    16    1
    96    23    22    1
    97    23    24    1
    98    16    15    1
    99    22    13   am
   100    41    40    1
   101    40    37    1
   102    15    12    1
   103    24    25    2
   104    13    14    2
   105    13    12    1
   106    12    11    1
   107    37    38    1
   108    37    36    1
   109    38    39    2
