@<TRIPOS>MOLECULE
tmp/5kgkA00.pdb
 142 133 0 0 0
SMALL
GASTEIGER

@<TRIPOS>ATOM
      1  N         16.5790   39.2940   -4.8920 N.3    12  LEU12      -0.1245
      2  CA        17.9820   39.1530   -5.2900 C.3    12  LEU12       0.1561
      3  C         18.2010   37.8550   -6.0640 C.2    12  LEU12       0.2260
      4  O         18.9550   37.8340   -7.0420 O.2    12  LEU12      -0.2867
      5  CB        18.9290   39.2160   -4.0670 C.3    12  LEU12       0.0270
      6  CG        18.9610   40.5180   -3.2610 C.3    12  LEU12       0.0019
      7  CD1       19.8490   40.3740   -2.0550 C.3    12  LEU12       0.0001
      8  CD2       19.4250   41.6870   -4.1070 C.3    12  LEU12       0.0001
      9  N         17.5580   26.7770   -2.6890 N.3    17  PHE17      -0.1241
     10  CA        17.6420   27.4050   -1.3680 C.3    17  PHE17       0.1605
     11  C         16.3850   28.1700   -0.8860 C.2    17  PHE17       0.2264
     12  O         16.2490   28.4110    0.3190 O.2    17  PHE17      -0.2867
     13  CB        18.8570   28.3460   -1.3390 C.3    17  PHE17       0.0534
     14  CG        18.8860   29.3950   -2.4330 C.ar   17  PHE17      -0.0203
     15  CD1       19.6350   29.2000   -3.5880 C.ar   17  PHE17      -0.0042
     16  CD2       18.1990   30.6000   -2.2860 C.ar   17  PHE17      -0.0042
     17  CE1       19.6630   30.1800   -4.5960 C.ar   17  PHE17      -0.0003
     18  CE2       18.2300   31.5780   -3.2890 C.ar   17  PHE17      -0.0003
     19  CZ        18.9710   31.3690   -4.4320 C.ar   17  PHE17      -0.0000
     20  N         15.3370   34.9300   -1.8570 N.3    20  VAL20      -0.1245
     21  CA        16.0990   35.9230   -1.0960 C.3    20  VAL20       0.1561
     22  C         15.8020   37.3180   -1.6150 C.2    20  VAL20       0.2260
     23  O         15.9230   37.5700   -2.8190 O.2    20  VAL20      -0.2867
     24  CB        17.6280   35.6240   -1.1080 C.3    20  VAL20       0.0252
     25  CG1       18.4010   36.6510   -0.2880 C.3    20  VAL20       0.0019
     26  CG2       17.9240   34.2130   -0.6150 C.3    20  VAL20       0.0019
     27  N         19.5600   40.7790    4.0140 N.3    33  ALA33      -0.1245
     28  CA        18.9790   39.9000    3.0120 C.3    33  ALA33       0.1562
     29  C         17.9110   39.1010    3.7550 C.2    33  ALA33       0.2260
     30  O         18.1360   38.6650    4.8830 O.2    33  ALA33      -0.2867
     31  CB        20.0260   38.9770    2.3920 C.3    33  ALA33       0.0290
     32  N         15.6280   35.8860    3.5520 N.3    35  LYS35      -0.1245
     33  CA        15.4790   34.5850    2.9150 C.3    35  LYS35       0.1561
     34  C         14.2430   33.8400    3.4280 C.2    35  LYS35       0.2260
     35  O         14.0650   33.6830    4.6330 O.2    35  LYS35      -0.2867
     36  CB        16.7690   33.7670    3.1080 C.3    35  LYS35       0.0271
     37  CG        16.7430   32.3730    2.5150 C.3    35  LYS35       0.0035
     38  CD        18.0990   31.7220    2.6850 C.3    35  LYS35       0.0206
     39  CE        18.1360   30.2910    2.2220 C.3    35  LYS35       0.1093
     40  NZ        19.5340   29.7580    2.1690 N.3    35  LYS35      -0.1314
     41  N         19.4150   24.4300    8.7800 N.3    57  GLU57      -0.1245
     42  CA        20.0700   25.6550    8.3470 C.3    57  GLU57       0.1567
     43  C         20.1590   26.6850    9.4710 C.2    57  GLU57       0.2260
     44  O         21.2200   27.2730    9.6620 O.2    57  GLU57      -0.2867
     45  CB        19.3220   26.2300    7.1560 C.3    57  GLU57       0.0388
     46  CG        20.1450   27.2440    6.3990 C.3    57  GLU57       0.1160
     47  CD        19.4930   27.8580    5.1830 C.2    57  GLU57       0.3649
     48  OE1       18.4380   27.3650    4.7190 O.co2  57  GLU57      -0.2457
     49  OE2       20.0790   28.8330    4.6710 O.co2  57  GLU57      -0.2457
     50  N         23.6710   27.8810   11.1740 N.3    61  LEU61      -0.1245
     51  CA        23.9690   29.3110   11.1390 C.3    61  LEU61       0.1561
     52  C         24.2200   29.8630   12.5400 C.2    61  LEU61       0.2260
     53  O         25.1620   30.6070   12.7140 O.2    61  LEU61      -0.2867
     54  CB        22.8810   30.1160   10.4120 C.3    61  LEU61       0.0270
     55  CG        22.8930   30.0250    8.8610 C.3    61  LEU61       0.0019
     56  CD1       21.5690   30.4960    8.2680 C.3    61  LEU61       0.0001
     57  CD2       24.0470   30.8030    8.2520 C.3    61  LEU61       0.0001
     58  N         28.5470   34.2570    6.1800 N.3    72  ILE72      -0.1242
     59  CA        27.4760   35.2570    6.2960 C.3    72  ILE72       0.1601
     60  C         26.6920   34.9860    7.6040 C.2    72  ILE72       0.2264
     61  O         26.3770   33.8390    7.9380 O.2    72  ILE72      -0.2867
     62  CB        26.6030   35.5460    5.0310 C.3    72  ILE72       0.0472
     63  CG1       27.2750   36.8320    4.5040 C.2    72  ILE72      -0.0246
     64  CG2       25.0760   35.8530    5.3480 C.3    72  ILE72       0.0066
     65  CD1       26.7380   37.5810    3.6140 C.2    72  ILE72      -0.0049
     66  N         19.5770   37.9100    7.1700 N.3    88  LEU88      -0.1231
     67  CA        21.0150   37.7110    7.0210 C.3    88  LEU88       0.1693
     68  C         21.7170   39.0090    6.7400 C.2    88  LEU88       0.2592
     69  O         21.1040   39.9340    6.2120 O.2    88  LEU88      -0.2718
     70  CB        21.2730   36.7180    5.8690 C.3    88  LEU88       0.0284
     71  CG        20.6050   35.3570    6.0650 C.3    88  LEU88       0.0019
     72  CD1       20.0670   34.8150    4.7750 C.3    88  LEU88       0.0001
     73  CD2       21.5180   34.3830    6.8020 C.3    88  LEU88       0.0001
     74  N         23.0130   39.0720    7.0520 N.am   89  GLU89      -0.1966
     75  CA        23.7580   40.2730    6.7290 C.3    89  GLU89       0.1733
     76  C         23.9030   40.4140    5.2110 C.2    89  GLU89       0.2616
     77  O         23.8200   39.4250    4.4840 O.2    89  GLU89      -0.2715
     78  CB        25.0960   40.3210    7.4870 C.3    89  GLU89       0.0429
     79  CG        26.2810   39.6280    6.8380 C.3    89  GLU89       0.1163
     80  CD        27.4510   39.4310    7.7910 C.2    89  GLU89       0.3649
     81  OE1       28.0650   38.3400    7.7580 O.co2  89  GLU89      -0.2457
     82  OE2       27.7300   40.3450    8.6030 O.co2  89  GLU89      -0.2457
     83  N         24.0190   41.6480    4.7240 N.am   90  ARG90      -0.1964
     84  CA        24.1560   41.8760    3.2920 C.3    90  ARG90       0.1714
     85  C         25.2810   42.8590    2.9680 C.2    90  ARG90       0.2458
     86  O         25.1120   44.0620    3.2200 O.2    90  ARG90      -0.2730
     87  CB        22.8160   42.2920    2.6560 C.3    90  ARG90       0.0347
     88  CG        22.9170   42.6960    1.1800 C.3    90  ARG90       0.0492
     89  CD        21.5790   43.0240    0.5230 C.3    90  ARG90       0.2205
     90  NE        20.8510   44.1360    1.1440 N.pl3  90  ARG90      -0.0865
     91  CZ        20.9880   45.4180    0.8140 C.cat  90  ARG90       0.5346
     92  NH1       21.8760   45.7850   -0.1050 N.pl3  90  ARG90       0.1354
     93  NH2       20.2540   46.3450    1.4200 N.pl3  90  ARG90       0.1354
     94  N         26.4360   42.3700    2.4040 N.am   91  PRO91      -0.2727
     95  CA        27.5120   43.3000    2.0070 C.3    91  PRO91       0.1402
     96  C         27.0410   44.1110    0.8010 C.2    91  PRO91       0.2269
     97  O         26.1750   43.6620    0.0380 O.2    91  PRO91      -0.2865
     98  CB        28.7070   42.3740    1.6540 C.3    91  PRO91       0.0296
     99  CG        28.3130   40.9950    2.1140 C.3    91  PRO91       0.0237
    100  CD        26.7970   40.9790    2.0470 C.3    91  PRO91       0.0939
    101  N         28.4010   43.9120   -3.5930 N.3    94  VAL94      -0.1245
    102  CA        28.6830   42.4820   -3.5080 C.3    94  VAL94       0.1561
    103  C         28.5680   41.8190   -4.9030 C.2    94  VAL94       0.2260
    104  O         27.9090   42.3650   -5.7910 O.2    94  VAL94      -0.2867
    105  CB        27.7540   41.8250   -2.4320 C.3    94  VAL94       0.0252
    106  CG1       26.3190   41.6590   -2.9300 C.3    94  VAL94       0.0019
    107  CG2       28.3130   40.5050   -1.9300 C.3    94  VAL94       0.0019
    108  N         30.3610   34.8000   -1.5400 N.3   142  LEU142     -0.1245
    109  CA        30.1500   36.2130   -1.8610 C.3   142  LEU142      0.1561
    110  C         31.4410   36.9990   -1.7110 C.2   142  LEU142      0.2260
    111  O         32.1900   36.7770   -0.7590 O.2   142  LEU142     -0.2867
    112  CB        29.0640   36.8580   -0.9710 C.3   142  LEU142      0.0270
    113  CG        27.6480   36.2830   -1.0710 C.3   142  LEU142      0.0019
    114  CD1       26.7060   37.0490   -0.1690 C.3   142  LEU142      0.0001
    115  CD2       27.1170   36.3270   -2.5070 C.3   142  LEU142      0.0001
    116  N         28.0830   31.2790    2.0550 N.3   153  ILE153     -0.1231
    117  CA        26.6270   31.3560    2.1670 C.3   153  ILE153      0.1692
    118  C         26.0320   29.9590    1.9120 C.2   153  ILE153      0.2592
    119  O         26.7260   29.0490    1.4650 O.2   153  ILE153     -0.2718
    120  CB        25.9660   32.4390    1.2180 C.3   153  ILE153      0.0266
    121  CG1       26.2250   32.1320   -0.2730 C.3   153  ILE153      0.0019
    122  CG2       26.3960   33.8630    1.5910 C.3   153  ILE153      0.0020
    123  CD1       25.3870   32.8540   -1.2930 C.3   153  ILE153      0.0001
    124  N         24.7280   29.8420    2.1590 N.am  154  ASP154     -0.1960
    125  CA        23.8890   28.6760    1.9390 C.3   154  ASP154      0.1840
    126  C         24.3200   27.4220    2.6900 C.2   154  ASP154      0.2622
    127  O         24.9130   26.4870    2.1370 O.2   154  ASP154     -0.2715
    128  CB        23.7110   28.3730    0.4370 C.3   154  ASP154      0.1450
    129  CG        22.5990   27.3660    0.1550 C.2   154  ASP154      0.3671
    130  OD1       21.7590   27.1300    1.0600 O.co2 154  ASP154     -0.2456
    131  OD2       22.6010   26.7700   -0.9470 O.co2 154  ASP154     -0.2456
    132  N         23.9000   27.3640    3.9420 N.am  155  PHE155     -0.1974
    133  CA        24.1110   26.2240    4.8390 C.3   155  PHE155      0.1639
    134  C         22.9100   25.2430    4.7710 C.2   155  PHE155      0.2290
    135  O         22.7810   24.3690    5.6230 O.2   155  PHE155     -0.2864
    136  CB        24.3670   26.7350    6.2820 C.3   155  PHE155      0.0560
    137  CG        25.7670   27.2790    6.4590 C.ar  155  PHE155     -0.0200
    138  CD1       26.1000   28.5600    6.0120 C.ar  155  PHE155     -0.0042
    139  CD2       26.7600   26.5060    7.0490 C.ar  155  PHE155     -0.0042
    140  CE1       27.4060   29.0500    6.1410 C.ar  155  PHE155     -0.0003
    141  CE2       28.0630   27.0040    7.1980 C.ar  155  PHE155     -0.0003
    142  CZ        28.3760   28.2750    6.7460 C.ar  155  PHE155     -0.0000
@<TRIPOS>BOND
     1     4     3    2
     2     3     2    1
     3   104   103    2
     4     2     1    1
     5     2     5    1
     6   103   102    1
     7    17    19   ar
     8    17    15   ar
     9    19    18   ar
    10     8     6    1
    11     5     6    1
    12   101   102    1
    13    15    14   ar
    14   102   105    1
    15    18    16   ar
    16     6     7    1
    17   106   105    1
    18    23    22    2
    19     9    10    1
    20   115   113    1
    21    14    16   ar
    22    14    13    1
    23   105   107    1
    24   109   110    1
    25   109   108    1
    26   109   112    1
    27    20    21    1
    28   110   111    2
    29    22    21    1
    30    10    13    1
    31    10    11    1
    32   123   121    1
    33    24    21    1
    34    24    26    1
    35    24    25    1
    36   113   112    1
    37   113   114    1
    38   131   129   ar
    39    11    12    2
    40   121   120    1
    41    92    91    1
    42    97    96    2
    43   129   128    1
    44   129   130   ar
    45   128   125    1
    46    89    90    1
    47    89    88    1
    48    96    95    1
    49    91    90    2
    50    91    93    1
    51    88    87    1
    52   120   122    1
    53   120   117    1
    54   119   118    2
    55    98    95    1
    56    98    99    1
    57   118   124   am
    58   118   117    1
    59   125   124    1
    60   125   126    1
    61    95    94    1
    62   100    99    1
    63   100    94    1
    64   116   117    1
    65   127   126    2
    66    40    39    1
    67    39    38    1
    68    31    28    1
    69    94    85   am
    70    37    38    1
    71    37    36    1
    72    87    84    1
    73   126   132   am
    74    33    36    1
    75    33    34    1
    76    33    32    1
    77    85    86    2
    78    85    84    1
    79    28    29    1
    80    28    27    1
    81    84    83    1
    82    34    35    2
    83    65    63    2
    84    29    30    2
    85   132   133    1
    86    77    76    2
    87    63    62    1
    88    49    47   ar
    89    48    47   ar
    90    83    76   am
    91   134   133    1
    92   134   135    2
    93    72    71    1
    94   133   136    1
    95    62    64    1
    96    62    59    1
    97    47    46    1
    98    76    75    1
    99    70    71    1
   100    70    67    1
   101   138   140   ar
   102   138   137   ar
   103    71    73    1
   104   140   142   ar
   105    58    59    1
   106    69    68    2
   107   136   137    1
   108    59    60    1
   109    46    45    1
   110   137   139   ar
   111    75    74    1
   112    75    78    1
   113    68    67    1
   114    68    74   am
   115   142   141   ar
   116    79    78    1
   117    79    80    1
   118    67    66    1
   119   139   141   ar
   120    45    42    1
   121    60    61    2
   122    81    80   ar
   123    80    82   ar
   124    57    55    1
   125    56    55    1
   126    42    41    1
   127    42    43    1
   128    55    54    1
   129    43    44    2
   130    54    51    1
   131    51    50    1
   132    51    52    1
   133    52    53    2
