@<TRIPOS>MOLECULE
tmp/5kgpB02.pdb
 85 81 0 0 0
SMALL
GASTEIGER

@<TRIPOS>ATOM
      1  N         -8.2090   20.9960  -47.3580 N.3    40  GLN40      -0.1245
      2  CA        -8.5200   19.9460  -48.3240 C.3    40  GLN40       0.1566
      3  C         -9.9370   20.1920  -48.8270 C.2    40  GLN40       0.2260
      4  O        -10.7030   20.8870  -48.2040 O.2    40  GLN40      -0.2867
      5  CB        -8.4570   18.5490  -47.7040 C.3    40  GLN40       0.0367
      6  CG        -7.2300   18.2860  -46.8530 C.3    40  GLN40       0.0905
      7  CD        -5.9180   18.3560  -47.6290 C.2    40  GLN40       0.2608
      8  OE1       -5.8810   18.2750  -48.8820 O.2    40  GLN40      -0.2717
      9  NE2       -4.8150   18.4840  -46.8760 N.am   40  GLN40      -0.0878
     10  N         -7.3600   14.4480  -50.4730 N.3    62  TRP62      -0.1241
     11  CA        -6.0670   15.1160  -50.4360 C.3    62  TRP62       0.1605
     12  C         -5.9210   15.9230  -51.7510 C.2    62  TRP62       0.2264
     13  O         -5.5600   15.3740  -52.8070 O.2    62  TRP62      -0.2867
     14  CB        -4.9510   14.1410  -50.2540 C.3    62  TRP62       0.0550
     15  CG        -3.5840   14.7800  -50.0820 C.ar   62  TRP62       0.0003
     16  CD1       -3.3090   16.0950  -49.9460 C.ar   62  TRP62       0.0946
     17  CD2       -2.3250   14.0980  -50.0300 C.ar   62  TRP62       0.0152
     18  NE1       -1.9340   16.2870  -49.8590 N.ar   62  TRP62      -0.2442
     19  CE2       -1.3170   15.0750  -49.9080 C.ar   62  TRP62       0.0810
     20  CE3       -1.9550   12.7710  -50.0900 C.ar   62  TRP62       0.0012
     21  CZ2        0.0290   14.7600  -49.8360 C.ar   62  TRP62       0.0191
     22  CZ3       -0.6190   12.4500  -50.0190 C.ar   62  TRP62       0.0001
     23  CH2        0.3650   13.4410  -49.9070 C.ar   62  TRP62       0.0015
     24  N          1.1970   19.3360  -49.2820 N.3    66  SER66      -0.1217
     25  CA         1.7470   19.0670  -47.9670 C.3    66  SER66       0.1889
     26  C          3.2440   19.4000  -47.9370 C.2    66  SER66       0.2288
     27  O          4.0710   18.5340  -48.2230 O.2    66  SER66      -0.2866
     28  CB         1.4860   17.6050  -47.6310 C.3    66  SER66       0.2089
     29  OG         2.1660   17.1850  -46.4630 O.3    66  SER66      -0.2183
     30  N          5.3500   18.3570  -50.8180 N.3    69  LEU69      -0.1245
     31  CA         4.6730   17.2800  -51.5370 C.3    69  LEU69       0.1561
     32  C          3.4870   17.9030  -52.2250 C.2    69  LEU69       0.2260
     33  O          2.7070   18.6440  -51.6050 O.2    69  LEU69      -0.2867
     34  CB         4.1600   16.1730  -50.6120 C.3    69  LEU69       0.0270
     35  CG         5.2180   15.3290  -49.9170 C.3    69  LEU69       0.0019
     36  CD1        4.6490   14.3980  -48.8440 C.3    69  LEU69       0.0001
     37  CD2        5.9880   14.5670  -50.9700 C.3    69  LEU69       0.0001
     38  N        -10.2380   10.4720  -46.9950 N.3    77  TYR77      -0.1241
     39  CA       -10.2320   10.2740  -45.5500 C.3    77  TYR77       0.1605
     40  C        -11.6650   10.3270  -45.0190 C.2    77  TYR77       0.2264
     41  O        -12.4460   11.1780  -45.4490 O.2    77  TYR77      -0.2867
     42  CB        -9.4600   11.3810  -44.8460 C.3    77  TYR77       0.0534
     43  CG        -8.0430   11.5620  -45.3680 C.ar   77  TYR77      -0.0201
     44  CD1       -6.9370   10.9730  -44.7350 C.ar   77  TYR77      -0.0009
     45  CD2       -7.8210   12.3010  -46.5360 C.ar   77  TYR77      -0.0009
     46  CE1       -5.6530   11.1100  -45.2520 C.ar   77  TYR77       0.0417
     47  CE2       -6.5440   12.4140  -47.0640 C.ar   77  TYR77       0.0417
     48  CZ        -5.4690   11.8540  -46.4080 C.ar   77  TYR77       0.1957
     49  OH        -4.2250   12.0580  -46.9770 O.3    77  TYR77      -0.2866
     50  N         -6.5780   10.1210  -39.7570 N.3   116  SER116     -0.1202
     51  CA        -5.1850   10.3970  -40.1320 C.3   116  SER116      0.2020
     52  C         -5.1270   11.5990  -41.1030 C.2   116  SER116      0.2619
     53  O         -4.0770   11.9330  -41.5910 O.2   116  SER116     -0.2717
     54  CB        -4.4340    9.1560  -40.7140 C.3   116  SER116      0.2103
     55  OG        -4.8640    8.8170  -42.0230 O.3   116  SER116     -0.2182
     56  N         -6.2680   12.2480  -41.3250 N.am  117  ASP117     -0.1959
     57  CA        -6.3430   13.4400  -42.1750 C.3   117  ASP117      0.1840
     58  C         -5.6470   14.6130  -41.5520 C.2   117  ASP117      0.2622
     59  O         -5.2630   14.6040  -40.3420 O.2   117  ASP117     -0.2715
     60  CB        -7.8290   13.8090  -42.4580 C.3   117  ASP117      0.1450
     61  CG        -8.7390   13.7990  -41.1960 C.2   117  ASP117      0.3671
     62  OD1       -8.7710   12.8050  -40.3780 O.co2 117  ASP117     -0.2456
     63  OD2       -9.5630   14.7570  -41.0790 O.co2 117  ASP117     -0.2456
     64  N         -5.4780   15.6690  -42.3450 N.am  118  THR118     -0.1951
     65  CA        -5.1280   16.9440  -41.7400 C.3   118  THR118      0.1897
     66  C         -6.2210   17.4020  -40.8190 C.2   118  THR118      0.2313
     67  O         -7.3980   17.1210  -41.0600 O.2   118  THR118     -0.2863
     68  CB        -4.8170   18.0470  -42.8080 C.3   118  THR118      0.1794
     69  OG1       -5.8090   18.0200  -43.8130 O.3   118  THR118     -0.2208
     70  CG2       -3.4550   17.7970  -43.4580 C.3   118  THR118      0.0378
     71  N          7.1930   17.3540  -45.4350 N.3   191  GLY191     -0.1210
     72  CA         5.8270   17.0810  -45.7850 C.3   191  GLY191      0.1956
     73  C          4.8700   17.6900  -44.7730 C.2   191  GLY191      0.2611
     74  O          4.8240   18.8990  -44.5760 O.2   191  GLY191     -0.2717
     75  N          4.1600   16.8020  -44.0710 N.am  192  ARG192     -0.1979
     76  CA         3.1530   17.2090  -43.1190 C.3   192  ARG192      0.1597
     77  C          3.6260   18.1320  -42.0660 C.2   192  ARG192      0.2287
     78  O          2.9350   19.1040  -41.7510 O.2   192  ARG192     -0.2864
     79  CB         2.4430   16.0170  -42.4560 C.3   192  ARG192      0.0334
     80  CG         1.2240   16.4690  -41.6350 C.3   192  ARG192      0.0492
     81  CD         0.4460   15.2680  -41.0990 C.3   192  ARG192      0.2205
     82  NE        -0.6180   15.7110  -40.2160 N.pl3 192  ARG192     -0.0865
     83  CZ        -1.8290   15.1470  -40.1230 C.cat 192  ARG192      0.5346
     84  NH1       -2.7230   15.6960  -39.3150 N.pl3 192  ARG192      0.1354
     85  NH2       -2.1680   14.0750  -40.8180 N.pl3 192  ARG192      0.1354
@<TRIPOS>BOND
     1    13    12    2
     2    32    33    2
     3    32    31    1
     4    12    11    1
     5    31    30    1
     6    31    34    1
     7    37    35    1
     8    34    35    1
     9    10    11    1
    10    11    14    1
    11    14    15    1
    12    20    17   ar
    13    20    22   ar
    14    15    17   ar
    15    15    16   ar
    16    17    19   ar
    17    22    23   ar
    18    16    18   ar
    19    35    36    1
    20    19    18   ar
    21    19    21   ar
    22    23    21   ar
    23    24    25    1
    24     8     7    2
    25     3     2    1
    26     3     4    2
    27     2     5    1
    28     2     1    1
    29    27    26    2
    30    25    26    1
    31    25    28    1
    32     5     6    1
    33    28    29    1
    34     7     9   am
    35     7     6    1
    36    47    45   ar
    37    47    48   ar
    38    38    39    1
    39    49    48    1
    40    45    43   ar
    41    48    46   ar
    42    72    71    1
    43    72    73    1
    44    39    40    1
    45    39    42    1
    46    41    40    2
    47    43    42    1
    48    43    44   ar
    49    46    44   ar
    50    73    74    2
    51    73    75   am
    52    75    76    1
    53    69    68    1
    54    70    68    1
    55    76    79    1
    56    76    77    1
    57    68    65    1
    58    60    57    1
    59    60    61    1
    60    79    80    1
    61    64    65    1
    62    64    58   am
    63    57    58    1
    64    57    56    1
    65    77    78    2
    66    55    54    1
    67    65    66    1
    68    80    81    1
    69    53    52    2
    70    58    59    2
    71    56    52   am
    72    61    63   ar
    73    61    62   ar
    74    52    51    1
    75    81    82    1
    76    67    66    2
    77    85    83    1
    78    54    51    1
    79    82    83    2
    80    51    50    1
    81    83    84    1
