@<TRIPOS>MOLECULE
tmp/5kgrA00.pdb
 103 99 0 0 0
SMALL
GASTEIGER

@<TRIPOS>ATOM
      1  N         11.1790  -52.9340    9.9810 N.3     2  ASN2       -0.1225
      2  CA         9.8430  -52.8770   10.5570 C.3     2  ASN2        0.1785
      3  C          9.4750  -51.4010   10.6460 C.2     2  ASN2        0.2597
      4  O         10.2960  -50.5290   10.3520 O.2     2  ASN2       -0.2718
      5  CB         9.7790  -53.5900   11.9170 C.3     2  ASN2        0.1169
      6  CG        10.7080  -52.9840   12.9370 C.2     2  ASN2        0.2627
      7  OD1       10.6170  -51.8000   13.2460 O.2     2  ASN2       -0.2716
      8  ND2       11.5950  -53.7990   13.4850 N.am    2  ASN2       -0.0877
      9  N          8.2260  -51.1230   11.0350 N.am    3  ILE3       -0.1966
     10  CA         7.7340  -49.7410   11.0290 C.3     3  ILE3        0.1727
     11  C          8.5730  -48.8400   11.9400 C.2     3  ILE3        0.2616
     12  O          8.7940  -47.6590   11.6320 O.2     3  ILE3       -0.2715
     13  CB         6.2290  -49.7000   11.3700 C.3     3  ILE3        0.0290
     14  CG1        5.6780  -48.2720   11.3690 C.3     3  ILE3        0.0022
     15  CG2        5.9520  -50.3440   12.7350 C.3     3  ILE3        0.0023
     16  CD1        5.8560  -47.5120   10.0400 C.3     3  ILE3        0.0001
     17  N          9.0390  -49.3610   13.0820 N.am    4  PHE4       -0.1974
     18  CA         9.8780  -48.5400   13.9530 C.3     4  PHE4        0.1639
     19  C         11.1960  -48.1780   13.2810 C.2     4  PHE4        0.2290
     20  O         11.6020  -47.0090   13.2840 O.2     4  PHE4       -0.2864
     21  CB        10.0870  -49.2210   15.3050 C.3     4  PHE4        0.0560
     22  CG         8.8680  -49.1930   16.1770 C.ar    4  PHE4       -0.0200
     23  CD1        7.9140  -50.1900   16.1040 C.ar    4  PHE4       -0.0042
     24  CD2        8.6620  -48.1400   17.0520 C.ar    4  PHE4       -0.0042
     25  CE1        6.7820  -50.1530   16.9180 C.ar    4  PHE4       -0.0003
     26  CE2        7.5370  -48.1060   17.8540 C.ar    4  PHE4       -0.0003
     27  CZ         6.5980  -49.1040   17.7770 C.ar    4  PHE4       -0.0000
     28  N          3.6730  -44.0720   17.2700 N.3    71  VAL71      -0.1245
     29  CA         3.3910  -45.1690   16.3430 C.3    71  VAL71       0.1561
     30  C          2.0550  -45.8190   16.6860 C.2    71  VAL71       0.2260
     31  O          1.2160  -46.0640   15.8070 O.2    71  VAL71      -0.2867
     32  CB         4.5530  -46.1800   16.3180 C.3    71  VAL71       0.0252
     33  CG1        4.1630  -47.4150   15.5050 C.3    71  VAL71       0.0019
     34  CG2        5.8030  -45.5270   15.7330 C.3    71  VAL71       0.0019
     35  N         -1.4330  -46.0760   14.2600 N.3    75  VAL75      -0.1245
     36  CA        -2.1900  -47.2980   14.0100 C.3    75  VAL75       0.1561
     37  C         -3.6260  -47.1460   14.4930 C.2    75  VAL75       0.2260
     38  O         -4.5810  -47.4750   13.7780 O.2    75  VAL75      -0.2867
     39  CB        -1.4970  -48.4910   14.6830 C.3    75  VAL75       0.0252
     40  CG1       -2.3890  -49.7220   14.6180 C.3    75  VAL75       0.0019
     41  CG2       -0.1600  -48.7720   14.0210 C.3    75  VAL75       0.0019
     42  N         -6.0570  -50.2180    4.9480 N.3    88  TYR88      -0.1241
     43  CA        -5.0890  -50.9070    5.7950 C.3    88  TYR88       0.1605
     44  C         -5.3650  -52.4040    5.8440 C.2    88  TYR88       0.2264
     45  O         -4.4550  -53.2170    5.6490 O.2    88  TYR88      -0.2867
     46  CB        -5.1400  -50.2990    7.1940 C.3    88  TYR88       0.0534
     47  CG        -4.0850  -50.7950    8.1520 C.ar   88  TYR88      -0.0201
     48  CD1       -4.3700  -51.7910    9.0690 C.ar   88  TYR88      -0.0009
     49  CD2       -2.8050  -50.2490    8.1530 C.ar   88  TYR88      -0.0009
     50  CE1       -3.4090  -52.2370    9.9600 C.ar   88  TYR88       0.0417
     51  CE2       -1.8400  -50.6830    9.0370 C.ar   88  TYR88       0.0417
     52  CZ        -2.1480  -51.6740    9.9410 C.ar   88  TYR88       0.1957
     53  OH        -1.1770  -52.1140   10.8220 O.3    88  TYR88      -0.2866
     54  N          1.8290  -56.6840    4.9520 N.3    93  ALA93      -0.1231
     55  CA         2.4970  -56.0900    6.1080 C.3    93  ALA93       0.1694
     56  C          3.4250  -54.9380    5.7270 C.2    93  ALA93       0.2591
     57  O          3.5020  -53.9360    6.4500 O.2    93  ALA93      -0.2718
     58  CB         3.2610  -57.1610    6.8900 C.3    93  ALA93       0.0304
     59  N          4.1540  -55.0590    4.6210 N.am   94  VAL94      -0.1980
     60  CA         5.0840  -53.9980    4.2340 C.3    94  VAL94       0.1595
     61  C          4.3290  -52.7410    3.8210 C.2    94  VAL94       0.2287
     62  O          4.6670  -51.6220    4.2340 O.2    94  VAL94      -0.2864
     63  CB         6.0360  -54.4990    3.1360 C.3    94  VAL94       0.0276
     64  CG1        6.9340  -53.3760    2.6660 C.3    94  VAL94       0.0022
     65  CG2        6.8670  -55.6580    3.6740 C.3    94  VAL94       0.0022
     66  N          1.2990  -51.9540    4.7460 N.3    96  ARG96      -0.1231
     67  CA         0.7130  -51.3970    5.9620 C.3    96  ARG96       0.1694
     68  C          1.6820  -50.4400    6.6440 C.2    96  ARG96       0.2591
     69  O          1.2720  -49.3900    7.1540 O.2    96  ARG96      -0.2718
     70  CB         0.3120  -52.5200    6.9280 C.3    96  ARG96       0.0321
     71  CG        -0.9810  -53.2220    6.5170 C.3    96  ARG96       0.0489
     72  CD        -1.3490  -54.3850    7.4460 C.3    96  ARG96       0.2205
     73  NE        -2.5990  -54.9790    6.9860 N.pl3  96  ARG96      -0.0865
     74  CZ        -3.0130  -56.2060    7.2720 C.cat  96  ARG96       0.5346
     75  NH1       -2.2740  -56.9980    8.0380 N.pl3  96  ARG96       0.1354
     76  NH2       -4.1640  -56.6450    6.7730 N.pl3  96  ARG96       0.1354
     77  N          2.9690  -50.7990    6.6890 N.am   97  ALA97      -0.1980
     78  CA         3.9630  -49.9140    7.2840 C.3    97  ALA97       0.1597
     79  C          4.0650  -48.6080    6.5120 C.2    97  ALA97       0.2287
     80  O          4.1950  -47.5350    7.1110 O.2    97  ALA97      -0.2864
     81  CB         5.3190  -50.6130    7.3390 C.3    97  ALA97       0.0319
     82  N          1.1700  -46.4890    7.6740 N.3   100  ILE100     -0.1245
     83  CA         1.4510  -45.9480    9.0010 C.3   100  ILE100      0.1561
     84  C          2.4290  -44.7880    8.9020 C.2   100  ILE100      0.2260
     85  O          2.2780  -43.7690    9.5890 O.2   100  ILE100     -0.2867
     86  CB         1.9720  -47.0570    9.9320 C.3   100  ILE100      0.0252
     87  CG1        0.9010  -48.1240   10.1370 C.3   100  ILE100      0.0019
     88  CG2        2.3910  -46.4650   11.2800 C.3   100  ILE100      0.0019
     89  CD1        1.4590  -49.4060   10.7540 C.3   100  ILE100      0.0001
     90  N         11.1190  -53.6220    1.0350 N.3   158  TRP158     -0.1241
     91  CA        11.8880  -52.6250    1.7560 C.3   158  TRP158      0.1605
     92  C         13.0540  -52.0760    0.9410 C.2   158  TRP158      0.2264
     93  O         13.9990  -51.5390    1.5260 O.2   158  TRP158     -0.2867
     94  CB        12.4080  -53.2270    3.0570 C.3   158  TRP158      0.0550
     95  CG        11.3540  -53.5980    4.0360 C.ar  158  TRP158      0.0003
     96  CD1       11.0250  -54.8550    4.4490 C.ar  158  TRP158      0.0946
     97  CD2       10.5070  -52.7020    4.7670 C.ar  158  TRP158      0.0152
     98  NE1       10.0240  -54.7990    5.3830 N.ar  158  TRP158     -0.2442
     99  CE2        9.6940  -53.4890    5.6080 C.ar  158  TRP158      0.0810
    100  CE3       10.3630  -51.3100    4.7960 C.ar  158  TRP158      0.0012
    101  CZ2        8.7410  -52.9310    6.4630 C.ar  158  TRP158      0.0191
    102  CZ3        9.4260  -50.7600    5.6530 C.ar  158  TRP158      0.0001
    103  CH2        8.6320  -51.5690    6.4800 C.ar  158  TRP158      0.0015
@<TRIPOS>BOND
     1    92    93    2
     2    92    91    1
     3    90    91    1
     4    91    94    1
     5    64    63    1
     6    94    95    1
     7    63    65    1
     8    63    60    1
     9    61    60    1
    10    61    62    2
    11    95    96   ar
    12    95    97   ar
    13    60    59    1
    14    96    98   ar
    15    59    56   am
    16    66    67    1
    17    97   100   ar
    18    97    99   ar
    19   100   102   ar
    20    42    43    1
    21    54    55    1
    22    98    99   ar
    23    99   101   ar
    24    45    44    2
    25   102   103   ar
    26    56    55    1
    27    56    57    2
    28    43    44    1
    29    43    46    1
    30    67    68    1
    31    67    70    1
    32    55    58    1
    33   101   103   ar
    34    79    80    2
    35    79    78    1
    36    71    70    1
    37    71    72    1
    38    68    77   am
    39    68    69    2
    40    77    78    1
    41    76    74    1
    42    73    74    2
    43    73    72    1
    44    46    47    1
    45    74    75    1
    46    78    81    1
    47    82    83    1
    48    47    49   ar
    49    47    48   ar
    50    49    51   ar
    51    84    83    1
    52    84    85    2
    53    83    86    1
    54    51    52   ar
    55    48    50   ar
    56    86    87    1
    57    86    88    1
    58    52    50   ar
    59    52    53    1
    60     1     2    1
    61    16    14    1
    62    87    89    1
    63     4     3    2
    64     2     3    1
    65     2     5    1
    66     3     9   am
    67    10     9    1
    68    10    13    1
    69    10    11    1
    70    14    13    1
    71    13    15    1
    72    12    11    2
    73     5     6    1
    74    11    17   am
    75     6     7    2
    76     6     8   am
    77    17    18    1
    78    19    20    2
    79    19    18    1
    80    38    37    2
    81    18    21    1
    82    36    35    1
    83    36    37    1
    84    36    39    1
    85    41    39    1
    86    40    39    1
    87    21    22    1
    88    33    32    1
    89    34    32    1
    90    31    30    2
    91    23    22   ar
    92    23    25   ar
    93    22    24   ar
    94    32    29    1
    95    29    30    1
    96    29    28    1
    97    25    27   ar
    98    24    26   ar
    99    27    26   ar
