@<TRIPOS>MOLECULE
tmp/5kgsB04.pdb
 85 83 0 0 0
SMALL
GASTEIGER

@<TRIPOS>ATOM
      1  N        -21.0700  -22.6070  -30.3040 N.3   187  ARG187     -0.1231
      2  CA       -20.4010  -23.5370  -29.4020 C.3   187  ARG187      0.1694
      3  C        -20.2280  -24.8980  -30.0640 C.2   187  ARG187      0.2592
      4  O        -19.1060  -25.4070  -30.2030 O.2   187  ARG187     -0.2718
      5  CB       -21.1830  -23.6730  -28.0930 C.3   187  ARG187      0.0321
      6  CG       -20.6090  -24.7410  -27.1610 C.3   187  ARG187      0.0489
      7  CD       -21.5850  -25.1120  -26.0460 C.3   187  ARG187      0.2205
      8  NE       -22.9180  -25.4060  -26.5710 N.pl3 187  ARG187     -0.0865
      9  CZ       -24.0250  -25.4990  -25.8340 C.cat 187  ARG187      0.5346
     10  NH1      -23.9780  -25.3230  -24.5170 N.pl3 187  ARG187      0.1354
     11  NH2      -25.1890  -25.7580  -26.4230 N.pl3 187  ARG187      0.1354
     12  N        -21.3310  -25.5020  -30.4800 N.am  188  ASP188     -0.1974
     13  CA       -21.2770  -26.8240  -31.0800 C.3   188  ASP188      0.1709
     14  C        -20.8730  -26.7110  -32.5390 C.2   188  ASP188      0.2293
     15  O        -21.1060  -25.6890  -33.1990 O.2   188  ASP188     -0.2864
     16  CB       -22.6240  -27.5320  -30.9640 C.3   188  ASP188      0.1436
     17  CG       -23.0360  -27.7640  -29.5260 C.2   188  ASP188      0.3671
     18  OD1      -22.1770  -28.1640  -28.7060 O.co2 188  ASP188     -0.2456
     19  OD2      -24.2210  -27.5260  -29.2130 O.co2 188  ASP188     -0.2456
     20  N        -10.5300  -21.3200  -29.7470 N.3   216  VAL216     -0.1245
     21  CA       -11.2750  -22.1390  -28.7890 C.3   216  VAL216      0.1561
     22  C        -12.0170  -21.3180  -27.7340 C.2   216  VAL216      0.2260
     23  O        -13.1730  -21.6230  -27.4180 O.2   216  VAL216     -0.2867
     24  CB       -10.3710  -23.1820  -28.1030 C.3   216  VAL216      0.0252
     25  CG1      -11.2050  -24.0310  -27.1580 C.3   216  VAL216      0.0019
     26  CG2       -9.6690  -24.0340  -29.1400 C.3   216  VAL216      0.0019
     27  N        -16.9530  -20.4310  -25.5410 N.3   225  PHE225     -0.1227
     28  CA       -16.1460  -21.5370  -26.0310 C.3   225  PHE225      0.1736
     29  C        -16.7060  -21.9880  -27.3720 C.2   225  PHE225      0.2595
     30  O        -17.8890  -21.7860  -27.6540 O.2   225  PHE225     -0.2718
     31  CB       -16.1450  -22.7230  -25.0540 C.3   225  PHE225      0.0547
     32  CG       -15.8910  -22.3450  -23.6120 C.ar  225  PHE225     -0.0202
     33  CD1      -16.4440  -23.1010  -22.5830 C.ar  225  PHE225     -0.0042
     34  CD2      -15.0800  -21.2630  -23.2790 C.ar  225  PHE225     -0.0042
     35  CE1      -16.2240  -22.7630  -21.2550 C.ar  225  PHE225     -0.0003
     36  CE2      -14.8470  -20.9260  -21.9430 C.ar  225  PHE225     -0.0003
     37  CZ       -15.4180  -21.6800  -20.9310 C.ar  225  PHE225     -0.0000
     38  N        -15.8550  -22.5940  -28.2040 N.am  226  HIS226     -0.1961
     39  CA       -16.3200  -23.1100  -29.4830 C.3   226  HIS226      0.1787
     40  C        -15.5130  -24.3480  -29.8570 C.2   226  HIS226      0.2620
     41  O        -14.3830  -24.5410  -29.4010 O.2   226  HIS226     -0.2715
     42  CB       -16.2560  -22.0370  -30.5860 C.3   226  HIS226      0.0785
     43  CG       -14.8740  -21.5380  -30.8770 C.ar  226  HIS226      0.0821
     44  ND1      -14.4620  -20.2610  -30.5540 N.ar  226  HIS226     -0.2267
     45  CD2      -13.8110  -22.1420  -31.4600 C.ar  226  HIS226      0.1154
     46  CE1      -13.2040  -20.1000  -30.9270 C.ar  226  HIS226      0.1986
     47  NE2      -12.7860  -21.2240  -31.4830 N.ar  226  HIS226     -0.2212
     48  N        -16.1150  -25.1920  -30.6880 N.am  227  ASP227     -0.1958
     49  CA       -15.5370  -26.5020  -30.9740 C.3   227  ASP227      0.1825
     50  C        -14.2030  -26.3430  -31.7010 C.2   227  ASP227      0.2464
     51  O        -14.1400  -25.6460  -32.7220 O.2   227  ASP227     -0.2730
     52  CB       -16.5070  -27.3230  -31.8190 C.3   227  ASP227      0.1450
     53  CG       -16.1770  -28.8020  -31.8220 C.2   227  ASP227      0.3671
     54  OD1      -17.0160  -29.5880  -31.3390 O.co2 227  ASP227     -0.2456
     55  OD2      -15.0880  -29.1770  -32.3090 O.co2 227  ASP227     -0.2456
     56  N        -13.1270  -26.9750  -31.2300 N.am  228  PRO228     -0.2727
     57  CA       -11.8160  -26.7410  -31.8610 C.3   228  PRO228      0.1402
     58  C        -11.7550  -27.1620  -33.3200 C.2   228  PRO228      0.2269
     59  O        -10.8550  -26.7000  -34.0400 O.2   228  PRO228     -0.2865
     60  CB       -10.8560  -27.5610  -30.9950 C.3   228  PRO228      0.0296
     61  CG       -11.6100  -27.8190  -29.7190 C.3   228  PRO228      0.0237
     62  CD       -13.0380  -27.9300  -30.1150 C.3   228  PRO228      0.0939
     63  N         -6.4380  -23.2560  -20.9990 N.3   257  THR257     -0.1218
     64  CA        -7.6050  -23.9870  -21.4810 C.3   257  THR257      0.1862
     65  C         -7.4430  -25.5060  -21.4380 C.2   257  THR257      0.2287
     66  O         -8.2610  -26.2160  -22.0220 O.2   257  THR257     -0.2866
     67  CB        -7.9490  -23.5670  -22.9070 C.3   257  THR257      0.1770
     68  OG1       -7.0480  -24.2010  -23.8200 O.3   257  THR257     -0.2211
     69  CG2       -7.8540  -22.0350  -23.0690 C.3   257  THR257      0.0375
     70  N         -5.6180  -27.9290  -29.1380 N.3   265  HIS265     -0.1241
     71  CA        -6.8860  -28.6550  -29.1120 C.3   265  HIS265      0.1621
     72  C         -7.3130  -29.0810  -30.5080 C.2   265  HIS265      0.2264
     73  O         -8.0560  -30.0510  -30.6490 O.2   265  HIS265     -0.2867
     74  CB        -8.0050  -27.8040  -28.4970 C.3   265  HIS265      0.0745
     75  CG        -7.8380  -27.5010  -27.0370 C.ar  265  HIS265      0.0817
     76  ND1       -7.9130  -28.4690  -26.0590 N.ar  265  HIS265     -0.2268
     77  CD2       -7.6620  -26.3250  -26.3870 C.ar  265  HIS265      0.1154
     78  CE1       -7.7690  -27.9080  -24.8710 C.ar  265  HIS265      0.1986
     79  NE2       -7.6020  -26.6080  -25.0430 N.ar  265  HIS265     -0.2212
     80  N        -13.9560  -24.6270  -19.1850 N.3   365  CYS365     -0.1235
     81  CA       -12.9980  -25.0540  -20.2030 C.3   365  CYS365      0.1677
     82  C        -11.6040  -24.8540  -19.6280 C.2   365  CYS365      0.2270
     83  O        -11.1440  -23.7150  -19.5040 O.2   365  CYS365     -0.2867
     84  CB       -13.1780  -24.2780  -21.5050 C.3   365  CYS365      0.0956
     85  SG       -12.0350  -24.8030  -22.8270 S.3   365  CYS365     -0.0801
@<TRIPOS>BOND
     1    59    58    2
     2    58    57    1
     3    15    14    2
     4    51    50    2
     5    14    13    1
     6    55    53   ar
     7    57    56    1
     8    57    60    1
     9    53    52    1
    10    53    54   ar
    11    52    49    1
    12    50    56   am
    13    50    49    1
    14    47    45   ar
    15    47    46   ar
    16    45    43   ar
    17    56    62    1
    18    13    16    1
    19    13    12    1
    20    60    61    1
    21    49    48    1
    22    16    17    1
    23    46    44   ar
    24    43    42    1
    25    43    44   ar
    26    48    40   am
    27    73    72    2
    28    42    39    1
    29    72    71    1
    30    12     3   am
    31     1     2    1
    32     4     3    2
    33    62    61    1
    34     3     2    1
    35    40    39    1
    36    40    41    2
    37    20    21    1
    38    17    19   ar
    39    17    18   ar
    40    39    38    1
    41     2     5    1
    42    26    24    1
    43    70    71    1
    44    71    74    1
    45    21    24    1
    46    21    22    1
    47    74    75    1
    48    38    29   am
    49    24    25    1
    50     5     6    1
    51    22    23    2
    52    30    29    2
    53    29    28    1
    54     6     7    1
    55    75    77   ar
    56    75    76   ar
    57     8     7    1
    58     8     9    2
    59    11     9    1
    60    77    79   ar
    61    76    78   ar
    62    28    27    1
    63    28    31    1
    64     9    10    1
    65    31    32    1
    66    79    78   ar
    67    68    67    1
    68    32    34   ar
    69    32    33   ar
    70    34    36   ar
    71    69    67    1
    72    67    64    1
    73    85    84    1
    74    33    35   ar
    75    66    65    2
    76    36    37   ar
    77    84    81    1
    78    64    65    1
    79    64    63    1
    80    35    37   ar
    81    81    82    1
    82    81    80    1
    83    82    83    2
