@<TRIPOS>MOLECULE
tmp/5kgsB03.pdb
 121 118 0 0 0
SMALL
GASTEIGER

@<TRIPOS>ATOM
      1  N         -9.1000    0.7950  -15.9140 N.3    18  PRO18      -0.2102
      2  CA        -9.4850    0.2450  -17.2280 C.3    18  PRO18       0.1504
      3  C        -10.9440    0.5320  -17.5380 C.2    18  PRO18       0.2575
      4  O        -11.8400    0.1890  -16.7600 O.2    18  PRO18      -0.2718
      5  CB        -9.2150   -1.2590  -17.0830 C.3    18  PRO18       0.0282
      6  CG        -8.1560   -1.3320  -16.0260 C.3    18  PRO18       0.0208
      7  CD        -8.5250   -0.2580  -15.0460 C.3    18  PRO18       0.0893
      8  N        -11.1720    1.1910  -18.6790 N.am   19  TYR19      -0.1977
      9  CA       -12.5240    1.4660  -19.1660 C.3    19  TYR19       0.1639
     10  C        -13.3620    2.1750  -18.0960 C.2    19  TYR19       0.2290
     11  O        -14.4930    1.7920  -17.7900 O.2    19  TYR19      -0.2864
     12  CB       -13.1840    0.1670  -19.6430 C.3    19  TYR19       0.0560
     13  CG       -12.6620   -0.3060  -20.9940 C.ar   19  TYR19      -0.0198
     14  CD1      -13.3810   -0.0570  -22.1610 C.ar   19  TYR19      -0.0009
     15  CD2      -11.4450   -0.9610  -21.1020 C.ar   19  TYR19      -0.0009
     16  CE1      -12.9160   -0.4630  -23.3950 C.ar   19  TYR19       0.0417
     17  CE2      -10.9640   -1.3800  -22.3410 C.ar   19  TYR19       0.0417
     18  CZ       -11.7110   -1.1190  -23.4820 C.ar   19  TYR19       0.1957
     19  OH       -11.2620   -1.5230  -24.7170 O.3    19  TYR19      -0.2866
     20  N         -6.5260  -10.7280  -13.8280 N.3    58  TRP58      -0.1241
     21  CA        -6.8220  -10.5840  -15.2520 C.3    58  TRP58       0.1605
     22  C         -5.9450  -11.5120  -16.1000 C.2    58  TRP58       0.2264
     23  O         -5.1800  -11.0790  -16.9750 O.2    58  TRP58      -0.2867
     24  CB        -6.6850   -9.1220  -15.6940 C.3    58  TRP58       0.0550
     25  CG        -7.5310   -8.8150  -16.8790 C.ar   58  TRP58       0.0003
     26  CD1       -7.1050   -8.4960  -18.1310 C.ar   58  TRP58       0.0946
     27  CD2       -8.9640   -8.8240  -16.9310 C.ar   58  TRP58       0.0152
     28  NE1       -8.1850   -8.2960  -18.9630 N.ar   58  TRP58      -0.2442
     29  CE2       -9.3360   -8.4940  -18.2460 C.ar   58  TRP58       0.0810
     30  CE3       -9.9650   -9.0780  -15.9910 C.ar   58  TRP58       0.0012
     31  CZ2      -10.6690   -8.4130  -18.6440 C.ar   58  TRP58       0.0191
     32  CZ3      -11.2860   -8.9970  -16.3900 C.ar   58  TRP58       0.0001
     33  CH2      -11.6240   -8.6720  -17.7010 C.ar   58  TRP58       0.0015
     34  N        -15.1070  -11.4980  -30.7470 N.3   150  GLY150     -0.1210
     35  CA       -13.7040  -11.4910  -30.3920 C.3   150  GLY150      0.1956
     36  C        -13.2360  -10.2010  -29.7040 C.2   150  GLY150      0.2611
     37  O        -13.9400   -9.1930  -29.6220 O.2   150  GLY150     -0.2717
     38  N        -12.0180  -10.2710  -29.1760 N.am  151  TYR151     -0.1976
     39  CA       -11.3560   -9.1360  -28.5520 C.3   151  TYR151      0.1639
     40  C         -9.8610   -9.2970  -28.7780 C.2   151  TYR151      0.2290
     41  O         -9.3180  -10.3750  -28.5130 O.2   151  TYR151     -0.2864
     42  CB       -11.6550   -9.0470  -27.0470 C.3   151  TYR151      0.0560
     43  CG       -10.8650   -7.9270  -26.3810 C.ar  151  TYR151     -0.0198
     44  CD1      -11.2620   -6.6050  -26.5020 C.ar  151  TYR151     -0.0009
     45  CD2       -9.6970   -8.1980  -25.6700 C.ar  151  TYR151     -0.0009
     46  CE1      -10.5270   -5.5770  -25.9230 C.ar  151  TYR151      0.0417
     47  CE2       -8.9620   -7.1840  -25.0760 C.ar  151  TYR151      0.0417
     48  CZ        -9.3820   -5.8710  -25.2130 C.ar  151  TYR151      0.1957
     49  OH        -8.6660   -4.8650  -24.6230 O.3   151  TYR151     -0.2866
     50  N         -6.7650   -2.8130  -27.4980 N.3   154  ASP154     -0.1239
     51  CA        -7.3470   -1.4710  -27.4700 C.3   154  ASP154      0.1674
     52  C         -6.6740   -0.4450  -28.3700 C.2   154  ASP154      0.2266
     53  O         -7.1810    0.6770  -28.4640 O.2   154  ASP154     -0.2867
     54  CB        -7.3220   -0.9120  -26.0430 C.3   154  ASP154      0.1410
     55  CG        -8.1820   -1.6930  -25.1080 C.2   154  ASP154      0.3668
     56  OD1       -7.8670   -1.7150  -23.9010 O.co2 154  ASP154     -0.2456
     57  OD2       -9.1690   -2.2900  -25.5880 O.co2 154  ASP154     -0.2456
     58  N        -12.1350   -6.1950  -33.0740 N.3   162  CYS162     -0.1221
     59  CA       -12.9300   -6.5700  -31.9230 C.3   162  CYS162      0.1808
     60  C        -14.4030   -6.6260  -32.3290 C.2   162  CYS162      0.2601
     61  O        -14.8090   -6.0660  -33.3460 O.2   162  CYS162     -0.2717
     62  CB       -12.7200   -5.5860  -30.7670 C.3   162  CYS162      0.0970
     63  SG       -11.0430   -5.5240  -30.0370 S.3   162  CYS162     -0.0800
     64  N        -15.1950   -7.3370  -31.5370 N.am  163  ASP163     -0.1973
     65  CA       -16.6180   -7.4370  -31.8160 C.3   163  ASP163      0.1709
     66  C        -17.2190   -6.0360  -31.9540 C.2   163  ASP163      0.2293
     67  O        -17.0150   -5.1900  -31.0680 O.2   163  ASP163     -0.2864
     68  CB       -17.3250   -8.2120  -30.7060 C.3   163  ASP163      0.1436
     69  CG       -18.8040   -8.4280  -31.0010 C.2   163  ASP163      0.3671
     70  OD1      -19.1180   -9.2350  -31.9060 O.co2 163  ASP163     -0.2456
     71  OD2      -19.6460   -7.7910  -30.3330 O.co2 163  ASP163     -0.2456
     72  N        -19.6730   -5.4810  -28.8280 N.3   166  GLY166     -0.1210
     73  CA       -18.8590   -5.4570  -27.6170 C.3   166  GLY166      0.1956
     74  C        -17.8330   -4.3360  -27.6050 C.2   166  GLY166      0.2612
     75  O        -17.6300   -3.6750  -26.5850 O.2   166  GLY166     -0.2717
     76  N        -17.1840   -4.0930  -28.7380 N.am  167  GLY167     -0.1956
     77  CA       -16.1850   -3.0440  -28.8130 C.3   167  GLY167      0.1869
     78  C        -16.6970   -1.6480  -29.0730 C.2   167  GLY167      0.2309
     79  O        -15.8920   -0.7700  -29.3880 O.2   167  GLY167     -0.2863
     80  N        -12.6170  -11.4470  -23.4710 N.3   220  ALA220     -0.1231
     81  CA       -13.3120  -10.2150  -23.0900 C.3   220  ALA220      0.1694
     82  C        -14.6050   -9.9880  -23.8640 C.2   220  ALA220      0.2592
     83  O        -15.4910   -9.2770  -23.3760 O.2   220  ALA220     -0.2718
     84  CB       -12.3880   -9.0060  -23.2920 C.3   220  ALA220      0.0304
     85  N        -14.7330  -10.5540  -25.0600 N.am  221  GLY221     -0.1957
     86  CA       -15.9440  -10.4090  -25.8480 C.3   221  GLY221      0.1869
     87  C        -17.1090  -11.3100  -25.4720 C.2   221  GLY221      0.2309
     88  O        -18.1590  -11.2330  -26.1210 O.2   221  GLY221     -0.2863
     89  N        -14.5860  -10.4200  -10.2370 N.3   394  ARG394     -0.1245
     90  CA       -14.8870   -9.2420  -11.0540 C.3   394  ARG394      0.1563
     91  C        -15.8180   -9.6370  -12.1920 C.2   394  ARG394      0.2260
     92  O        -15.3570  -10.0050  -13.2790 O.2   394  ARG394     -0.2867
     93  CB       -13.6080   -8.6090  -11.6040 C.3   394  ARG394      0.0307
     94  CG       -13.8010   -7.2420  -12.2410 C.3   394  ARG394      0.0489
     95  CD       -13.9680   -6.1950  -11.1540 C.3   394  ARG394      0.2205
     96  NE       -14.0550   -4.8360  -11.6810 N.pl3 394  ARG394     -0.0865
     97  CZ       -14.4460   -3.7890  -10.9590 C.cat 394  ARG394      0.5346
     98  NH1      -14.7960   -3.9490   -9.6820 N.pl3 394  ARG394      0.1354
     99  NH2      -14.5010   -2.5900  -11.5160 N.pl3 394  ARG394      0.1354
    100  N        -18.4090   -9.2990  -15.3940 N.3   396  PHE396     -0.1227
    101  CA       -18.4830   -8.4390  -16.5650 C.3   396  PHE396      0.1736
    102  C        -19.7580   -8.7700  -17.3280 C.2   396  PHE396      0.2595
    103  O        -20.0580   -9.9450  -17.5550 O.2   396  PHE396     -0.2718
    104  CB       -17.2430   -8.6170  -17.4480 C.3   396  PHE396      0.0547
    105  CG       -17.3270   -7.9140  -18.7650 C.ar  396  PHE396     -0.0202
    106  CD1      -17.3620   -6.5250  -18.8270 C.ar  396  PHE396     -0.0042
    107  CD2      -17.3600   -8.6410  -19.9490 C.ar  396  PHE396     -0.0042
    108  CE1      -17.4320   -5.8660  -20.0570 C.ar  396  PHE396     -0.0003
    109  CE2      -17.4330   -7.9970  -21.1780 C.ar  396  PHE396     -0.0003
    110  CZ       -17.4710   -6.6010  -21.2290 C.ar  396  PHE396     -0.0000
    111  N        -20.5140   -7.7380  -17.7020 N.am  397  ARG397     -0.1980
    112  CA       -21.8310   -7.8960  -18.3440 C.3   397  ARG397      0.1597
    113  C        -22.6330   -8.9070  -17.5200 C.2   397  ARG397      0.2287
    114  O        -22.7180   -8.7670  -16.2920 O.2   397  ARG397     -0.2864
    115  CB       -21.6370   -8.2450  -19.8150 C.3   397  ARG397      0.0334
    116  CG       -21.3180   -7.0460  -20.6490 C.3   397  ARG397      0.0492
    117  CD       -21.7640   -7.3240  -22.0560 C.3   397  ARG397      0.2205
    118  NE       -20.7650   -8.0670  -22.7920 N.pl3 397  ARG397     -0.0865
    119  CZ       -21.0220   -9.0820  -23.6040 C.cat 397  ARG397      0.5346
    120  NH1      -22.2620   -9.5240  -23.7900 N.pl3 397  ARG397      0.1354
    121  NH2      -20.0300   -9.5810  -24.3180 N.pl3 397  ARG397      0.1354
@<TRIPOS>BOND
     1    61    60    2
     2    58    59    1
     3    60    59    1
     4    60    64   am
     5    66    65    1
     6    66    67    2
     7    59    62    1
     8    70    69   ar
     9    65    64    1
    10    65    68    1
    11    69    68    1
    12    69    71   ar
    13    62    63    1
    14    34    35    1
    15    35    36    1
    16    36    37    2
    17    36    38   am
    18    79    78    2
    19    38    39    1
    20    78    77    1
    21    72    73    1
    22    77    76    1
    23    40    39    1
    24    40    41    2
    25    76    74   am
    26    39    42    1
    27    53    52    2
    28    52    51    1
    29    73    74    1
    30    74    75    2
    31    50    51    1
    32    51    54    1
    33    42    43    1
    34    44    43   ar
    35    44    46   ar
    36    43    45   ar
    37    88    87    2
    38    54    55    1
    39    46    48   ar
    40    86    87    1
    41    86    85    1
    42    45    47   ar
    43    57    55   ar
    44    48    47   ar
    45    48    49    1
    46    55    56   ar
    47    85    82   am
    48    19    18    1
    49   121   119    1
    50    82    83    2
    51    82    81    1
    52   120   119    1
    53   119   118    2
    54    18    16   ar
    55    18    17   ar
    56    80    81    1
    57    16    14   ar
    58    84    81    1
    59   118   117    1
    60    17    15   ar
    61    14    13   ar
    62   117   116    1
    63   110   109   ar
    64   110   108   ar
    65   109   107   ar
    66    15    13   ar
    67    13    12    1
    68   116   115    1
    69   108   106   ar
    70   107   105   ar
    71   115   112    1
    72    12     9    1
    73     9     8    1
    74     9    10    1
    75    28    29   ar
    76    28    26   ar
    77   106   105   ar
    78   105   104    1
    79     8     3   am
    80    31    29   ar
    81    31    33   ar
    82   112   111    1
    83   112   113    1
    84    29    27   ar
    85    26    25   ar
    86    10    11    2
    87   111   102   am
    88    33    32   ar
    89   103   102    2
    90     3     2    1
    91     3     4    2
    92   113   114    2
    93   104   101    1
    94   102   101    1
    95     2     5    1
    96     2     1    1
    97     5     6    1
    98    23    22    2
    99    27    25   ar
   100    27    30   ar
   101    25    24    1
   102   101   100    1
   103    32    30   ar
   104    22    21    1
   105     6     7    1
   106     1     7    1
   107    24    21    1
   108    21    20    1
   109    92    91    2
   110    94    93    1
   111    94    95    1
   112    91    90    1
   113    96    95    1
   114    96    97    2
   115    93    90    1
   116    99    97    1
   117    90    89    1
   118    97    98    1
