@<TRIPOS>MOLECULE
tmp/5kgtB01.pdb
 127 124 0 0 0
SMALL
GASTEIGER

@<TRIPOS>ATOM
      1  N         14.4830   -3.8930  -33.1120 N.3    18  PRO18      -0.2102
      2  CA        13.7290   -2.7130  -33.5620 C.3    18  PRO18       0.1504
      3  C         14.0010   -2.4140  -35.0290 C.2    18  PRO18       0.2575
      4  O         15.1520   -2.3410  -35.4540 O.2    18  PRO18      -0.2718
      5  CB        14.2390   -1.5920  -32.6490 C.3    18  PRO18       0.0282
      6  CG        14.7300   -2.2950  -31.4220 C.3    18  PRO18       0.0208
      7  CD        15.3240   -3.5800  -31.9400 C.3    18  PRO18       0.0893
      8  N         12.9220   -2.2730  -35.8060 N.am   19  TYR19      -0.1977
      9  CA        13.0050   -1.9130  -37.2190 C.3    19  TYR19       0.1639
     10  C         14.0640   -2.7370  -37.9500 C.2    19  TYR19       0.2290
     11  O         14.9070   -2.2040  -38.6710 O.2    19  TYR19      -0.2864
     12  CB        13.2860   -0.4140  -37.3720 C.3    19  TYR19       0.0560
     13  CG        12.0810    0.4660  -37.1360 C.ar   19  TYR19      -0.0198
     14  CD1       11.3830    1.0040  -38.2070 C.ar   19  TYR19      -0.0009
     15  CD2       11.6300    0.7450  -35.8420 C.ar   19  TYR19      -0.0009
     16  CE1       10.2720    1.8130  -38.0080 C.ar   19  TYR19       0.0417
     17  CE2       10.5120    1.5470  -35.6270 C.ar   19  TYR19       0.0417
     18  CZ         9.8440    2.0800  -36.7190 C.ar   19  TYR19       0.1957
     19  OH         8.7470    2.8840  -36.5440 O.3    19  TYR19      -0.2866
     20  N         20.4620    3.9210  -23.2010 N.3    57  SER57      -0.1202
     21  CA        19.6230    2.8090  -23.6240 C.3    57  SER57       0.2020
     22  C         18.2890    3.3260  -24.1490 C.2    57  SER57       0.2618
     23  O         17.2160    2.9820  -23.6470 O.2    57  SER57      -0.2717
     24  CB        19.4270    1.8190  -22.4760 C.3    57  SER57       0.2103
     25  OG        20.6390    1.1510  -22.1780 O.3    57  SER57      -0.2182
     26  N         18.3960    4.2250  -25.1360 N.am   58  TRP58      -0.1975
     27  CA        17.2520    4.8230  -25.8340 C.3    58  TRP58       0.1640
     28  C         16.4320    5.7230  -24.9070 C.2    58  TRP58       0.2290
     29  O         15.1990    5.6260  -24.8390 O.2    58  TRP58      -0.2864
     30  CB        16.3730    3.7510  -26.4800 C.3    58  TRP58       0.0576
     31  CG        15.6290    4.2070  -27.7080 C.ar   58  TRP58       0.0006
     32  CD1       14.2710    4.2010  -27.9040 C.ar   58  TRP58       0.0946
     33  CD2       16.2030    4.7150  -28.9130 C.ar   58  TRP58       0.0152
     34  NE1       13.9690    4.6770  -29.1550 N.ar   58  TRP58      -0.2442
     35  CE2       15.1360    5.0050  -29.7950 C.ar   58  TRP58       0.0810
     36  CE3       17.5180    4.9580  -29.3350 C.ar   58  TRP58       0.0012
     37  CZ2       15.3430    5.5240  -31.0720 C.ar   58  TRP58       0.0191
     38  CZ3       17.7210    5.4730  -30.6040 C.ar   58  TRP58       0.0001
     39  CH2       16.6400    5.7520  -31.4590 C.ar   58  TRP58       0.0015
     40  N          8.3330   14.9780  -36.6990 N.3   150  GLY150     -0.1210
     41  CA         8.0270   14.4180  -35.4000 C.3   150  GLY150      0.1956
     42  C          8.0430   12.9070  -35.3720 C.2   150  GLY150      0.2611
     43  O          8.1740   12.2240  -36.3940 O.2   150  GLY150     -0.2717
     44  N          7.9200   12.3830  -34.1590 N.am  151  TYR151     -0.1976
     45  CA         7.8270   10.9480  -33.9350 C.3   151  TYR151      0.1639
     46  C          6.9580   10.7150  -32.7080 C.2   151  TYR151      0.2290
     47  O          7.1390   11.3890  -31.6890 O.2   151  TYR151     -0.2864
     48  CB         9.2100   10.3150  -33.7360 C.3   151  TYR151      0.0560
     49  CG         9.0860    8.8490  -33.4030 C.ar  151  TYR151     -0.0198
     50  CD1        8.6800    7.9410  -34.3700 C.ar  151  TYR151     -0.0009
     51  CD2        9.3180    8.3750  -32.1140 C.ar  151  TYR151     -0.0009
     52  CE1        8.5270    6.6060  -34.0750 C.ar  151  TYR151      0.0417
     53  CE2        9.1760    7.0300  -31.8150 C.ar  151  TYR151      0.0417
     54  CZ         8.7800    6.1590  -32.8010 C.ar  151  TYR151      0.1957
     55  OH         8.6170    4.8360  -32.5320 O.3   151  TYR151     -0.2866
     56  N          4.8670    3.6300  -32.7940 N.3   154  ASP154     -0.1239
     57  CA         4.7710    2.6770  -33.8920 C.3   154  ASP154      0.1674
     58  C          3.3980    2.0400  -34.0540 C.2   154  ASP154      0.2266
     59  O          3.1740    1.3730  -35.0690 O.2   154  ASP154     -0.2867
     60  CB         5.8120    1.5540  -33.7250 C.3   154  ASP154      0.1410
     61  CG         7.2450    2.0670  -33.7850 C.2   154  ASP154      0.3668
     62  OD1        8.1340    1.4400  -33.1620 O.co2 154  ASP154     -0.2456
     63  OD2        7.4820    3.1100  -34.4430 O.co2 154  ASP154     -0.2456
     64  N          3.5220   10.6280  -37.2750 N.3   162  CYS162     -0.1221
     65  CA         4.9670   10.6260  -37.4410 C.3   162  CYS162      0.1808
     66  C          5.3510   11.3060  -38.7510 C.2   162  CYS162      0.2601
     67  O          4.5490   11.3990  -39.6880 O.2   162  CYS162     -0.2717
     68  CB         5.5180    9.2010  -37.4300 C.3   162  CYS162      0.0970
     69  SG         5.3840    8.4060  -35.8020 S.3   162  CYS162     -0.0800
     70  N          6.5980   11.7850  -38.8030 N.am  163  ASP163     -0.1973
     71  CA         7.1170   12.4180  -40.0090 C.3   163  ASP163      0.1709
     72  C          6.9250   11.4940  -41.2060 C.2   163  ASP163      0.2293
     73  O          7.3030   10.3180  -41.1360 O.2   163  ASP163     -0.2864
     74  CB         8.6000   12.7510  -39.8620 C.3   163  ASP163      0.1436
     75  CG         9.1480   13.4660  -41.0860 C.2   163  ASP163      0.3671
     76  OD1        8.8170   14.6620  -41.2660 O.co2 163  ASP163     -0.2456
     77  OD2        9.8990   12.8340  -41.8670 O.co2 163  ASP163     -0.2456
     78  N         10.4940    9.8600  -42.3600 N.3   166  GLY166     -0.1210
     79  CA        10.9730    8.9600  -41.3270 C.3   166  GLY166      0.1956
     80  C         10.0440    7.7840  -41.1200 C.2   166  GLY166      0.2612
     81  O         10.4890    6.6560  -40.9040 O.2   166  GLY166     -0.2717
     82  N          8.7450    8.0250  -41.2110 N.am  167  GLY167     -0.1956
     83  CA         7.7600    6.9790  -41.0370 C.3   167  GLY167      0.1869
     84  C          7.4320    6.1630  -42.2630 C.2   167  GLY167      0.2309
     85  O          6.5370    5.3180  -42.1870 O.2   167  GLY167     -0.2863
     86  N         13.2730   11.0230  -32.5670 N.3   220  ALA220     -0.1231
     87  CA        13.5550    9.9710  -33.5410 C.3   220  ALA220      0.1694
     88  C         13.3240   10.4250  -34.9710 C.2   220  ALA220      0.2592
     89  O         13.8590    9.8100  -35.8970 O.2   220  ALA220     -0.2718
     90  CB        12.7030    8.7250  -33.2460 C.3   220  ALA220      0.0304
     91  N         12.5500   11.4890  -35.1720 N.am  221  GLY221     -0.1957
     92  CA        12.4400   12.0810  -36.4900 C.3   221  GLY221      0.1869
     93  C         13.6070   12.9370  -36.9350 C.2   221  GLY221      0.2309
     94  O         13.5680   13.4420  -38.0600 O.2   221  GLY221     -0.2863
     95  N         25.0590    4.6990  -31.1320 N.3   394  ARG394     -0.1245
     96  CA        24.1360    4.1600  -32.1280 C.3   394  ARG394      0.1563
     97  C         23.6940    5.3070  -33.0240 C.2   394  ARG394      0.2260
     98  O         22.6320    5.9040  -32.8280 O.2   394  ARG394     -0.2867
     99  CB        22.9550    3.4620  -31.4490 C.3   394  ARG394      0.0307
    100  CG        21.8510    2.9930  -32.3690 C.3   394  ARG394      0.0489
    101  CD        21.9320    1.5060  -32.6640 C.3   394  ARG394      0.2205
    102  NE        20.6380    1.0310  -33.1360 N.pl3 394  ARG394     -0.0865
    103  CZ        20.4630   -0.0210  -33.9270 C.cat 394  ARG394      0.5346
    104  NH1       21.5160   -0.7190  -34.3490 N.pl3 394  ARG394      0.1354
    105  NH2       19.2330   -0.3710  -34.2960 N.pl3 394  ARG394      0.1354
    106  N         22.1710    7.0430  -36.4170 N.3   396  PHE396     -0.1227
    107  CA        21.2460    6.6510  -37.4720 C.3   396  PHE396      0.1736
    108  C         21.1380    7.7950  -38.4700 C.2   396  PHE396      0.2595
    109  O         21.2980    8.9650  -38.1140 O.2   396  PHE396     -0.2718
    110  CB        19.8680    6.2450  -36.9210 C.3   396  PHE396      0.0547
    111  CG        18.9840    7.3970  -36.5200 C.ar  396  PHE396     -0.0202
    112  CD1       17.7280    7.5490  -37.0880 C.ar  396  PHE396     -0.0042
    113  CD2       19.3900    8.3120  -35.5610 C.ar  396  PHE396     -0.0042
    114  CE1       16.8960    8.6030  -36.7060 C.ar  396  PHE396     -0.0003
    115  CE2       18.5640    9.3670  -35.1710 C.ar  396  PHE396     -0.0003
    116  CZ        17.3220    9.5160  -35.7410 C.ar  396  PHE396     -0.0000
    117  N         20.8790    7.4330  -39.7270 N.am  397  ARG397     -0.1980
    118  CA        20.8640    8.3620  -40.8620 C.3   397  ARG397      0.1597
    119  C         22.1650    9.1620  -40.7910 C.2   397  ARG397      0.2287
    120  O         23.2400    8.5500  -40.7170 O.2   397  ARG397     -0.2864
    121  CB        19.5580    9.1700  -40.8590 C.3   397  ARG397      0.0334
    122  CG        18.2870    8.2800  -40.7820 C.3   397  ARG397      0.0492
    123  CD        17.0020    8.9720  -41.2640 C.3   397  ARG397      0.2205
    124  NE        16.7210   10.1960  -40.5130 N.pl3 397  ARG397     -0.0865
    125  CZ        15.8190   10.3130  -39.5420 C.cat 397  ARG397      0.5346
    126  NH1       15.0620    9.2830  -39.1820 N.pl3 397  ARG397      0.1354
    127  NH2       15.6680   11.4800  -38.9340 N.pl3 397  ARG397      0.1354
@<TRIPOS>BOND
     1    78    79    1
     2    84    85    2
     3    84    83    1
     4    77    75   ar
     5    79    80    1
     6    76    75   ar
     7   123   122    1
     8   123   124    1
     9    82    80   am
    10    82    83    1
    11    72    73    2
    12    72    71    1
    13    80    81    2
    14    75    74    1
    15   118   121    1
    16   118   119    1
    17   118   117    1
    18   121   122    1
    19   119   120    2
    20   124   125    2
    21    71    74    1
    22    71    70    1
    23   117   108   am
    24    67    66    2
    25   125   126    1
    26   125   127    1
    27    70    66   am
    28    66    65    1
    29    11    10    2
    30   108   109    2
    31   108   107    1
    32    14    16   ar
    33    14    13   ar
    34    94    93    2
    35    16    18   ar
    36    10     9    1
    37   107   110    1
    38   107   106    1
    39    65    68    1
    40    65    64    1
    41    68    69    1
    42    12     9    1
    43    12    13    1
    44     9     8    1
    45    13    15   ar
    46   112   114   ar
    47   112   111   ar
    48    93    92    1
    49   110   111    1
    50    18    19    1
    51    18    17   ar
    52   114   116   ar
    53    40    41    1
    54   111   113   ar
    55    92    91    1
    56    43    42    2
    57    89    88    2
    58    15    17   ar
    59     8     3   am
    60   116   115   ar
    61   113   115   ar
    62     4     3    2
    63    41    42    1
    64    42    44   am
    65    91    88   am
    66    59    58    2
    67     3     2    1
    68    88    87    1
    69    63    61   ar
    70    50    52   ar
    71    50    49   ar
    72   104   103    1
    73   105   103    1
    74    44    45    1
    75    52    54   ar
    76    58    57    1
    77    45    48    1
    78    45    46    1
    79   103   102    2
    80    57    60    1
    81    57    56    1
    82    61    60    1
    83    61    62   ar
    84    48    49    1
    85     2     1    1
    86     2     5    1
    87    87    90    1
    88    87    86    1
    89    49    51   ar
    90   102   101    1
    91     1     7    1
    92    97    98    2
    93    97    96    1
    94    54    55    1
    95    54    53   ar
    96    46    47    2
    97   101   100    1
    98     5     6    1
    99   100    99    1
   100    96    99    1
   101    96    95    1
   102    51    53   ar
   103     7     6    1
   104    39    37   ar
   105    39    38   ar
   106    37    35   ar
   107    38    36   ar
   108    35    34   ar
   109    35    33   ar
   110    36    33   ar
   111    34    32   ar
   112    33    31   ar
   113    32    31   ar
   114    31    30    1
   115    30    27    1
   116    27    26    1
   117    27    28    1
   118    26    22   am
   119    28    29    2
   120    22    23    2
   121    22    21    1
   122    21    20    1
   123    21    24    1
   124    24    25    1
