@<TRIPOS>MOLECULE
tmp/5kh4B00.pdb
 216 205 0 0 0
SMALL
GASTEIGER

@<TRIPOS>ATOM
      1  N         -3.8850  -13.8570  155.4520 N.3    13  MET13      -0.1230
      2  CA        -4.4160  -13.9390  156.8170 C.3    13  MET13       0.1702
      3  C         -4.6970  -12.5680  157.4170 C.2    13  MET13       0.2592
      4  O         -3.8130  -11.9410  158.0070 O.2    13  MET13      -0.2718
      5  CB        -3.3960  -14.6590  157.6680 C.3    13  MET13       0.0401
      6  CG        -3.1070  -15.9760  157.0990 C.3    13  MET13       0.0596
      7  SD        -1.9460  -16.8510  158.1080 S.3    13  MET13      -0.1393
      8  CE        -1.9460  -18.3870  157.1860 C.3    13  MET13       0.0692
      9  N         -5.9400  -12.0980  157.3070 N.am   14  ASP14      -0.1960
     10  CA        -6.2900  -10.7850  157.8320 C.3    14  ASP14       0.1840
     11  C         -7.3170  -10.9320  158.9370 C.2    14  ASP14       0.2623
     12  O         -8.1110  -11.8790  158.9540 O.2    14  ASP14      -0.2715
     13  CB        -6.8470   -9.8640  156.7540 C.3    14  ASP14       0.1450
     14  CG        -5.7730   -9.1080  156.0530 C.2    14  ASP14       0.3671
     15  OD1       -5.0010   -8.4110  156.7560 O.co2  14  ASP14      -0.2456
     16  OD2       -5.7020   -9.2170  154.8120 O.co2  14  ASP14      -0.2456
     17  N         -7.2710   -9.9830  159.8700 N.am   15  GLY15      -0.1940
     18  CA        -8.2400   -9.8860  160.9360 C.3    15  GLY15       0.2014
     19  C         -7.7020  -10.3080  162.2950 C.2    15  GLY15       0.2639
     20  O         -8.4800  -10.3840  163.2540 O.2    15  GLY15      -0.2714
     21  N         -6.4010  -10.5810  162.4260 N.am   16  ASN16      -0.1958
     22  CA        -5.9110  -10.9790  163.7320 C.3    16  ASN16       0.1819
     23  C         -6.1360   -9.8730  164.7480 C.2    16  ASN16       0.2622
     24  O         -6.6640  -10.1170  165.8360 O.2    16  ASN16      -0.2715
     25  CB        -4.4290  -11.3210  163.6130 C.3    16  ASN16       0.1195
     26  CG        -4.1960  -12.6230  162.8800 C.2    16  ASN16       0.2630
     27  OD1       -5.1330  -13.3710  162.6340 O.2    16  ASN16      -0.2716
     28  ND2       -2.9520  -12.8900  162.5060 N.am   16  ASN16      -0.0877
     29  N         -5.7920   -8.6370  164.3860 N.am   17  GLY17      -0.1940
     30  CA        -6.0390   -7.5070  165.2710 C.3    17  GLY17       0.2014
     31  C         -7.5120   -7.2230  165.5220 C.2    17  GLY17       0.2638
     32  O         -7.9440   -7.0760  166.6650 O.2    17  GLY17      -0.2714
     33  N         -8.3120   -7.1600  164.4540 N.am   18  ARG18      -0.1977
     34  CA        -9.7480   -6.9720  164.6330 C.3    18  ARG18       0.1597
     35  C        -10.3300   -8.0690  165.4920 C.2    18  ARG18       0.2287
     36  O        -11.1390   -7.8000  166.3850 O.2    18  ARG18      -0.2864
     37  CB       -10.4680   -6.9440  163.2840 C.3    18  ARG18       0.0334
     38  CG       -10.1950   -5.6770  162.5010 C.3    18  ARG18       0.0492
     39  CD       -11.0580   -5.4440  161.3740 C.3    18  ARG18       0.2205
     40  NE       -11.7820   -5.9730  160.2860 N.pl3  18  ARG18      -0.0865
     41  CZ       -13.0090   -6.5100  160.1470 C.cat  18  ARG18       0.5346
     42  NH1      -13.8570   -6.6920  161.1740 N.pl3  18  ARG18       0.1354
     43  NH2      -13.4360   -6.8730  158.9220 N.pl3  18  ARG18       0.1354
     44  N         -3.9530   -6.9490  170.9750 N.3    27  ARG27      -0.1245
     45  CA        -3.8520   -7.1130  169.5250 C.3    27  ARG27       0.1563
     46  C         -3.0230   -8.3400  169.1690 C.2    27  ARG27       0.2260
     47  O         -3.4690   -9.2240  168.4280 O.2    27  ARG27      -0.2867
     48  CB        -3.2620   -5.8420  168.9170 C.3    27  ARG27       0.0307
     49  CG        -3.0700   -5.8330  167.4180 C.3    27  ARG27       0.0489
     50  CD        -2.5880   -4.4490  166.9930 C.3    27  ARG27       0.2205
     51  NE        -3.5920   -3.4560  167.3750 N.pl3  27  ARG27      -0.0865
     52  CZ        -4.6610   -3.1450  166.6340 C.cat  27  ARG27       0.5346
     53  NH1       -4.8630   -3.7420  165.4540 N.pl3  27  ARG27       0.1354
     54  NH2       -5.5290   -2.2330  167.0720 N.pl3  27  ARG27       0.1354
     55  N         -2.8120  -12.6480  166.8180 N.3    31  HIS31      -0.1241
     56  CA        -1.9280  -13.3150  165.8890 C.3    31  HIS31       0.1621
     57  C         -1.6340  -14.7460  166.3200 C.2    31  HIS31       0.2264
     58  O         -1.4710  -15.6130  165.4580 O.2    31  HIS31      -0.2867
     59  CB        -0.6160  -12.5590  165.8380 C.3    31  HIS31       0.0745
     60  CG        -0.7110  -11.2660  165.1130 C.ar   31  HIS31       0.0817
     61  ND1        0.1170  -10.9250  164.0680 N.ar   31  HIS31      -0.2268
     62  CD2       -1.5100  -10.1950  165.3260 C.ar   31  HIS31       0.1154
     63  CE1       -0.1860   -9.7080  163.6450 C.ar   31  HIS31       0.1986
     64  NE2       -1.1680   -9.2400  164.3960 N.ar   31  HIS31      -0.2212
     65  N         -4.5630  -16.6300  165.1170 N.3    34  GLY34      -0.1210
     66  CA        -4.4200  -16.8680  163.6990 C.3    34  GLY34       0.1956
     67  C         -3.5640  -18.0880  163.4460 C.2    34  GLY34       0.2611
     68  O         -3.9110  -18.9390  162.6270 O.2    34  GLY34      -0.2717
     69  N         -2.4980  -18.2480  164.2250 N.am   35  MET35      -0.1979
     70  CA        -1.6860  -19.4480  164.0950 C.3    35  MET35       0.1605
     71  C         -2.4790  -20.6760  164.4970 C.2    35  MET35       0.2287
     72  O         -2.3340  -21.7400  163.8910 O.2    35  MET35      -0.2864
     73  CB        -0.4300  -19.3290  164.9440 C.3    35  MET35       0.0413
     74  CG         0.3520  -20.6150  165.0660 C.3    35  MET35       0.0598
     75  SD         1.7350  -20.4780  166.2230 S.3    35  MET35      -0.1393
     76  CE         0.8150  -20.1590  167.7310 C.3    35  MET35       0.0692
     77  N         -4.5360  -21.4940  161.5560 N.3    38  LEU38      -0.1245
     78  CA        -3.7210  -22.1400  160.5300 C.3    38  LEU38       0.1561
     79  C         -3.5880  -23.6320  160.7610 C.2    38  LEU38       0.2260
     80  O         -3.6070  -24.4110  159.8010 O.2    38  LEU38      -0.2867
     81  CB        -2.3320  -21.5120  160.4950 C.3    38  LEU38       0.0270
     82  CG        -1.3410  -22.0390  159.4480 C.3    38  LEU38       0.0019
     83  CD1       -1.8680  -21.9560  158.0340 C.3    38  LEU38       0.0001
     84  CD2        0.0080  -21.3380  159.5660 C.3    38  LEU38       0.0001
     85  N          0.3670  -16.1040  153.6370 N.3    56  TYR56      -0.1227
     86  CA         1.2740  -14.9720  153.6460 C.3    56  TYR56       0.1736
     87  C          1.3810  -14.7030  155.1410 C.2    56  TYR56       0.2595
     88  O          0.4290  -14.2020  155.7480 O.2    56  TYR56      -0.2718
     89  CB         0.6440  -13.8420  152.8400 C.3    56  TYR56       0.0548
     90  CG         1.4850  -12.6490  152.4910 C.ar   56  TYR56      -0.0200
     91  CD1        2.8450  -12.6210  152.7340 C.ar   56  TYR56      -0.0009
     92  CD2        0.9350  -11.6240  151.7300 C.ar   56  TYR56      -0.0009
     93  CE1        3.6120  -11.5490  152.3170 C.ar   56  TYR56       0.0417
     94  CE2        1.6810  -10.5550  151.3170 C.ar   56  TYR56       0.0417
     95  CZ         3.0140  -10.5170  151.6080 C.ar   56  TYR56       0.1957
     96  OH         3.7400   -9.4360  151.1740 O.3    56  TYR56      -0.2866
     97  N          2.5760  -14.9320  155.7000 N.am   57  ALA57      -0.1966
     98  CA         2.9250  -14.7420  157.1090 C.3    57  ALA57       0.1728
     99  C          3.4290  -13.3560  157.4820 C.2    57  ALA57       0.2616
    100  O          2.8450  -12.6780  158.3310 O.2    57  ALA57      -0.2715
    101  CB         3.9540  -15.8000  157.5110 C.3    57  ALA57       0.0334
    102  N          4.5870  -12.9800  156.9610 N.am   58  PHE58      -0.1974
    103  CA         5.1790  -11.6980  157.3280 C.3    58  PHE58       0.1639
    104  C          5.6640  -11.0400  156.0270 C.2    58  PHE58       0.2290
    105  O          6.7140  -11.4160  155.4840 O.2    58  PHE58      -0.2864
    106  CB         6.2990  -11.8910  158.3470 C.3    58  PHE58       0.0560
    107  CG         6.7590  -10.6110  158.9860 C.ar   58  PHE58      -0.0200
    108  CD1        6.0180  -10.0460  160.0140 C.ar   58  PHE58      -0.0042
    109  CD2        7.8740   -9.9290  158.5240 C.ar   58  PHE58      -0.0042
    110  CE1        6.4060   -8.8620  160.6060 C.ar   58  PHE58      -0.0003
    111  CE2        8.2610   -8.7350  159.1140 C.ar   58  PHE58      -0.0003
    112  CZ         7.5260   -8.2080  160.1560 C.ar   58  PHE58      -0.0000
    113  N          5.7220   -5.2890  156.5670 N.3    62  ASN62      -0.1240
    114  CA         5.3260   -5.4620  157.9750 C.3    62  ASN62       0.1653
    115  C          6.3520   -4.9900  159.0150 C.2    62  ASN62       0.2266
    116  O          5.9630   -4.7490  160.1670 O.2    62  ASN62      -0.2867
    117  CB         4.9750   -6.9280  158.2200 C.3    62  ASN62       0.1155
    118  CG         3.5460   -7.2470  157.8190 C.2    62  ASN62       0.2627
    119  OD1        2.6860   -6.3610  157.8400 O.2    62  ASN62      -0.2716
    120  ND2        3.2900   -8.4890  157.4000 N.am   62  ASN62      -0.0877
    121  N          5.6810   -1.9890  161.6190 N.3    65  ARG65      -0.1245
    122  CA         4.8850   -2.1770  162.8360 C.3    65  ARG65       0.1563
    123  C          5.7290   -2.0290  164.1000 C.2    65  ARG65       0.2260
    124  O          6.9670   -2.1690  164.0620 O.2    65  ARG65      -0.2867
    125  CB         4.1970   -3.5420  162.8140 C.3    65  ARG65       0.0307
    126  CG         3.0250   -3.5880  161.8630 C.3    65  ARG65       0.0489
    127  CD         2.5070   -4.9890  161.6170 C.3    65  ARG65       0.2205
    128  NE         1.1050   -4.9380  161.2030 N.pl3  65  ARG65      -0.0865
    129  CZ         0.3880   -5.9830  160.7950 C.cat  65  ARG65       0.5346
    130  NH1        0.9280   -7.1960  160.7260 N.pl3  65  ARG65       0.1354
    131  NH2       -0.8780   -5.8040  160.4490 N.pl3  65  ARG65       0.1354
    132  N          5.0730   -5.8380  168.4280 N.3    69  GLU69      -0.1245
    133  CA         4.2850   -6.6940  167.5440 C.3    69  GLU69       0.1567
    134  C          5.1810   -7.5630  166.6730 C.2    69  GLU69       0.2260
    135  O          4.8990   -8.7480  166.4830 O.2    69  GLU69      -0.2867
    136  CB         3.3610   -5.8240  166.6860 C.3    69  GLU69       0.0388
    137  CG         2.2160   -6.5310  165.9480 C.3    69  GLU69       0.1160
    138  CD         1.0990   -5.5610  165.5740 C.2    69  GLU69       0.3649
    139  OE1       -0.0170   -5.6600  166.1330 O.co2  69  GLU69      -0.2457
    140  OE2        1.3560   -4.6640  164.7540 O.co2  69  GLU69      -0.2457
    141  N          5.2140  -11.5560  166.7260 N.3    73  ILE73      -0.1245
    142  CA         4.9810  -12.4030  165.5580 C.3    73  ILE73       0.1561
    143  C          6.1740  -13.3160  165.3500 C.2    73  ILE73       0.2260
    144  O          6.0350  -14.5340  165.2150 O.2    73  ILE73      -0.2867
    145  CB         4.7030  -11.5610  164.3030 C.3    73  ILE73       0.0252
    146  CG1        3.5370  -10.6110  164.5300 C.3    73  ILE73       0.0019
    147  CG2        4.3680  -12.4590  163.1530 C.3    73  ILE73       0.0019
    148  CD1        3.2790   -9.6850  163.3480 C.3    73  ILE73       0.0001
    149  N          6.3260  -16.4210  167.1670 N.3    76  LEU76      -0.1231
    150  CA         5.3000  -17.3990  166.7900 C.3    76  LEU76       0.1678
    151  C          5.9490  -18.6520  166.2060 C.2    76  LEU76       0.2434
    152  O          5.5550  -19.7600  166.6020 O.2    76  LEU76      -0.2733
    153  CB         4.1960  -16.7770  165.9240 C.3    76  LEU76       0.0284
    154  CG         3.2300  -16.0080  166.8320 C.3    76  LEU76       0.0019
    155  CD1        2.2760  -15.1610  166.0410 C.3    76  LEU76       0.0001
    156  CD2        2.4740  -16.9820  167.6890 C.3    76  LEU76       0.0001
    157  N          6.8590  -18.5720  165.2320 N.am   77  PRO77      -0.2729
    158  CA         7.3960  -19.8000  164.6260 C.3    77  PRO77       0.1401
    159  C          8.1860  -20.6520  165.6330 C.2    77  PRO77       0.2269
    160  O          8.4550  -21.8250  165.3390 O.2    77  PRO77      -0.2865
    161  CB         8.2800  -19.2770  163.4830 C.3    77  PRO77       0.0296
    162  CG         7.9880  -17.8040  163.3960 C.3    77  PRO77       0.0237
    163  CD         7.5850  -17.3940  164.7440 C.3    77  PRO77       0.0939
    164  N          5.5240  -22.6950  167.2880 N.3    80  PHE80      -0.1241
    165  CA         4.9900  -23.6270  166.2900 C.3    80  PHE80       0.1605
    166  C          5.8910  -24.8390  166.1340 C.2    80  PHE80       0.2264
    167  O          5.3920  -25.9650  166.0270 O.2    80  PHE80      -0.2867
    168  CB         4.9230  -22.9270  164.9090 C.3    80  PHE80       0.0534
    169  CG         3.9210  -23.5180  163.9120 C.ar   80  PHE80      -0.0203
    170  CD1        2.5370  -23.4570  164.0940 C.ar   80  PHE80      -0.0042
    171  CD2        4.4050  -24.1690  162.7690 C.ar   80  PHE80      -0.0042
    172  CE1        1.6630  -24.0160  163.1320 C.ar   80  PHE80      -0.0003
    173  CE2        3.5480  -24.7330  161.8380 C.ar   80  PHE80      -0.0003
    174  CZ         2.1830  -24.6570  162.0160 C.ar   80  PHE80      -0.0000
    175  N         12.1320  -22.3370  161.9730 N.3   112  LEU112     -0.1245
    176  CA        11.6330  -22.6370  160.6400 C.3   112  LEU112      0.1561
    177  C         12.4650  -23.7180  159.9610 C.2   112  LEU112      0.2260
    178  O         11.9160  -24.6550  159.3750 O.2   112  LEU112     -0.2867
    179  CB        11.6180  -21.3420  159.8400 C.3   112  LEU112      0.0270
    180  CG        10.3910  -20.5060  160.2270 C.3   112  LEU112      0.0019
    181  CD1       10.5580  -19.0680  159.7740 C.3   112  LEU112      0.0001
    182  CD2        9.1030  -21.1020  159.6620 C.3   112  LEU112      0.0001
    183  N          5.2590  -21.4480  154.0720 N.3   129  PHE129     -0.1241
    184  CA         5.2580  -20.1810  154.8080 C.3   129  PHE129      0.1605
    185  C          5.9330  -19.0810  154.0040 C.2   129  PHE129      0.2264
    186  O          7.1460  -19.1330  153.7710 O.2   129  PHE129     -0.2867
    187  CB         5.9740  -20.3470  156.1390 C.3   129  PHE129      0.0534
    188  CG         5.0890  -20.8400  157.2140 C.ar  129  PHE129     -0.0203
    189  CD1        4.2290  -19.9950  157.8680 C.ar  129  PHE129     -0.0042
    190  CD2        5.1100  -22.1860  157.5670 C.ar  129  PHE129     -0.0042
    191  CE1        3.3910  -20.4810  158.8710 C.ar  129  PHE129     -0.0003
    192  CE2        4.2890  -22.6770  158.5500 C.ar  129  PHE129     -0.0003
    193  CZ         3.4270  -21.8210  159.2130 C.ar  129  PHE129     -0.0000
    194  N          7.4570  -15.7770  154.5180 N.3   131  LEU131     -0.1245
    195  CA         7.9570  -14.9200  155.5840 C.3   131  LEU131      0.1561
    196  C          9.0180  -14.0010  155.0300 C.2   131  LEU131      0.2260
    197  O          9.9160  -14.4360  154.3060 O.2   131  LEU131     -0.2867
    198  CB         8.5910  -15.7410  156.6820 C.3   131  LEU131      0.0270
    199  CG         7.6390  -16.5840  157.5040 C.3   131  LEU131      0.0019
    200  CD1        8.4520  -17.6820  158.0890 C.3   131  LEU131      0.0001
    201  CD2        6.9980  -15.7610  158.5900 C.3   131  LEU131      0.0001
    202  N        -11.4330  -11.2250  155.9920 N.3   188  SER188     -0.1217
    203  CA       -11.6870   -9.9370  156.6440 C.3   188  SER188      0.1889
    204  C        -12.1660   -8.8760  155.6730 C.2   188  SER188      0.2288
    205  O        -12.1070   -7.6870  155.9920 O.2   188  SER188     -0.2866
    206  CB       -10.4800   -9.4050  157.4150 C.3   188  SER188      0.2089
    207  OG        -9.5130   -8.8960  156.5190 O.3   188  SER188     -0.2183
    208  N        -10.9940   -7.5960  152.8690 N.3   190  GLU190     -0.1245
    209  CA       -10.1250   -6.7010  152.1220 C.3   190  GLU190      0.1567
    210  C        -10.0100   -7.1840  150.6800 C.2   190  GLU190      0.2260
    211  O         -9.6170   -8.3220  150.4140 O.2   190  GLU190     -0.2867
    212  CB        -8.7300   -6.7040  152.7570 C.3   190  GLU190      0.0388
    213  CG        -8.6120   -6.1690  154.1750 C.3   190  GLU190      0.1160
    214  CD        -8.9970   -4.7020  154.2700 C.2   190  GLU190      0.3649
    215  OE1      -10.0250   -4.3880  154.9250 O.co2 190  GLU190     -0.2457
    216  OE2       -8.2790   -3.8720  153.6620 O.co2 190  GLU190     -0.2457
@<TRIPOS>BOND
     1   211   210    2
     2   210   209    1
     3    96    95    1
     4    94    95   ar
     5    94    92   ar
     6    95    93   ar
     7    92    90   ar
     8   209   212    1
     9   209   208    1
    10    93    91   ar
    11    90    91   ar
    12    90    89    1
    13   212   213    1
    14    89    86    1
    15    85    86    1
    16    86    87    1
    17   216   214   ar
    18   186   185    2
    19   185   184    1
    20   183   184    1
    21   213   214    1
    22   214   215   ar
    23   197   196    2
    24   194   195    1
    25   184   187    1
    26    16    14   ar
    27   196   195    1
    28    87    97   am
    29    87    88    2
    30     1     2    1
    31   105   104    2
    32   195   198    1
    33   204   205    2
    34   204   203    1
    35    97    98    1
    36   202   203    1
    37   104   103    1
    38    14    13    1
    39    14    15   ar
    40   187   188    1
    41   207   206    1
    42   113   114    1
    43   203   206    1
    44   198   199    1
    45    13    10    1
    46     2     3    1
    47     2     5    1
    48   102   103    1
    49   102    99   am
    50     6     5    1
    51     6     7    1
    52    98    99    1
    53    98   101    1
    54     8     7    1
    55   188   190   ar
    56   188   189   ar
    57     9     3   am
    58     9    10    1
    59   103   106    1
    60   120   118   am
    61     3     4    2
    62    99   100    2
    63   199   200    1
    64   199   201    1
    65   190   192   ar
    66   118   119    2
    67   118   117    1
    68    10    11    1
    69   189   191   ar
    70   114   117    1
    71   114   115    1
    72    83    82    1
    73   106   107    1
    74   109   107   ar
    75   109   111   ar
    76   192   193   ar
    77   191   193   ar
    78    43    41    1
    79    11    12    2
    80    11    17   am
    81   107   108   ar
    82   115   116    2
    83   111   112   ar
    84   178   177    2
    85    82    84    1
    86    82    81    1
    87   182   180    1
    88   181   180    1
    89    80    79    2
    90   179   180    1
    91   179   176    1
    92    17    18    1
    93   177   176    1
    94   108   110   ar
    95    41    40    2
    96    41    42    1
    97   112   110   ar
    98    40    39    1
    99   131   129    1
   100    81    78    1
   101    78    79    1
   102    78    77    1
   103   176   175    1
   104   130   129    1
   105   129   128    2
   106    18    19    1
   107   128   127    1
   108    39    38    1
   109   127   126    1
   110   121   122    1
   111   173   174   ar
   112   173   171   ar
   113   126   125    1
   114   174   172   ar
   115    19    21   am
   116    19    20    2
   117    21    22    1
   118    38    37    1
   119    28    26   am
   120    68    67    2
   121    27    26    2
   122   171   169   ar
   123   125   122    1
   124   122   123    1
   125    26    25    1
   126   172   170   ar
   127   147   145    1
   128    37    34    1
   129   148   146    1
   130   162   161    1
   131   162   163    1
   132    67    66    1
   133    67    69   am
   134   161   158    1
   135    25    22    1
   136    63    61   ar
   137    63    64   ar
   138    66    65    1
   139    22    23    1
   140    72    71    2
   141   169   170   ar
   142   169   168    1
   143   124   123    2
   144    61    60   ar
   145    70    69    1
   146    70    71    1
   147    70    73    1
   148   145   146    1
   149   145   142    1
   150    29    23   am
   151    29    30    1
   152    64    62   ar
   153    33    34    1
   154    33    31   am
   155   158   157    1
   156   158   159    1
   157    34    35    1
   158   163   157    1
   159    23    24    2
   160   140   138   ar
   161   168   165    1
   162    73    74    1
   163    74    75    1
   164    60    62   ar
   165    60    59    1
   166   144   143    2
   167   157   151   am
   168    30    31    1
   169   160   159    2
   170   143   142    1
   171    53    52    1
   172    58    57    2
   173    35    36    2
   174    31    32    2
   175   142   141    1
   176   138   137    1
   177   138   139   ar
   178    59    56    1
   179    56    57    1
   180    56    55    1
   181   153   150    1
   182   153   154    1
   183   137   136    1
   184   167   166    2
   185   155   154    1
   186   166   165    1
   187   151   152    2
   188   151   150    1
   189    75    76    1
   190   165   164    1
   191   135   134    2
   192    52    54    1
   193    52    51    2
   194   134   133    1
   195   136   133    1
   196   150   149    1
   197   154   156    1
   198    50    51    1
   199    50    49    1
   200    49    48    1
   201   133   132    1
   202    47    46    2
   203    48    45    1
   204    46    45    1
   205    45    44    1
