@<TRIPOS>MOLECULE
tmp/5kh5B00.pdb
 200 188 0 0 0
SMALL
GASTEIGER

@<TRIPOS>ATOM
      1  N         -0.3320    2.7750  -13.5060 N.3    11  MET11      -0.1245
      2  CA         0.7200    2.7660  -12.5070 C.3    11  MET11       0.1570
      3  C          0.4380    1.6530  -11.5150 C.2    11  MET11       0.2261
      4  O         -0.5630    1.6830  -10.8050 O.2    11  MET11      -0.2867
      5  CB         0.7790    4.1260  -11.8070 C.3    11  MET11       0.0387
      6  CG         0.9890    5.2910  -12.7770 C.3    11  MET11       0.0595
      7  SD         0.8810    6.9240  -12.0230 S.3    11  MET11      -0.1393
      8  CE        -0.7550    6.8450  -11.2800 C.3    11  MET11       0.0692
      9  N          3.5430   -0.4410   -6.6890 N.3    14  ASN14      -0.1240
     10  CA         4.0350    0.3460   -5.5520 C.3    14  ASN14       0.1653
     11  C          4.2260   -0.5050   -4.3080 C.2    14  ASN14       0.2266
     12  O          5.2560   -0.4140   -3.6410 O.2    14  ASN14      -0.2867
     13  CB         3.0770    1.4970   -5.2260 C.3    14  ASN14       0.1155
     14  CG         3.1130    2.6000   -6.2590 C.2    14  ASN14       0.2627
     15  OD1        3.9100    2.5700   -7.1970 O.2    14  ASN14      -0.2716
     16  ND2        2.2480    3.5890   -6.0880 N.am   14  ASN14      -0.0877
     17  N          4.0360    4.2400   -2.3690 N.3    29  HIS29      -0.1241
     18  CA         3.2210    5.2390   -3.0510 C.3    29  HIS29       0.1621
     19  C          3.9620    6.5650   -3.1770 C.2    29  HIS29       0.2264
     20  O          3.7340    7.3210   -4.1200 O.2    29  HIS29      -0.2867
     21  CB         1.8980    5.4410   -2.3110 C.3    29  HIS29       0.0745
     22  CG         1.0340    4.2210   -2.2890 C.ar   29  HIS29       0.0817
     23  ND1        0.5080    3.6630   -3.4350 N.ar   29  HIS29      -0.2268
     24  CD2        0.6090    3.4460   -1.2630 C.ar   29  HIS29       0.1154
     25  CE1       -0.2080    2.6000   -3.1150 C.ar   29  HIS29       0.1986
     26  NE2       -0.1620    2.4450   -1.8040 N.ar   29  HIS29      -0.2212
     27  N          6.3770    6.2440   -5.9530 N.3    32  GLY32      -0.1210
     28  CA         5.5670    6.2870   -7.1640 C.3    32  GLY32       0.1956
     29  C          5.3110    7.6940   -7.6710 C.2    32  GLY32       0.2611
     30  O          5.2060    7.9060   -8.8810 O.2    32  GLY32      -0.2717
     31  N          5.2010    8.6560   -6.7550 N.am   33  MET33      -0.1979
     32  CA         5.0530   10.0660   -7.1350 C.3    33  MET33       0.1605
     33  C          6.3550   10.6160   -7.7150 C.2    33  MET33       0.2287
     34  O          6.3340   11.3720   -8.6840 O.2    33  MET33      -0.2864
     35  CB         4.6180   10.9190   -5.9440 C.3    33  MET33       0.0413
     36  CG         3.1980   10.6620   -5.4830 C.3    33  MET33       0.0598
     37  SD         2.6330   11.8620   -4.2630 S.3    33  MET33      -0.1393
     38  CE         3.9240   11.7240   -3.0340 C.3    33  MET33       0.0692
     39  N          6.4150    9.3910  -11.0870 N.3    36  LEU36      -0.1245
     40  CA         5.5120   10.2020  -11.9070 C.3    36  LEU36       0.1561
     41  C          6.1320   11.5480  -12.2710 C.2    36  LEU36       0.2260
     42  O          5.9970   12.0120  -13.4050 O.2    36  LEU36      -0.2867
     43  CB         4.1790   10.4260  -11.1840 C.3    36  LEU36       0.0270
     44  CG         3.1250   11.2490  -11.9340 C.3    36  LEU36       0.0019
     45  CD1        2.7720   10.6120  -13.2690 C.3    36  LEU36       0.0001
     46  CD2        1.8890   11.4220  -11.0730 C.3    36  LEU36       0.0001
     47  N         -4.0370    5.4570  -11.4200 N.3    55  ALA55      -0.1245
     48  CA        -3.6270    4.8850  -10.1440 C.3    55  ALA55       0.1562
     49  C         -4.5790    3.7530   -9.7880 C.2    55  ALA55       0.2260
     50  O         -5.7170    4.0060   -9.3900 O.2    55  ALA55      -0.2867
     51  CB        -3.6390    5.9500   -9.0620 C.3    55  ALA55       0.0290
     52  N         -7.0990   -2.5280    0.9900 N.3    58  ARG58      -0.1245
     53  CA        -5.9510   -2.2030    1.8380 C.3    58  ARG58       0.1563
     54  C         -6.3680   -2.0500    3.3000 C.2    58  ARG58       0.2260
     55  O         -7.5280   -2.2740    3.6490 O.2    58  ARG58      -0.2867
     56  CB        -5.2810   -0.9260    1.3400 C.3    58  ARG58       0.0307
     57  CG        -4.3240   -1.1740    0.2220 C.3    58  ARG58       0.0489
     58  CD        -3.8640    0.1310   -0.3660 C.3    58  ARG58       0.2205
     59  NE        -4.9540    0.8290   -1.0270 N.pl3  58  ARG58      -0.0865
     60  CZ        -4.7980    1.9350   -1.7470 C.cat  58  ARG58       0.5346
     61  NH1       -3.5930    2.4710   -1.8820 N.pl3  58  ARG58       0.1354
     62  NH2       -5.8430    2.5060   -2.3240 N.pl3  58  ARG58       0.1354
     63  N         -5.5080    4.1930    3.8020 N.3    63  VAL63      -0.1245
     64  CA        -6.3360    5.1880    3.1090 C.3    63  VAL63       0.1561
     65  C         -6.1160    6.6010    3.6660 C.2    63  VAL63       0.2260
     66  O         -6.1850    7.5820    2.9230 O.2    63  VAL63      -0.2867
     67  CB        -7.8470    4.8360    3.1620 C.3    63  VAL63       0.0252
     68  CG1       -8.1080    3.4930    2.4840 C.3    63  VAL63       0.0019
     69  CG2       -8.3590    4.8310    4.5990 C.3    63  VAL63       0.0019
     70  N         -2.7490    7.5130    2.1200 N.3    66  ILE66      -0.1231
     71  CA        -2.9690    7.7710    0.6920 C.3    66  ILE66       0.1692
     72  C         -3.7480    9.0750    0.4740 C.2    66  ILE66       0.2591
     73  O         -3.5840    9.7360   -0.5520 O.2    66  ILE66      -0.2718
     74  CB        -3.7090    6.5850    0.0010 C.3    66  ILE66       0.0266
     75  CG1       -2.7180    5.4960   -0.4210 C.3    66  ILE66       0.0019
     76  CG2       -4.4650    7.0530   -1.2350 C.3    66  ILE66       0.0020
     77  CD1       -1.8200    4.9960    0.6910 C.3    66  ILE66       0.0001
     78  N         -4.5840    9.4400    1.4460 N.am   67  MET67      -0.1979
     79  CA        -5.3620   10.6800    1.3870 C.3    67  MET67       0.1605
     80  C         -4.4990   11.9370    1.5500 C.2    67  MET67       0.2287
     81  O         -4.9060   13.0270    1.1400 O.2    67  MET67      -0.2864
     82  CB        -6.4500   10.6710    2.4670 C.3    67  MET67       0.0413
     83  CG        -7.3950   11.8330    2.2320 C.3    67  MET67       0.0598
     84  SD        -8.9170   11.7870    3.1620 S.3    67  MET67      -0.1393
     85  CE        -8.2530   12.1320    4.7500 C.3    67  MET67       0.0692
     86  N         -1.3490   12.2660    0.2610 N.3    69  LEU69      -0.1231
     87  CA        -0.4090   12.4000   -0.8640 C.3    69  LEU69       0.1678
     88  C         -0.7930   13.4660   -1.9090 C.2    69  LEU69       0.2434
     89  O          0.0890   14.1180   -2.4650 O.2    69  LEU69      -0.2733
     90  CB        -0.2000   11.0480   -1.5600 C.3    69  LEU69       0.0284
     91  CG         0.2600    9.8710   -0.6960 C.3    69  LEU69       0.0019
     92  CD1        0.5140    8.6550   -1.5700 C.3    69  LEU69       0.0001
     93  CD2        1.5030   10.2170    0.1090 C.3    69  LEU69       0.0001
     94  N         -2.1000   13.6280   -2.1970 N.am   70  PRO70      -0.2729
     95  CA        -2.5520   14.6800   -3.1120 C.3    70  PRO70       0.1401
     96  C         -2.1850   16.0880   -2.6590 C.2    70  PRO70       0.2269
     97  O         -1.8090   16.9170   -3.4860 O.2    70  PRO70      -0.2865
     98  CB        -4.0710   14.5020   -3.1160 C.3    70  PRO70       0.0296
     99  CG        -4.2720   13.0700   -2.8090 C.3    70  PRO70       0.0237
    100  CD        -3.2120   12.7410   -1.8140 C.3    70  PRO70       0.0939
    101  N          1.6200   16.2540   -2.9510 N.3    73  PHE73      -0.1241
    102  CA         1.9050   16.3950   -4.3770 C.3    73  PHE73       0.1605
    103  C          1.7290   17.8380   -4.8500 C.2    73  PHE73       0.2264
    104  O          2.5370   18.3390   -5.6290 O.2    73  PHE73      -0.2867
    105  CB         1.0010   15.4550   -5.1800 C.3    73  PHE73       0.0534
    106  CG         1.2980   15.4330   -6.6520 C.ar   73  PHE73      -0.0203
    107  CD1        2.4240   14.7770   -7.1330 C.ar   73  PHE73      -0.0042
    108  CD2        0.4520   16.0580   -7.5570 C.ar   73  PHE73      -0.0042
    109  CE1        2.7060   14.7520   -8.4850 C.ar   73  PHE73      -0.0003
    110  CE2        0.7260   16.0360   -8.9100 C.ar   73  PHE73      -0.0003
    111  CZ         1.8570   15.3820   -9.3760 C.ar   73  PHE73      -0.0000
    112  N         -2.2940   20.4400  -15.7050 N.3    88  ILE88      -0.1245
    113  CA        -2.8720   19.3360  -14.9380 C.3    88  ILE88       0.1561
    114  C         -4.3860   19.3230  -15.0860 C.2    88  ILE88       0.2260
    115  O         -5.0450   20.3360  -14.8730 O.2    88  ILE88      -0.2867
    116  CB        -2.5170   19.4320  -13.4440 C.3    88  ILE88       0.0252
    117  CG1       -0.9990   19.5000  -13.2550 C.3    88  ILE88       0.0019
    118  CG2       -3.0780   18.2280  -12.6860 C.3    88  ILE88       0.0019
    119  CD1       -0.5760   19.8680  -11.8440 C.3    88  ILE88       0.0001
    120  N        -14.8200   12.2880   -4.3000 N.3    97  LEU97      -0.1231
    121  CA       -13.5690   12.4960   -3.5560 C.3    97  LEU97       0.1678
    122  C        -13.7530   13.3900   -2.3250 C.2    97  LEU97       0.2434
    123  O        -14.6340   14.2510   -2.3170 O.2    97  LEU97      -0.2733
    124  CB       -12.5050   13.1320   -4.4600 C.3    97  LEU97       0.0284
    125  CG       -11.8960   12.2670   -5.5610 C.3    97  LEU97       0.0019
    126  CD1      -11.1010   13.1370   -6.5150 C.3    97  LEU97       0.0001
    127  CD2      -11.0190   11.1800   -4.9620 C.3    97  LEU97       0.0001
    128  N        -12.8990   13.2110   -1.2940 N.am   98  PRO98      -0.2729
    129  CA       -12.9320   14.0770   -0.1010 C.3    98  PRO98       0.1401
    130  C        -12.7150   15.5610   -0.4150 C.2    98  PRO98       0.2269
    131  O        -12.2860   15.9010   -1.5170 O.2    98  PRO98      -0.2865
    132  CB       -11.7790   13.5460    0.7610 C.3    98  PRO98       0.0296
    133  CG       -11.5270   12.1660    0.2770 C.3    98  PRO98       0.0237
    134  CD       -11.8900   12.1420   -1.1700 C.3    98  PRO98       0.0939
    135  N         -8.9460   16.6800   -0.7110 N.3   101  THR101     -0.1218
    136  CA        -8.3790   16.1130   -1.9390 C.3   101  THR101      0.1862
    137  C         -8.9000   16.8140   -3.1970 C.2   101  THR101      0.2287
    138  O         -8.1280   17.1170   -4.1050 O.2   101  THR101     -0.2866
    139  CB        -8.6870   14.6100   -2.0490 C.3   101  THR101      0.1770
    140  OG1       -8.4310   13.9770   -0.7910 O.3   101  THR101     -0.2211
    141  CG2       -7.8240   13.9670   -3.1140 C.3   101  THR101      0.0375
    142  N         -7.3490   20.2550   -3.4100 N.3   104  ALA104     -0.1231
    143  CA        -5.9780   20.1380   -3.9110 C.3   104  ALA104      0.1694
    144  C         -5.9690   19.8430   -5.4130 C.2   104  ALA104      0.2591
    145  O         -5.1000   20.3290   -6.1390 O.2   104  ALA104     -0.2718
    146  CB        -5.2270   19.0550   -3.1620 C.3   104  ALA104      0.0304
    147  N         -6.9280   19.0380   -5.8710 N.am  105  LEU105     -0.1980
    148  CA        -7.0800   18.7610   -7.3000 C.3   105  LEU105      0.1596
    149  C         -7.3590   20.0610   -8.0360 C.2   105  LEU105      0.2287
    150  O         -6.6590   20.3980   -8.9840 O.2   105  LEU105     -0.2864
    151  CB        -8.2160   17.7540   -7.5570 C.3   105  LEU105      0.0297
    152  CG        -8.5710   17.4230   -9.0180 C.3   105  LEU105      0.0022
    153  CD1       -7.4420   16.6820   -9.7210 C.3   105  LEU105      0.0001
    154  CD2       -9.8540   16.6090   -9.0960 C.3   105  LEU105      0.0001
    155  N         -4.4510   22.5210   -8.3770 N.3   108  ALA108     -0.1245
    156  CA        -3.5110   22.0950   -9.4110 C.3   108  ALA108      0.1562
    157  C         -4.0350   22.4560  -10.8000 C.2   108  ALA108      0.2260
    158  O         -3.2740   22.8920  -11.6650 O.2   108  ALA108     -0.2867
    159  CB        -3.2650   20.6010   -9.3140 C.3   108  ALA108      0.0290
    160  N         -4.7740   13.0870  -14.9260 N.3   122  PHE122     -0.1241
    161  CA        -4.9940   12.1170  -13.8460 C.3   122  PHE122      0.1605
    162  C         -6.3250   11.3960  -13.9880 C.2   122  PHE122      0.2264
    163  O         -7.3750   12.0330  -14.0610 O.2   122  PHE122     -0.2867
    164  CB        -4.9490   12.8080  -12.4860 C.3   122  PHE122      0.0534
    165  CG        -3.5620   13.1470  -12.0280 C.ar  122  PHE122     -0.0203
    166  CD1       -3.0640   14.4300  -12.1680 C.ar  122  PHE122     -0.0042
    167  CD2       -2.7520   12.1730  -11.4580 C.ar  122  PHE122     -0.0042
    168  CE1       -1.7850   14.7400  -11.7470 C.ar  122  PHE122     -0.0003
    169  CE2       -1.4750   12.4710  -11.0360 C.ar  122  PHE122     -0.0003
    170  CZ        -0.9880   13.7580  -11.1800 C.ar  122  PHE122     -0.0000
    171  N         -8.6080    9.5340  -11.8510 N.3   124  LEU124     -0.1231
    172  CA        -8.9080    9.2960  -10.4260 C.3   124  LEU124      0.1693
    173  C        -10.3920    8.9850  -10.2200 C.2   124  LEU124      0.2592
    174  O        -11.2460    9.6340  -10.8240 O.2   124  LEU124     -0.2718
    175  CB        -8.5130   10.5210   -9.6010 C.3   124  LEU124      0.0284
    176  CG        -7.0150   10.7810   -9.4450 C.3   124  LEU124      0.0019
    177  CD1       -6.8260   12.0990   -8.7320 C.3   124  LEU124      0.0001
    178  CD2       -6.3300    9.6920   -8.6620 C.3   124  LEU124      0.0001
    179  N        -10.6980    8.0090   -9.3600 N.am  125  ASN125     -0.1974
    180  CA       -12.0640    7.4890   -9.2140 C.3   125  ASN125      0.1688
    181  C        -12.6930    7.2720  -10.5870 C.2   125  ASN125      0.2292
    182  O        -13.7970    7.7380  -10.8790 O.2   125  ASN125     -0.2864
    183  CB       -12.9240    8.4170   -8.3540 C.3   125  ASN125      0.1181
    184  CG       -12.6350    8.2680   -6.8790 C.2   125  ASN125      0.2629
    185  OD1      -11.8450    7.4160   -6.4730 O.2   125  ASN125     -0.2716
    186  ND2      -13.2780    9.0970   -6.0640 N.am  125  ASN125     -0.0877
    187  N          6.2240    0.3030  -10.9730 N.3   206  TRP206     -0.1241
    188  CA         6.0150    1.7200  -11.2910 C.3   206  TRP206      0.1605
    189  C          7.0880    2.6630  -10.7310 C.2   206  TRP206      0.2264
    190  O          7.5100    3.5800  -11.4310 O.2   206  TRP206     -0.2867
    191  CB         4.6190    2.1930  -10.8590 C.3   206  TRP206      0.0550
    192  CG         4.4430    3.6620  -11.0550 C.ar  206  TRP206      0.0003
    193  CD1        4.2150    4.5960  -10.0910 C.ar  206  TRP206      0.0946
    194  CD2        4.5280    4.3750  -12.2940 C.ar  206  TRP206      0.0152
    195  NE1        4.1320    5.8460  -10.6550 N.ar  206  TRP206     -0.2442
    196  CE2        4.3260    5.7380  -12.0060 C.ar  206  TRP206      0.0810
    197  CE3        4.7470    3.9900  -13.6240 C.ar  206  TRP206      0.0012
    198  CZ2        4.3320    6.7210  -12.9960 C.ar  206  TRP206      0.0191
    199  CZ3        4.7530    4.9650  -14.6080 C.ar  206  TRP206      0.0001
    200  CH2        4.5460    6.3150  -14.2890 C.ar  206  TRP206      0.0015
@<TRIPOS>BOND
     1   112   113    1
     2   114   113    1
     3   114   115    2
     4   113   116    1
     5   160   161    1
     6   199   200   ar
     7   199   197   ar
     8   200   198   ar
     9   163   162    2
    10   162   161    1
    11   161   164    1
    12   197   194   ar
    13     1     2    1
    14   116   117    1
    15   116   118    1
    16    42    41    2
    17    45    44    1
    18   117   119    1
    19   198   196   ar
    20     6     7    1
    21     6     5    1
    22     2     5    1
    23     2     3    1
    24   164   165    1
    25   194   196   ar
    26   194   192   ar
    27    41    40    1
    28   166   165   ar
    29   166   168   ar
    30   165   167   ar
    31     7     8    1
    32   196   195   ar
    33    44    43    1
    34    44    46    1
    35    40    43    1
    36    40    39    1
    37   171   172    1
    38   168   170   ar
    39   158   157    2
    40     3     4    2
    41   167   169   ar
    42   190   189    2
    43    47    48    1
    44   188   187    1
    45   188   191    1
    46   188   189    1
    47   170   169   ar
    48   192   191    1
    49   192   193   ar
    50   182   181    2
    51   174   173    2
    52   157   156    1
    53   195   193   ar
    54   181   180    1
    55   172   173    1
    56   172   175    1
    57   173   179   am
    58    48    49    1
    59    48    51    1
    60    49    50    2
    61   153   152    1
    62   175   176    1
    63   176   177    1
    64   176   178    1
    65   156   159    1
    66   156   155    1
    67   111   110   ar
    68   111   109   ar
    69   179   180    1
    70   180   183    1
    71   154   152    1
    72   152   151    1
    73   150   149    2
    74   110   108   ar
    75    30    29    2
    76    34    33    2
    77   109   107   ar
    78   183   184    1
    79   149   148    1
    80    33    32    1
    81    29    28    1
    82    29    31   am
    83   151   148    1
    84   108   106   ar
    85   148   147    1
    86    15    14    2
    87    28    27    1
    88    32    31    1
    89    32    35    1
    90   107   106   ar
    91   184   185    2
    92   184   186   am
    93     9    10    1
    94   106   105    1
    95   126   125    1
    96    14    16   am
    97    14    13    1
    98   145   144    2
    99    35    36    1
   100   147   144   am
   101   104   103    2
   102   125   127    1
   103   125   124    1
   104    10    13    1
   105    10    11    1
   106    36    37    1
   107   144   143    1
   108   105   102    1
   109   103   102    1
   110   124   121    1
   111   102   101    1
   112    11    12    2
   113   120   121    1
   114    37    38    1
   115    20    19    2
   116   138   137    2
   117   143   142    1
   118   143   146    1
   119   121   122    1
   120    97    96    2
   121    23    25   ar
   122    23    22   ar
   123   137   136    1
   124    19    18    1
   125    98    95    1
   126    98    99    1
   127    25    26   ar
   128   141   139    1
   129    95    96    1
   130    95    94    1
   131    18    17    1
   132    18    21    1
   133    99   100    1
   134    89    88    2
   135   122   123    2
   136   122   128   am
   137    62    60    1
   138    21    22    1
   139    22    24   ar
   140    94    88   am
   141    94   100    1
   142   139   136    1
   143   139   140    1
   144   136   135    1
   145    88    87    1
   146    61    60    1
   147    26    24   ar
   148    60    59    2
   149    92    91    1
   150    90    87    1
   151    90    91    1
   152   131   130    2
   153   128   134    1
   154   128   129    1
   155    76    74    1
   156   134   133    1
   157    59    58    1
   158    87    86    1
   159    91    93    1
   160    73    72    2
   161    75    74    1
   162    75    77    1
   163   130   129    1
   164    58    57    1
   165   129   132    1
   166    74    71    1
   167    57    56    1
   168   133   132    1
   169    72    71    1
   170    72    78   am
   171    71    70    1
   172    52    53    1
   173    81    80    2
   174    56    53    1
   175    79    78    1
   176    79    80    1
   177    79    82    1
   178    53    54    1
   179    83    82    1
   180    83    84    1
   181    68    67    1
   182    66    65    2
   183    64    67    1
   184    64    65    1
   185    64    63    1
   186    67    69    1
   187    84    85    1
   188    54    55    2
