@<TRIPOS>MOLECULE
tmp/5kh6A00.pdb
 126 124 0 0 0
SMALL
GASTEIGER

@<TRIPOS>ATOM
      1  N         20.8040   64.2990    9.9630 N.3   107  PHE107     -0.1227
      2  CA        20.1870   63.3450    9.0530 C.3   107  PHE107      0.1736
      3  C         21.2660   62.9670    7.9950 C.2   107  PHE107      0.2595
      4  O         21.6580   63.8100    7.1860 O.2   107  PHE107     -0.2718
      5  CB        18.9510   63.9680    8.3520 C.3   107  PHE107      0.0547
      6  CG        17.6990   64.2000    9.1910 C.ar  107  PHE107     -0.0202
      7  CD1       17.5420   63.5900   10.4360 C.ar  107  PHE107     -0.0042
      8  CD2       16.6610   64.9920    8.7130 C.ar  107  PHE107     -0.0042
      9  CE1       16.3560   63.7410   11.1630 C.ar  107  PHE107     -0.0003
     10  CE2       15.4830   65.1560    9.4560 C.ar  107  PHE107     -0.0003
     11  CZ        15.3470   64.5410   10.6820 C.ar  107  PHE107     -0.0000
     12  N         21.8370   61.7670    8.1140 N.am  108  PHE108     -0.1976
     13  CA        22.9090   61.3140    7.2180 C.3   108  PHE108      0.1639
     14  C         22.3820   60.9730    5.8330 C.2   108  PHE108      0.2290
     15  O         21.2020   60.6140    5.6780 O.2   108  PHE108     -0.2864
     16  CB        23.6440   60.1070    7.8140 C.3   108  PHE108      0.0560
     17  CG        24.4720   60.4560    9.0230 C.ar  108  PHE108     -0.0200
     18  CD1       25.7100   61.0700    8.8860 C.ar  108  PHE108     -0.0042
     19  CD2       24.0160   60.1720   10.3030 C.ar  108  PHE108     -0.0042
     20  CE1       26.4790   61.3790   10.0010 C.ar  108  PHE108     -0.0003
     21  CE2       24.7910   60.4740   11.4150 C.ar  108  PHE108     -0.0003
     22  CZ        26.0110   61.0900   11.2590 C.ar  108  PHE108     -0.0000
     23  N         22.6160   58.4090    4.0080 N.3   110  ASP110     -0.1225
     24  CA        22.0970   57.0460    3.8340 C.3   110  ASP110      0.1805
     25  C         20.7770   56.7520    4.5980 C.2   110  ASP110      0.2598
     26  O         20.3260   55.6110    4.5830 O.2   110  ASP110     -0.2718
     27  CB        23.1820   56.0110    4.2110 C.3   110  ASP110      0.1424
     28  CG        23.5830   56.0230    5.6710 C.2   110  ASP110      0.3668
     29  OD1       23.2090   56.9950    6.3940 O.co2 110  ASP110     -0.2456
     30  OD2       24.2690   55.0890    6.0960 O.co2 110  ASP110     -0.2456
     31  N         20.1780   57.7670    5.2380 N.am  111  GLY111     -0.1942
     32  CA        18.9010   57.6030    5.9430 C.3   111  GLY111      0.2014
     33  C         18.9820   57.4450    7.4540 C.2   111  GLY111      0.2639
     34  O         17.9500   57.4720    8.1240 O.2   111  GLY111     -0.2714
     35  N         20.1850   57.2810    8.0200 N.am  112  TYR112     -0.1959
     36  CA        20.3020   57.1810    9.4750 C.3   112  TYR112      0.1771
     37  C         20.2610   58.5790   10.1130 C.2   112  TYR112      0.2619
     38  O         20.3790   59.5830    9.4140 O.2   112  TYR112     -0.2715
     39  CB        21.5620   56.4100    9.8910 C.3   112  TYR112      0.0574
     40  CG        21.4610   54.9230    9.5880 C.ar  112  TYR112     -0.0198
     41  CD1       20.6080   54.0990   10.3160 C.ar  112  TYR112     -0.0009
     42  CD2       22.1810   54.3550    8.5470 C.ar  112  TYR112     -0.0009
     43  CE1       20.4560   52.7510    9.9980 C.ar  112  TYR112      0.0417
     44  CE2       22.0590   53.0010    8.2340 C.ar  112  TYR112      0.0417
     45  CZ        21.1820   52.2030    8.9540 C.ar  112  TYR112      0.1957
     46  OH        21.0310   50.8640    8.6510 O.3   112  TYR112     -0.2866
     47  N         20.0120   58.6370   11.4160 N.am  113  ALA113     -0.1977
     48  CA        19.9200   59.9150   12.1630 C.3   113  ALA113      0.1597
     49  C         20.5480   59.7770   13.5280 C.2   113  ALA113      0.2287
     50  O         20.4520   58.7100   14.1380 O.2   113  ALA113     -0.2864
     51  CB        18.4670   60.3330   12.3120 C.3   113  ALA113      0.0319
     52  N         20.5830   58.9490   -2.6890 N.3   137  ASP137     -0.1239
     53  CA        19.3670   58.1500   -2.4670 C.3   137  ASP137      0.1674
     54  C         18.1070   59.0230   -2.6410 C.2   137  ASP137      0.2266
     55  O         17.9250   59.9960   -1.9140 O.2   137  ASP137     -0.2867
     56  CB        19.4160   57.4930   -1.0720 C.3   137  ASP137      0.1410
     57  CG        18.3370   56.4510   -0.8490 C.2   137  ASP137      0.3668
     58  OD1       17.1470   56.8370   -0.7530 O.co2 137  ASP137     -0.2456
     59  OD2       18.6870   55.2520   -0.7180 O.co2 137  ASP137     -0.2456
     60  N         14.7080   58.5040   -2.0760 N.3   139  SER139     -0.1202
     61  CA        13.7370   58.5820   -0.9780 C.3   139  SER139      0.2020
     62  C         14.2550   59.4650    0.1600 C.2   139  SER139      0.2619
     63  O         13.4820   60.2380    0.7260 O.2   139  SER139     -0.2717
     64  CB        13.3820   57.1880   -0.4610 C.3   139  SER139      0.2103
     65  OG        14.5340   56.3840   -0.2730 O.3   139  SER139     -0.2182
     66  N         15.5780   59.3850    0.4710 N.am  140  CYS140     -0.1969
     67  CA        16.2060   60.2290    1.5060 C.3   140  CYS140      0.1712
     68  C         16.1590   61.6760    1.0960 C.2   140  CYS140      0.2296
     69  O         15.8160   62.5320    1.9000 O.2   140  CYS140     -0.2864
     70  CB        17.6490   59.8010    1.7640 C.3   140  CYS140      0.0983
     71  SG        17.8350   58.0950    2.2990 S.3   140  CYS140     -0.0798
     72  N         12.5950   63.2500    1.2740 N.3   143  PHE143     -0.1227
     73  CA        12.1600   63.4460    2.6540 C.3   143  PHE143      0.1736
     74  C         12.8800   64.6810    3.2580 C.2   143  PHE143      0.2595
     75  O         12.2420   65.5270    3.8840 O.2   143  PHE143     -0.2718
     76  CB        12.4410   62.1970    3.5100 C.3   143  PHE143      0.0547
     77  CG        11.9580   62.3180    4.9390 C.ar  143  PHE143     -0.0202
     78  CD1       12.7270   62.9600    5.8970 C.ar  143  PHE143     -0.0042
     79  CD2       10.7160   61.8180    5.3160 C.ar  143  PHE143     -0.0042
     80  CE1       12.2660   63.0980    7.2090 C.ar  143  PHE143     -0.0003
     81  CE2       10.2660   61.9400    6.6280 C.ar  143  PHE143     -0.0003
     82  CZ        11.0460   62.5730    7.5680 C.ar  143  PHE143     -0.0000
     83  N         14.1990   64.7810    3.0540 N.am  144  ILE144     -0.1980
     84  CA        14.9700   65.8930    3.6160 C.3   144  ILE144      0.1595
     85  C         14.5660   67.2420    2.9960 C.2   144  ILE144      0.2287
     86  O         14.4710   68.2200    3.7190 O.2   144  ILE144     -0.2864
     87  CB        16.4900   65.6240    3.5310 C.3   144  ILE144      0.0276
     88  CG1       16.8650   64.4830    4.5250 C.3   144  ILE144      0.0022
     89  CG2       17.2830   66.9180    3.8310 C.3   144  ILE144      0.0022
     90  CD1       18.1500   63.9130    4.3420 C.3   144  ILE144      0.0001
     91  N         14.1350   58.6770   13.5790 N.3   200  TYR200     -0.1241
     92  CA        13.5030   60.0060   13.7440 C.3   200  TYR200      0.1605
     93  C         11.9960   59.8270   13.9290 C.2   200  TYR200      0.2264
     94  O         11.3910   59.0710   13.1840 O.2   200  TYR200     -0.2867
     95  CB        13.8040   60.8960   12.5110 C.3   200  TYR200      0.0534
     96  CG        13.0090   62.1840   12.4730 C.ar  200  TYR200     -0.0201
     97  CD1       13.0740   63.0970   13.5200 C.ar  200  TYR200     -0.0009
     98  CD2       12.2470   62.5260   11.3580 C.ar  200  TYR200     -0.0009
     99  CE1       12.3470   64.2890   13.4890 C.ar  200  TYR200      0.0417
    100  CE2       11.5000   63.7030   11.3250 C.ar  200  TYR200      0.0417
    101  CZ        11.5190   64.5610   12.4140 C.ar  200  TYR200      0.1957
    102  OH        10.7820   65.7180   12.4140 O.3   200  TYR200     -0.2866
    103  N          9.6750   60.0330   10.9200 N.3   203  SER203     -0.1202
    104  CA         9.9850   59.1850    9.7550 C.3   203  SER203      0.2020
    105  C          8.7550   58.4080    9.2800 C.2   203  SER203      0.2619
    106  O          7.9950   57.8880   10.1040 O.2   203  SER203     -0.2717
    107  CB        11.1070   58.2050   10.0810 C.3   203  SER203      0.2103
    108  OG        11.3240   57.3070    9.0020 O.3   203  SER203     -0.2182
    109  N          8.6200   58.2530    7.9500 N.am  204  THR204     -0.1938
    110  CA         7.5350   57.4700    7.3450 C.3   204  THR204      0.2028
    111  C          7.7840   55.9620    7.5180 C.2   204  THR204      0.2642
    112  O          6.9210   55.1630    7.1780 O.2   204  THR204     -0.2714
    113  CB         7.3480   57.8580    5.8670 C.3   204  THR204      0.1808
    114  OG1        8.6320   57.9280    5.2320 O.3   204  THR204     -0.2208
    115  CG2        6.6290   59.1750    5.7150 C.3   204  THR204      0.0379
    116  N          8.9650   55.5710    8.0500 N.am  205  ARG205     -0.1977
    117  CA         9.2320   54.1750    8.4040 C.3   205  ARG205      0.1597
    118  C          8.4080   53.7490    9.6380 C.2   205  ARG205      0.2287
    119  O          8.3300   52.5630    9.9180 O.2   205  ARG205     -0.2864
    120  CB        10.7120   53.9560    8.6720 C.3   205  ARG205      0.0334
    121  CG        11.5690   54.1190    7.4190 C.3   205  ARG205      0.0492
    122  CD        13.0120   53.8070    7.7120 C.3   205  ARG205      0.2205
    123  NE        13.1680   52.4400    8.2200 N.pl3 205  ARG205     -0.0865
    124  CZ        14.1480   52.0410    9.0270 C.cat 205  ARG205      0.5346
    125  NH1       15.0980   52.8910    9.4030 N.pl3 205  ARG205      0.1354
    126  NH2       14.1900   50.7890    9.4580 N.pl3 205  ARG205      0.1354
@<TRIPOS>BOND
     1    52    53    1
     2    54    53    1
     3    54    55    2
     4    53    56    1
     5    60    61    1
     6    56    57    1
     7    61    64    1
     8    61    62    1
     9    57    58   ar
    10    57    59   ar
    11    64    65    1
    12    62    66   am
    13    62    63    2
    14    66    67    1
    15    68    67    1
    16    68    69    2
    17    72    73    1
    18    67    70    1
    19    70    71    1
    20    73    74    1
    21    73    76    1
    22    85    84    1
    23    85    86    2
    24    83    74   am
    25    83    84    1
    26    74    75    2
    27    76    77    1
    28    87    84    1
    29    87    89    1
    30    87    88    1
    31    24    23    1
    32    24    27    1
    33    24    25    1
    34    27    28    1
    35    90    88    1
    36    26    25    2
    37    25    31   am
    38    77    79   ar
    39    77    78   ar
    40   114   113    1
    41    31    32    1
    42    79    81   ar
    43    28    30   ar
    44    28    29   ar
    45    15    14    2
    46   115   113    1
    47    14    13    1
    48   113   110    1
    49    78    80   ar
    50    32    33    1
    51    81    82   ar
    52   112   111    2
    53     4     3    2
    54    80    82   ar
    55    13    16    1
    56    13    12    1
    57   110   111    1
    58   110   109    1
    59   121   122    1
    60   121   120    1
    61    33    35   am
    62    33    34    2
    63   111   116   am
    64   122   123    1
    65    16    17    1
    66   109   105   am
    67     3    12   am
    68     3     2    1
    69    35    36    1
    70   116   117    1
    71   123   124    2
    72    44    42   ar
    73    44    45   ar
    74     5     2    1
    75     5     6    1
    76   117   120    1
    77   117   118    1
    78    42    40   ar
    79    46    45    1
    80     8     6   ar
    81     8    10   ar
    82    18    17   ar
    83    18    20   ar
    84    45    43   ar
    85   108   107    1
    86    17    19   ar
    87   124   125    1
    88   124   126    1
    89     2     1    1
    90     6     7   ar
    91   105   104    1
    92   105   106    2
    93    38    37    2
    94    10    11   ar
    95    36    39    1
    96    36    37    1
    97    40    39    1
    98    40    41   ar
    99   118   119    2
   100   104   107    1
   101   104   103    1
   102    43    41   ar
   103    20    22   ar
   104    37    47   am
   105    19    21   ar
   106     7     9   ar
   107    11     9   ar
   108    22    21   ar
   109   100    98   ar
   110   100   101   ar
   111    98    96   ar
   112    47    48    1
   113    48    51    1
   114    48    49    1
   115   102   101    1
   116   101    99   ar
   117    96    95    1
   118    96    97   ar
   119    95    92    1
   120    94    93    2
   121    99    97   ar
   122    49    50    2
   123    91    92    1
   124    92    93    1
