@<TRIPOS>MOLECULE
tmp/5kh6A02.pdb
 90 84 0 0 0
SMALL
GASTEIGER

@<TRIPOS>ATOM
      1  N         18.3650   69.8930   13.4820 N.3    94  GLU94      -0.1245
      2  CA        18.1130   70.7200   14.6690 C.3    94  GLU94       0.1567
      3  C         19.4060   71.2930   15.1320 C.2    94  GLU94       0.2260
      4  O         20.4110   70.5740   15.1660 O.2    94  GLU94      -0.2867
      5  CB        17.5630   69.9040   15.8560 C.3    94  GLU94       0.0388
      6  CG        16.2610   69.1910   15.6480 C.3    94  GLU94       0.1160
      7  CD        15.7390   68.5190   16.9160 C.2    94  GLU94       0.3649
      8  OE1       16.5070   68.3750   17.8970 O.co2  94  GLU94      -0.2457
      9  OE2       14.5540   68.1250   16.9200 O.co2  94  GLU94      -0.2457
     10  N         19.3200   73.3770   21.6550 N.3    97  ASN97      -0.1240
     11  CA        18.2310   74.0020   22.4260 C.3    97  ASN97       0.1653
     12  C         17.9470   73.1660   23.6930 C.2    97  ASN97       0.2266
     13  O         18.6120   72.1560   23.9090 O.2    97  ASN97      -0.2867
     14  CB        16.9580   74.1840   21.5700 C.3    97  ASN97       0.1155
     15  CG        16.4980   72.9320   20.8780 C.2    97  ASN97       0.2627
     16  OD1       15.8280   72.0770   21.4720 O.2    97  ASN97      -0.2716
     17  ND2       16.7900   72.8280   19.5830 N.am   97  ASN97      -0.0877
     18  N         15.1460   71.4090   24.7600 N.3    99  LYS99      -0.1231
     19  CA        14.4840   70.1010   24.5940 C.3    99  LYS99       0.1693
     20  C         15.4070   69.0060   24.0160 C.2    99  LYS99       0.2592
     21  O         15.1190   67.8270   24.2170 O.2    99  LYS99      -0.2718
     22  CB        13.1930   70.2190   23.7590 C.3    99  LYS99       0.0285
     23  CG        12.0930   71.1060   24.3220 C.3    99  LYS99       0.0035
     24  CD        10.9030   71.1720   23.3500 C.3    99  LYS99       0.0206
     25  CE        11.2190   71.6810   21.9260 C.3    99  LYS99       0.1093
     26  NZ        11.7920   73.0210   21.9030 N.3    99  LYS99      -0.1314
     27  N         16.5080   69.3740   23.3150 N.am  100  ASN100     -0.1974
     28  CA        17.4620   68.3530   22.8130 C.3   100  ASN100      0.1688
     29  C         18.7870   68.3180   23.6140 C.2   100  ASN100      0.2292
     30  O         19.7520   67.6870   23.1670 O.2   100  ASN100     -0.2864
     31  CB        17.7200   68.5090   21.2990 C.3   100  ASN100      0.1181
     32  CG        18.4950   69.7240   20.8580 C.2   100  ASN100      0.2629
     33  OD1       19.2230   70.3610   21.6260 O.2   100  ASN100     -0.2716
     34  ND2       18.3940   70.0410   19.5760 N.am  100  ASN100     -0.0877
     35  N         22.1730   62.3070   17.2570 N.3   115  TYR115     -0.1241
     36  CA        22.5010   63.5650   17.9510 C.3   115  TYR115      0.1605
     37  C         24.0320   63.5760   18.1310 C.2   115  TYR115      0.2264
     38  O         24.6070   62.5390   18.4570 O.2   115  TYR115     -0.2867
     39  CB        21.8100   63.6670   19.3330 C.3   115  TYR115      0.0534
     40  CG        20.3870   64.1920   19.2620 C.ar  115  TYR115     -0.0201
     41  CD1       20.1290   65.5150   18.9280 C.ar  115  TYR115     -0.0009
     42  CD2       19.3130   63.4070   19.6690 C.ar  115  TYR115     -0.0009
     43  CE1       18.8260   66.0050   18.8650 C.ar  115  TYR115      0.0417
     44  CE2       18.0010   63.8640   19.5630 C.ar  115  TYR115      0.0417
     45  CZ        17.7570   65.1720   19.1800 C.ar  115  TYR115      0.1957
     46  OH        16.4510   65.6340   19.1300 O.3   115  TYR115     -0.2866
     47  N         10.1340   73.2230    7.7790 N.3   151  TYR151     -0.1241
     48  CA        10.5910   73.6020    9.1440 C.3   151  TYR151      0.1605
     49  C         10.2260   75.0880    9.4460 C.2   151  TYR151      0.2264
     50  O         10.3690   75.9180    8.5530 O.2   151  TYR151     -0.2867
     51  CB        12.1190   73.3910    9.2530 C.3   151  TYR151      0.0534
     52  CG        12.6620   73.5890   10.6490 C.ar  151  TYR151     -0.0201
     53  CD1       13.0210   74.8480   11.1040 C.ar  151  TYR151     -0.0009
     54  CD2       12.7760   72.5220   11.5290 C.ar  151  TYR151     -0.0009
     55  CE1       13.4510   75.0500   12.4120 C.ar  151  TYR151      0.0417
     56  CE2       13.2240   72.7060   12.8370 C.ar  151  TYR151      0.0417
     57  CZ        13.5650   73.9720   13.2750 C.ar  151  TYR151      0.1957
     58  OH        14.0250   74.1660   14.5520 O.3   151  TYR151     -0.2866
     59  N          6.7330   70.5260   11.8500 N.3   154  ARG154     -0.1245
     60  CA         7.2860   69.1730   11.8890 C.3   154  ARG154      0.1563
     61  C          6.2920   68.1760   12.4270 C.2   154  ARG154      0.2260
     62  O          6.2580   67.9490   13.6350 O.2   154  ARG154     -0.2867
     63  CB         8.5140   69.1380   12.7920 C.3   154  ARG154      0.0307
     64  CG         9.6380   69.9710   12.3140 C.3   154  ARG154      0.0489
     65  CD        10.9160   69.5550   12.9870 C.3   154  ARG154      0.2205
     66  NE        10.8830   69.8160   14.4250 N.pl3 154  ARG154     -0.0865
     67  CZ        11.8140   69.3990   15.2790 C.cat 154  ARG154      0.5346
     68  NH1       12.8570   68.6900   14.8460 N.pl3 154  ARG154      0.1354
     69  NH2       11.7030   69.6680   16.5740 N.pl3 154  ARG154      0.1354
     70  N         14.6580   63.0370   22.8930 N.3   183  GLY183     -0.1210
     71  CA        14.2800   64.1920   22.0830 C.3   183  GLY183      0.1956
     72  C         13.4330   63.8180   20.8690 C.2   183  GLY183      0.2612
     73  O         12.3570   63.2360   21.0140 O.2   183  GLY183     -0.2717
     74  N         13.9280   64.1230   19.6650 N.am  184  SER184     -0.1952
     75  CA        13.2080   63.8250   18.4140 C.3   184  SER184      0.1924
     76  C         13.4710   62.4050   17.8730 C.2   184  SER184      0.2314
     77  O         12.9460   62.0770   16.8230 O.2   184  SER184     -0.2863
     78  CB        13.5520   64.8570   17.3470 C.3   184  SER184      0.2116
     79  OG        13.0220   66.1190   17.7150 O.3   184  SER184     -0.2180
     80  N         11.3870   60.5000   14.9550 N.3   201  ARG201     -0.1245
     81  CA         9.9360   60.3330   15.2690 C.3   201  ARG201      0.1563
     82  C          8.9520   60.8390   14.1830 C.2   201  ARG201      0.2260
     83  O          7.7380   60.5800   14.2780 O.2   201  ARG201     -0.2867
     84  CB         9.5940   60.9780   16.6290 C.3   201  ARG201      0.0307
     85  CG        10.1180   60.1690   17.7920 C.3   201  ARG201      0.0489
     86  CD         9.4770   60.5480   19.0910 C.3   201  ARG201      0.2205
     87  NE         9.8230   61.9190   19.4980 N.pl3 201  ARG201     -0.0865
     88  CZ         8.9700   62.9420   19.5670 C.cat 201  ARG201      0.5346
     89  NH1        7.6900   62.7770   19.2390 N.pl3 201  ARG201      0.1354
     90  NH2        9.3920   64.1400   19.9520 N.pl3 201  ARG201      0.1354
@<TRIPOS>BOND
     1    47    48    1
     2    50    49    2
     3    48    51    1
     4    48    49    1
     5    51    52    1
     6    52    53   ar
     7    52    54   ar
     8    53    55   ar
     9    54    56   ar
    10    59    60    1
    11    60    61    1
    12    60    63    1
    13    64    63    1
    14    64    65    1
    15    55    57   ar
    16    61    62    2
    17    56    57   ar
    18    65    66    1
    19    57    58    1
    20     1     2    1
    21    82    83    2
    22    82    81    1
    23    66    67    2
    24     2     3    1
    25     2     5    1
    26    68    67    1
    27    80    81    1
    28     3     4    2
    29    81    84    1
    30    67    69    1
    31     6     5    1
    32     6     7    1
    33    84    85    1
    34    77    76    2
    35     7     9   ar
    36     7     8   ar
    37    35    36    1
    38    78    79    1
    39    78    75    1
    40    85    86    1
    41    76    75    1
    42    36    37    1
    43    36    39    1
    44    37    38    2
    45    75    74    1
    46    43    41   ar
    47    43    45   ar
    48    41    40   ar
    49    86    87    1
    50    46    45    1
    51    45    44   ar
    52    89    88    1
    53    40    39    1
    54    40    42   ar
    55    87    88    2
    56    44    42   ar
    57    88    90    1
    58    34    32   am
    59    17    15   am
    60    74    72   am
    61    32    31    1
    62    32    33    2
    63    72    73    2
    64    72    71    1
    65    15    16    2
    66    15    14    1
    67    31    28    1
    68    14    11    1
    69    10    11    1
    70    26    25    1
    71    25    24    1
    72    71    70    1
    73    11    12    1
    74    28    27    1
    75    28    29    1
    76    30    29    2
    77    27    20   am
    78    24    23    1
    79    12    13    2
    80    22    23    1
    81    22    19    1
    82    20    21    2
    83    20    19    1
    84    19    18    1
