@<TRIPOS>MOLECULE
tmp/5kh7A00.pdb
 99 97 0 0 0
SMALL
GASTEIGER

@<TRIPOS>ATOM
      1  N          8.7340    0.3820   12.3810 N.3    36  TRP36      -0.1241
      2  CA         8.2920   -0.7170   11.5450 C.3    36  TRP36       0.1605
      3  C          9.5420   -1.3740   10.9680 C.2    36  TRP36       0.2264
      4  O         10.5630   -0.7230   10.8160 O.2    36  TRP36      -0.2867
      5  CB         7.4480   -0.1840   10.3880 C.3    36  TRP36       0.0550
      6  CG         6.1580    0.4370   10.8310 C.ar   36  TRP36       0.0003
      7  CD1        5.9990    1.5990   11.5340 C.ar   36  TRP36       0.0946
      8  CD2        4.8560   -0.1170   10.6870 C.ar   36  TRP36       0.0152
      9  NE1        4.6740    1.8260   11.7870 N.ar   36  TRP36      -0.2442
     10  CE2        3.9550    0.7760   11.2910 C.ar   36  TRP36       0.0810
     11  CE3        4.3670   -1.2880   10.1240 C.ar   36  TRP36       0.0012
     12  CZ2        2.5840    0.5480   11.3090 C.ar   36  TRP36       0.0191
     13  CZ3        3.0160   -1.5430   10.1510 C.ar   36  TRP36       0.0001
     14  CH2        2.1240   -0.6000   10.7110 C.ar   36  TRP36       0.0015
     15  N          7.2080    5.1930   11.7250 N.3    47  GLY47      -0.1210
     16  CA         5.8890    5.3170   11.1210 C.3    47  GLY47       0.1956
     17  C          5.4400    6.7230   10.7350 C.2    47  GLY47       0.2611
     18  O          6.1000    7.7490   10.9810 O.2    47  GLY47      -0.2717
     19  N          4.2550    6.7700   10.1490 N.am   48  ARG48      -0.1979
     20  CA         3.7460    7.9530    9.4930 C.3    48  ARG48       0.1597
     21  C          3.4880    9.0790   10.4780 C.2    48  ARG48       0.2287
     22  O          3.5360   10.2630   10.0910 O.2    48  ARG48      -0.2864
     23  CB         2.4630    7.6390    8.6890 C.3    48  ARG48       0.0334
     24  CG         1.3080    7.1490    9.5360 C.3    48  ARG48       0.0492
     25  CD         0.3700    6.1870    8.7840 C.3    48  ARG48       0.2205
     26  NE        -0.6370    5.5580    9.6550 N.pl3  48  ARG48      -0.0865
     27  CZ        -0.4140    4.5810   10.5330 C.cat  48  ARG48       0.5346
     28  NH1       -1.4200    4.0840   11.2390 N.pl3  48  ARG48       0.1354
     29  NH2        0.8010    4.0460   10.6930 N.pl3  48  ARG48       0.1354
     30  N          9.5280    5.1020    7.1700 N.3    54  MET54      -0.1230
     31  CA         9.1890    3.8420    6.4640 C.3    54  MET54       0.1702
     32  C          8.4090    4.1260    5.1470 C.2    54  MET54       0.2592
     33  O          8.6430    3.4830    4.1250 O.2    54  MET54      -0.2718
     34  CB         8.3550    2.8580    7.3090 C.3    54  MET54       0.0401
     35  CG         8.2460    1.4800    6.6690 C.3    54  MET54       0.0596
     36  SD         9.8470    0.7530    6.2250 S.3    54  MET54      -0.1393
     37  CE        10.2650   -0.1180    7.7290 C.3    54  MET54       0.0692
     38  N          7.5240    5.1150    5.1640 N.am   55  LEU55      -0.1980
     39  CA         6.8490    5.5340    3.9550 C.3    55  LEU55       0.1596
     40  C          7.8720    6.0200    2.9090 C.2    55  LEU55       0.2287
     41  O          7.8050    5.6680    1.7340 O.2    55  LEU55      -0.2864
     42  CB         5.8510    6.6810    4.2460 C.3    55  LEU55       0.0297
     43  CG         5.0620    7.1960    3.0420 C.3    55  LEU55       0.0022
     44  CD1        4.2700    6.1010    2.3020 C.3    55  LEU55       0.0001
     45  CD2        4.1590    8.3390    3.5090 C.3    55  LEU55       0.0001
     46  N          5.4360   -4.1010    5.4840 N.3    66  VAL66      -0.1245
     47  CA         6.1780   -3.7030    6.6730 C.3    66  VAL66       0.1561
     48  C          5.4310   -4.1780    7.9280 C.2    66  VAL66       0.2260
     49  O          4.1910   -4.2350    7.9320 O.2    66  VAL66      -0.2867
     50  CB         6.3870   -2.1630    6.6680 C.3    66  VAL66       0.0252
     51  CG1        7.2700   -1.7820    5.5000 C.3    66  VAL66       0.0019
     52  CG2        5.0610   -1.3730    6.6240 C.3    66  VAL66       0.0019
     53  N          1.3410   -4.0730    7.1340 N.3    75  TRP75      -0.1241
     54  CA         0.7040   -3.1530    6.2070 C.3    75  TRP75       0.1605
     55  C          1.3590   -3.2880    4.8640 C.2    75  TRP75       0.2264
     56  O          2.6010   -3.3690    4.7810 O.2    75  TRP75      -0.2867
     57  CB         0.9210   -1.7060    6.6830 C.3    75  TRP75       0.0550
     58  CG         0.3770   -0.6170    5.7940 C.ar   75  TRP75       0.0003
     59  CD1        1.0670    0.1240    4.9220 C.ar   75  TRP75       0.0946
     60  CD2       -0.9910   -0.2070    5.6830 C.ar   75  TRP75       0.0152
     61  NE1        0.2430    1.0020    4.2600 N.ar   75  TRP75      -0.2442
     62  CE2       -1.0340    0.8180    4.7170 C.ar   75  TRP75       0.0810
     63  CE3       -2.1670   -0.5830    6.3320 C.ar   75  TRP75       0.0012
     64  CZ2       -2.2090    1.4690    4.3950 C.ar   75  TRP75       0.0191
     65  CZ3       -3.3310    0.0490    6.0080 C.ar   75  TRP75       0.0001
     66  CH2       -3.3330    1.0850    5.0530 C.ar   75  TRP75       0.0015
     67  N          1.8130   -1.2080    1.5000 N.3    77  TYR77      -0.1241
     68  CA         1.6710    0.1430    0.9740 C.3    77  TYR77       0.1605
     69  C          0.9860    0.2050   -0.4000 C.2    77  TYR77       0.2264
     70  O          0.3570    1.2250   -0.7170 O.2    77  TYR77      -0.2867
     71  CB         3.0300    0.8340    0.8440 C.3    77  TYR77       0.0534
     72  CG         3.6310    1.2520    2.1350 C.ar   77  TYR77      -0.0201
     73  CD1        3.2100    2.4100    2.7880 C.ar   77  TYR77      -0.0009
     74  CD2        4.6730    0.5160    2.7080 C.ar   77  TYR77      -0.0009
     75  CE1        3.8040    2.8020    3.9900 C.ar   77  TYR77       0.0417
     76  CE2        5.2650    0.8980    3.8860 C.ar   77  TYR77       0.0417
     77  CZ         4.8190    2.0420    4.5250 C.ar   77  TYR77       0.1957
     78  OH         5.3710    2.4710    5.6790 O.3    77  TYR77      -0.2866
     79  N         -2.7410   -0.7590    0.3720 N.3    80  GLN80      -0.1245
     80  CA        -3.2730    0.1760    1.3400 C.3    80  GLN80       0.1566
     81  C         -4.1850   -0.5610    2.3130 C.2    80  GLN80       0.2260
     82  O         -5.3360   -0.1610    2.5840 O.2    80  GLN80      -0.2867
     83  CB        -3.9870    1.3410    0.6520 C.3    80  GLN80       0.0367
     84  CG        -3.1530    2.0510   -0.3870 C.3    80  GLN80       0.0905
     85  CD        -3.9420    3.1750   -1.0440 C.2    80  GLN80       0.2608
     86  OE1       -4.0840    4.2600   -0.4780 O.2    80  GLN80      -0.2717
     87  NE2       -4.5320    2.8850   -2.1920 N.am   80  GLN80      -0.0878
     88  N         -4.0000   -3.7160    5.8040 N.3    82  TYR82      -0.1241
     89  CA        -3.3420   -4.7410    6.6000 C.3    82  TYR82       0.1605
     90  C         -3.5930   -6.1200    6.0040 C.2    82  TYR82       0.2264
     91  O         -4.6350   -6.3870    5.4010 O.2    82  TYR82      -0.2867
     92  CB        -3.8230   -4.7490    8.0420 C.3    82  TYR82       0.0534
     93  CG        -3.5440   -3.4240    8.7440 C.ar   82  TYR82      -0.0201
     94  CD1       -2.2750   -3.1230    9.2060 C.ar   82  TYR82      -0.0009
     95  CD2       -4.5500   -2.4690    8.8700 C.ar   82  TYR82      -0.0009
     96  CE1       -2.0280   -1.9090    9.8580 C.ar   82  TYR82       0.0417
     97  CE2       -4.3060   -1.2310    9.4710 C.ar   82  TYR82       0.0417
     98  CZ        -3.0510   -0.9730    9.9470 C.ar   82  TYR82       0.1957
     99  OH        -2.8180    0.2440   10.5470 O.3    82  TYR82      -0.2866
@<TRIPOS>BOND
     1    87    85   am
     2    85    86    2
     3    85    84    1
     4    70    69    2
     5    69    68    1
     6    84    83    1
     7    79    80    1
     8    83    80    1
     9    71    68    1
    10    71    72    1
    11    68    67    1
    12    80    81    1
    13    41    40    2
    14    72    74   ar
    15    72    73   ar
    16    44    43    1
    17    81    82    2
    18    74    76   ar
    19    73    75   ar
    20    40    39    1
    21    43    45    1
    22    43    42    1
    23    76    77   ar
    24    39    42    1
    25    39    38    1
    26    75    77   ar
    27    33    32    2
    28    61    62   ar
    29    61    59   ar
    30    64    62   ar
    31    64    66   ar
    32    77    78    1
    33    62    60   ar
    34    56    55    2
    35    55    54    1
    36    59    58   ar
    37    66    65   ar
    38    32    38   am
    39    32    31    1
    40    91    90    2
    41    46    47    1
    42    51    50    1
    43    60    58   ar
    44    60    63   ar
    45    58    57    1
    46    88    89    1
    47    90    89    1
    48    65    63   ar
    49    54    57    1
    50    54    53    1
    51    36    35    1
    52    36    37    1
    53    31    30    1
    54    31    34    1
    55    89    92    1
    56    52    50    1
    57    50    47    1
    58    35    34    1
    59    47    48    1
    60    48    49    2
    61    92    93    1
    62    23    20    1
    63    23    24    1
    64    93    95   ar
    65    93    94   ar
    66    25    24    1
    67    25    26    1
    68    95    97   ar
    69    94    96   ar
    70    97    98   ar
    71    20    19    1
    72    20    21    1
    73    26    27    2
    74    96    98   ar
    75    98    99    1
    76    22    21    2
    77    11    13   ar
    78    11     8   ar
    79    19    17   am
    80    13    14   ar
    81     5     6    1
    82     5     2    1
    83    27    29    1
    84    27    28    1
    85     8     6   ar
    86     8    10   ar
    87    14    12   ar
    88    17    18    2
    89    17    16    1
    90     4     3    2
    91     6     7   ar
    92     3     2    1
    93    16    15    1
    94    10    12   ar
    95    10     9   ar
    96     7     9   ar
    97     2     1    1
