@<TRIPOS>MOLECULE
tmp/5khaB01.pdb
 131 123 0 0 0
SMALL
GASTEIGER

@<TRIPOS>ATOM
      1  N        -43.2620   10.9550   64.0840 N.3   274  TYR274     -0.1241
      2  CA       -42.6600    9.9210   64.9160 C.3   274  TYR274      0.1605
      3  C        -43.7110    9.2930   65.8340 C.2   274  TYR274      0.2264
      4  O        -43.7660    8.0670   65.9940 O.2   274  TYR274     -0.2867
      5  CB       -41.4870   10.4740   65.7290 C.3   274  TYR274      0.0534
      6  CG       -40.6880    9.3480   66.3770 C.ar  274  TYR274     -0.0201
      7  CD1      -39.7580    8.6240   65.6310 C.ar  274  TYR274     -0.0009
      8  CD2      -40.8910    8.9730   67.7130 C.ar  274  TYR274     -0.0009
      9  CE1      -39.0380    7.5660   66.1850 C.ar  274  TYR274      0.0417
     10  CE2      -40.1480    7.9010   68.2940 C.ar  274  TYR274      0.0417
     11  CZ       -39.2270    7.2040   67.5020 C.ar  274  TYR274      0.1957
     12  OH       -38.4700    6.1540   67.9930 O.3   274  TYR274     -0.2866
     13  N        -44.8340    5.2120   64.8920 N.3   278  SER278     -0.1217
     14  CA       -44.5620    4.2040   65.9030 C.3   278  SER278      0.1889
     15  C        -45.8290    3.7170   66.5840 C.2   278  SER278      0.2288
     16  O        -45.7550    2.8370   67.4460 O.2   278  SER278     -0.2866
     17  CB       -43.5740    4.7480   66.9300 C.3   278  SER278      0.2089
     18  OG       -42.4520    5.3210   66.2820 O.3   278  SER278     -0.2183
     19  N        -47.8960    5.3180   68.7530 N.3   280  PHE280     -0.1241
     20  CA       -48.1000    5.7050   70.1580 C.3   280  PHE280      0.1605
     21  C        -49.4920    6.3100   70.3590 C.2   280  PHE280      0.2264
     22  O        -49.9610    7.0680   69.5110 O.2   280  PHE280     -0.2867
     23  CB       -47.0510    6.7230   70.5990 C.3   280  PHE280      0.0534
     24  CG       -45.7110    6.1310   70.8940 C.ar  280  PHE280     -0.0203
     25  CD1      -45.4830    5.4600   72.0900 C.ar  280  PHE280     -0.0042
     26  CD2      -44.6600    6.2740   69.9920 C.ar  280  PHE280     -0.0042
     27  CE1      -44.2340    4.9290   72.3730 C.ar  280  PHE280     -0.0003
     28  CE2      -43.4170    5.7320   70.2690 C.ar  280  PHE280     -0.0003
     29  CZ       -43.2040    5.0520   71.4590 C.ar  280  PHE280     -0.0000
     30  N        -40.8750    7.1130   83.0410 N.3   379  MET379     -0.1245
     31  CA       -40.8590    5.8210   82.3650 C.3   379  MET379      0.1570
     32  C        -41.8110    4.8260   83.0270 C.2   379  MET379      0.2261
     33  O        -42.3150    3.9200   82.3620 O.2   379  MET379     -0.2867
     34  CB       -39.4340    5.2620   82.3220 C.3   379  MET379      0.0387
     35  CG       -38.5230    6.0020   81.3420 C.3   379  MET379      0.0595
     36  SD       -39.1590    5.9300   79.6470 S.3   379  MET379     -0.1393
     37  CE       -39.0170    4.1680   79.3430 C.3   379  MET379      0.0692
     38  N        -44.9790    5.7780   81.3800 N.3   382  SER382     -0.1202
     39  CA       -44.8800    5.3630   79.9840 C.3   382  SER382      0.2020
     40  C        -45.0540    3.8570   79.8430 C.2   382  SER382      0.2618
     41  O        -45.8130    3.3910   78.9870 O.2   382  SER382     -0.2717
     42  CB       -43.5340    5.8120   79.4120 C.3   382  SER382      0.2103
     43  OG       -43.3900    5.4060   78.0570 O.3   382  SER382     -0.2182
     44  N        -44.3240    3.0800   80.6540 N.am  383  ASN383     -0.1974
     45  CA       -44.4580    1.6250   80.6360 C.3   383  ASN383      0.1688
     46  C        -45.9050    1.2000   80.8690 C.2   383  ASN383      0.2292
     47  O        -46.4030    0.2780   80.2160 O.2   383  ASN383     -0.2864
     48  CB       -43.5770    0.9860   81.7190 C.3   383  ASN383      0.1181
     49  CG       -42.0900    1.0220   81.4020 C.2   383  ASN383      0.2629
     50  OD1      -41.2680    0.6900   82.2650 O.2   383  ASN383     -0.2716
     51  ND2      -41.7300    1.4230   80.1820 N.am  383  ASN383     -0.0877
     52  N        -48.4050    3.6420   78.0210 N.3   386  GLY386     -0.1210
     53  CA       -47.9790    3.6470   76.6330 C.3   386  GLY386      0.1956
     54  C        -47.6690    4.9920   75.9920 C.2   386  GLY386      0.2612
     55  O        -47.4030    5.0210   74.7840 O.2   386  GLY386     -0.2717
     56  N        -47.6950    6.1100   76.7260 N.am  387  ASN387     -0.1960
     57  CA       -47.3220    7.3650   76.0740 C.3   387  ASN387      0.1819
     58  C        -45.8170    7.4270   75.8190 C.2   387  ASN387      0.2621
     59  O        -45.0070    6.9990   76.6450 O.2   387  ASN387     -0.2715
     60  CB       -47.7470    8.5740   76.8950 C.3   387  ASN387      0.1195
     61  CG       -49.2430    8.7670   76.9010 C.2   387  ASN387      0.2630
     62  OD1      -49.9310    8.3640   75.9630 O.2   387  ASN387     -0.2716
     63  ND2      -49.7560    9.3950   77.9540 N.am  387  ASN387     -0.0877
     64  N        -45.4510    7.9650   74.6580 N.am  388  LEU388     -0.1963
     65  CA       -44.0540    8.2570   74.3480 C.3   388  LEU388      0.1728
     66  C        -43.5380    9.3890   75.2300 C.2   388  LEU388      0.2616
     67  O        -44.1880   10.4290   75.3600 O.2   388  LEU388     -0.2715
     68  CB       -43.9160    8.6390   72.8740 C.3   388  LEU388      0.0311
     69  CG       -42.6020    9.2900   72.4150 C.3   388  LEU388      0.0022
     70  CD1      -41.4770    8.2810   72.4130 C.3   388  LEU388      0.0001
     71  CD2      -42.7580    9.9540   71.0390 C.3   388  LEU388      0.0001
     72  N        -42.3680    9.1960   75.8300 N.am  389  VAL389     -0.1977
     73  CA       -41.7450   10.2660   76.6020 C.3   389  VAL389      0.1596
     74  C        -40.9690   11.1880   75.6680 C.2   389  VAL389      0.2287
     75  O        -40.0940   10.7420   74.9120 O.2   389  VAL389     -0.2864
     76  CB       -40.8180    9.7070   77.6910 C.3   389  VAL389      0.0276
     77  CG1      -40.1400   10.8740   78.4170 C.3   389  VAL389      0.0022
     78  CG2      -41.5730    8.7590   78.6740 C.3   389  VAL389      0.0022
     79  N        -37.9880    8.9190   74.3260 N.3   412  GLY412     -0.1225
     80  CA       -37.9360    8.2020   73.0650 C.3   412  GLY412      0.1811
     81  C        -37.8160    9.1400   71.8760 C.2   412  GLY412      0.2280
     82  O        -37.5620    8.6970   70.7500 O.2   412  GLY412     -0.2866
     83  N        -38.5490   -4.3090   66.2820 N.3   491  ARG491     -0.1245
     84  CA       -39.2510   -3.3950   67.1660 C.3   491  ARG491      0.1563
     85  C        -38.3160   -2.7590   68.1750 C.2   491  ARG491      0.2260
     86  O        -38.6090   -1.6710   68.6720 O.2   491  ARG491     -0.2867
     87  CB       -40.3800   -4.1290   67.8890 C.3   491  ARG491      0.0307
     88  CG       -41.2830   -3.2260   68.7070 C.3   491  ARG491      0.0489
     89  CD       -42.3090   -4.0380   69.4690 C.3   491  ARG491      0.2205
     90  NE       -42.9680   -5.0100   68.6010 N.pl3 491  ARG491     -0.0865
     91  CZ       -43.9800   -4.7220   67.7870 C.cat 491  ARG491      0.5346
     92  NH1      -44.4520   -3.4790   67.7270 N.pl3 491  ARG491      0.1354
     93  NH2      -44.5170   -5.6760   67.0320 N.pl3 491  ARG491      0.1354
     94  N        -35.0130    1.0060   68.2960 N.3   494  TYR494     -0.1227
     95  CA       -34.9190    2.2590   69.0520 C.3   494  TYR494      0.1736
     96  C        -34.2030    2.0560   70.3850 C.2   494  TYR494      0.2595
     97  O        -33.4740    2.9420   70.8440 O.2   494  TYR494     -0.2718
     98  CB       -36.3070    2.8630   69.3100 C.3   494  TYR494      0.0548
     99  CG       -36.9820    2.1720   70.4700 C.ar  494  TYR494     -0.0200
    100  CD1      -37.5750    0.9230   70.2920 C.ar  494  TYR494     -0.0009
    101  CD2      -36.9510    2.7220   71.7620 C.ar  494  TYR494     -0.0009
    102  CE1      -38.1720    0.2540   71.3450 C.ar  494  TYR494      0.0417
    103  CE2      -37.5460    2.0480   72.8400 C.ar  494  TYR494      0.0417
    104  CZ       -38.1530    0.8150   72.6110 C.ar  494  TYR494      0.1957
    105  OH       -38.7470    0.1170   73.6240 O.3   494  TYR494     -0.2866
    106  N        -34.4110    0.8980   71.0300 N.am  495  LYS495     -0.1980
    107  CA       -33.8250    0.6730   72.3510 C.3   495  LYS495      0.1596
    108  C        -32.3170    0.4510   72.2420 C.2   495  LYS495      0.2287
    109  O        -31.5370    1.0100   73.0260 O.2   495  LYS495     -0.2864
    110  CB       -34.5360   -0.5130   73.0330 C.3   495  LYS495      0.0298
    111  CG       -34.0270   -0.9190   74.4250 C.3   495  LYS495      0.0038
    112  CD       -34.8260   -2.1270   75.0290 C.3   495  LYS495      0.0206
    113  CE       -36.2180   -1.7280   75.5040 C.3   495  LYS495      0.1093
    114  NZ       -37.0070   -2.8390   76.1410 N.3   495  LYS495     -0.1314
    115  N        -29.9030    3.5910   72.2770 N.3   498  GLN498     -0.1245
    116  CA       -29.6000    4.3260   73.5000 C.3   498  GLN498      0.1566
    117  C        -28.6360    3.5800   74.4160 C.2   498  GLN498      0.2260
    118  O        -28.2160    4.1350   75.4290 O.2   498  GLN498     -0.2867
    119  CB       -30.9140    4.6480   74.2300 C.3   498  GLN498      0.0367
    120  CG       -31.8450    5.5540   73.4190 C.3   498  GLN498      0.0905
    121  CD       -32.9930    6.1570   74.2440 C.2   498  GLN498      0.2608
    122  OE1      -32.8680    6.3910   75.4440 O.2   498  GLN498     -0.2717
    123  NE2      -34.1230    6.3780   73.5950 N.am  498  GLN498     -0.0878
    124  N        -35.3940    3.1570   62.4820 N.3   518  ILE518     -0.1245
    125  CA       -36.2430    2.9240   63.6430 C.3   518  ILE518      0.1561
    126  C        -37.6710    2.7150   63.1740 C.2   518  ILE518      0.2260
    127  O        -38.2430    1.6290   63.3380 O.2   518  ILE518     -0.2867
    128  CB       -36.1430    4.0950   64.6380 C.3   518  ILE518      0.0252
    129  CG1      -34.7530    4.1330   65.2600 C.3   518  ILE518      0.0019
    130  CG2      -37.2080    3.9710   65.7180 C.3   518  ILE518      0.0019
    131  CD1      -34.2840    5.5120   65.5950 C.3   518  ILE518      0.0001
@<TRIPOS>BOND
     1   124   125    1
     2   126   127    2
     3   126   125    1
     4   125   128    1
     5     1     2    1
     6   128   129    1
     7   128   130    1
     8    13    14    1
     9     2     5    1
    10     2     3    1
    11   129   131    1
    12     7     9   ar
    13     7     6   ar
    14     5     6    1
    15     3     4    2
    16    14    15    1
    17    14    17    1
    18     9    11   ar
    19    18    17    1
    20    83    84    1
    21     6     8   ar
    22    15    16    2
    23    93    91    1
    24    84    87    1
    25    84    85    1
    26    11    12    1
    27    11    10   ar
    28     8    10   ar
    29    92    91    1
    30    91    90    2
    31    87    88    1
    32    85    86    2
    33    94    95    1
    34    90    89    1
    35    88    89    1
    36    19    20    1
    37    95    98    1
    38    95    96    1
    39    98    99    1
    40    22    21    2
    41    26    28   ar
    42    26    24   ar
    43    20    21    1
    44    20    23    1
    45    28    29   ar
    46   100    99   ar
    47   100   102   ar
    48    96    97    2
    49    96   106   am
    50    99   101   ar
    51    23    24    1
    52    82    81    2
    53    24    25   ar
    54   106   107    1
    55    71    69    1
    56   102   104   ar
    57    29    27   ar
    58   101   103   ar
    59    81    80    1
    60    25    27   ar
    61   108   107    1
    62   108   109    2
    63   115   116    1
    64   107   110    1
    65    70    69    1
    66    69    68    1
    67   104   103   ar
    68   104   105    1
    69    68    65    1
    70   110   111    1
    71    80    79    1
    72   120   119    1
    73   120   121    1
    74   116   119    1
    75   116   117    1
    76   123   121   am
    77   121   122    2
    78    65    64    1
    79    65    66    1
    80   117   118    2
    81   111   112    1
    82    64    58   am
    83    55    54    2
    84    75    74    2
    85   112   113    1
    86    66    67    2
    87    66    72   am
    88   113   114    1
    89    74    73    1
    90    58    57    1
    91    58    59    2
    92    72    73    1
    93    62    61    2
    94    54    53    1
    95    54    56   am
    96    57    56    1
    97    57    60    1
    98    73    76    1
    99    53    52    1
   100    60    61    1
   101    61    63   am
   102    76    77    1
   103    76    78    1
   104    43    42    1
   105    41    40    2
   106    37    36    1
   107    42    39    1
   108    36    35    1
   109    40    39    1
   110    40    44   am
   111    39    38    1
   112    51    49   am
   113    47    46    2
   114    45    44    1
   115    45    46    1
   116    45    48    1
   117    35    34    1
   118    49    48    1
   119    49    50    2
   120    34    31    1
   121    33    32    2
   122    31    32    1
   123    31    30    1
