@<TRIPOS>MOLECULE
tmp/5khjB00.pdb
 136 127 0 0 0
SMALL
GASTEIGER

@<TRIPOS>ATOM
      1  N        -11.0330   26.0490   -5.7180 N.3   103  ILE103     -0.1245
      2  CA       -12.3970   25.6650   -6.0540 C.3   103  ILE103      0.1561
      3  C        -12.8340   26.3490   -7.3560 C.2   103  ILE103      0.2260
      4  O        -12.4890   27.5060   -7.5950 O.2   103  ILE103     -0.2867
      5  CB       -13.3630   26.0950   -4.9450 C.3   103  ILE103      0.0252
      6  CG1      -13.1680   25.1880   -3.7240 C.3   103  ILE103      0.0019
      7  CG2      -14.8220   26.1400   -5.3940 C.3   103  ILE103      0.0019
      8  CD1      -13.9830   25.6700   -2.5630 C.3   103  ILE103      0.0001
      9  N        -12.7380   35.1560   -3.3600 N.3   122  VAL122     -0.1245
     10  CA       -13.9200   34.4640   -3.7480 C.3   122  VAL122      0.1561
     11  C        -14.4420   35.2510   -4.9170 C.2   122  VAL122      0.2260
     12  O        -14.6770   36.4450   -4.7880 O.2   122  VAL122     -0.2867
     13  CB       -14.9540   34.4000   -2.6510 C.3   122  VAL122      0.0252
     14  CG1      -16.1740   33.6560   -3.1650 C.3   122  VAL122      0.0019
     15  CG2      -14.3810   33.8060   -1.3760 C.3   122  VAL122      0.0019
     16  N        -17.3840   35.1020   -7.6020 N.3   124  THR124     -0.1218
     17  CA       -18.6950   34.6340   -7.9840 C.3   124  THR124      0.1862
     18  C        -19.0570   35.3450   -9.3100 C.2   124  THR124      0.2287
     19  O        -19.0740   36.5670   -9.3500 O.2   124  THR124     -0.2866
     20  CB       -19.7530   35.0620   -6.9060 C.3   124  THR124      0.1770
     21  OG1      -19.2410   34.8630   -5.5720 O.3   124  THR124     -0.2211
     22  CG2      -21.0860   34.3130   -7.0800 C.3   124  THR124      0.0375
     23  N        -14.5350   39.1410   -3.1320 N.3   130  MET130     -0.1245
     24  CA       -14.3180   39.3930   -1.7270 C.3   130  MET130      0.1570
     25  C        -13.2230   38.4390   -1.2870 C.2   130  MET130      0.2261
     26  O        -12.8580   37.5000   -2.0090 O.2   130  MET130     -0.2867
     27  CB       -15.5680   39.1470   -0.9520 C.3   130  MET130      0.0387
     28  CG       -16.2490   37.8350   -1.3020 C.3   130  MET130      0.0595
     29  SD       -17.3950   37.2880   -0.0400 S.3   130  MET130     -0.1393
     30  CE       -16.2070   36.8050    1.2150 C.3   130  MET130      0.0692
     31  N        -11.0730   36.2790    1.8550 N.3   132  LEU132     -0.1245
     32  CA       -11.1660   35.5550    3.1090 C.3   132  LEU132      0.1561
     33  C         -9.7330   35.2790    3.5220 C.2   132  LEU132      0.2260
     34  O         -8.8310   35.1280    2.6650 O.2   132  LEU132     -0.2867
     35  CB       -11.9120   34.2500    2.8880 C.3   132  LEU132      0.0270
     36  CG       -13.4140   34.2980    2.6550 C.3   132  LEU132      0.0019
     37  CD1      -13.9060   32.9140    2.3550 C.3   132  LEU132      0.0001
     38  CD2      -14.1370   34.8630    3.8480 C.3   132  LEU132      0.0001
     39  N        -14.2020   27.9940    3.8870 N.3   138  PHE138     -0.1227
     40  CA       -14.9980   28.0860    2.6160 C.3   138  PHE138      0.1736
     41  C        -15.2080   26.7030    2.0220 C.2   138  PHE138      0.2596
     42  O        -14.4680   25.7450    2.3290 O.2   138  PHE138     -0.2718
     43  CB       -14.3760   29.0430    1.5490 C.3   138  PHE138      0.0547
     44  CG       -12.9890   28.6780    1.0890 C.ar  138  PHE138     -0.0202
     45  CD1      -12.7780   27.7260    0.0990 C.ar  138  PHE138     -0.0042
     46  CD2      -11.8480   29.2500    1.7020 C.ar  138  PHE138     -0.0042
     47  CE1      -11.4730   27.3600   -0.2830 C.ar  138  PHE138     -0.0003
     48  CE2      -10.5410   28.8960    1.3060 C.ar  138  PHE138     -0.0003
     49  CZ       -10.3520   27.9630    0.3190 C.ar  138  PHE138     -0.0000
     50  N        -16.2200   26.6170    1.1690 N.am  139  GLY139     -0.1942
     51  CA       -16.6010   25.3470    0.5490 C.3   139  GLY139      0.2014
     52  C        -17.6490   24.5860    1.2890 C.2   139  GLY139      0.2639
     53  O        -17.9210   23.4770    0.9440 O.2   139  GLY139     -0.2714
     54  N        -18.2140   25.1890    2.3190 N.am  140  GLU140     -0.1963
     55  CA       -19.1770   24.5330    3.1890 C.3   140  GLU140      0.1733
     56  C        -20.5460   24.3700    2.5880 C.2   140  GLU140      0.2616
     57  O        -21.2830   23.4590    2.9680 O.2   140  GLU140     -0.2715
     58  CB       -19.3230   25.2640    4.5420 C.3   140  GLU140      0.0429
     59  CG       -19.9680   26.6620    4.4990 C.3   140  GLU140      0.1163
     60  CD       -19.0720   27.7170    3.8490 C.2   140  GLU140      0.3649
     61  OE1      -17.8250   27.5670    3.9210 O.co2 140  GLU140     -0.2457
     62  OE2      -19.5880   28.6960    3.2860 O.co2 140  GLU140     -0.2457
     63  N        -20.9010   25.2470    1.6650 N.am  141  ILE141     -0.1963
     64  CA       -22.2460   25.2170    1.0330 C.3   141  ILE141      0.1727
     65  C        -22.5140   23.9110    0.2790 C.2   141  ILE141      0.2616
     66  O        -23.6240   23.3890    0.3520 O.2   141  ILE141     -0.2715
     67  CB       -22.4150   26.3750    0.0550 C.3   141  ILE141      0.0290
     68  CG1      -22.2070   27.6990    0.8040 C.3   141  ILE141      0.0022
     69  CG2      -23.7560   26.3070   -0.6330 C.3   141  ILE141      0.0023
     70  CD1      -22.2920   28.9850   -0.0230 C.3   141  ILE141      0.0001
     71  N        -21.5220   23.3710   -0.4300 N.am  142  CYS142     -0.1968
     72  CA       -21.7360   22.1030   -1.1330 C.3   142  CYS142      0.1712
     73  C        -21.7980   20.9010   -0.2080 C.2   142  CYS142      0.2296
     74  O        -22.4300   19.9200   -0.5360 O.2   142  CYS142     -0.2864
     75  CB       -20.6620   21.8580   -2.1910 C.3   142  CYS142      0.0983
     76  SG       -21.1890   22.7620   -3.6130 S.3   142  CYS142     -0.0798
     77  N        -20.7800   24.1510   -6.6600 N.3   149  ARG149     -0.1231
     78  CA       -19.9540   25.2590   -6.1860 C.3   149  ARG149      0.1694
     79  C        -20.5400   26.5420   -6.6740 C.2   149  ARG149      0.2593
     80  O        -20.6400   26.8170   -7.8920 O.2   149  ARG149     -0.2718
     81  CB       -18.4750   25.2230   -6.6860 C.3   149  ARG149      0.0321
     82  CG       -17.6480   24.0610   -6.1840 C.3   149  ARG149      0.0489
     83  CD       -17.5410   23.9950   -4.6800 C.3   149  ARG149      0.2205
     84  NE       -16.3930   23.1730   -4.2530 N.pl3 149  ARG149     -0.0865
     85  CZ       -16.1550   22.7770   -3.0090 C.cat 149  ARG149      0.5346
     86  NH1      -16.9600   23.1670   -2.0530 N.pl3 149  ARG149      0.1354
     87  NH2      -15.1250   21.9990   -2.7260 N.pl3 149  ARG149      0.1354
     88  N        -20.8230   27.3790   -5.7110 N.am  150  THR150     -0.1939
     89  CA       -21.5020   28.6500   -5.9510 C.3   150  THR150      0.2028
     90  C        -20.5580   29.8120   -6.3590 C.2   150  THR150      0.2642
     91  O        -21.0070   30.9420   -6.6070 O.2   150  THR150     -0.2714
     92  CB       -22.2250   29.0600   -4.6580 C.3   150  THR150      0.1808
     93  OG1      -21.2410   29.2920   -3.6380 O.3   150  THR150     -0.2208
     94  CG2      -23.2770   28.0110   -4.2030 C.3   150  THR150      0.0379
     95  N        -19.2580   29.5380   -6.3310 N.am  151  ALA151     -0.1977
     96  CA       -18.2250   30.4900   -6.6810 C.3   151  ALA151      0.1597
     97  C        -16.8700   29.7610   -6.8590 C.2   151  ALA151      0.2287
     98  O        -16.7470   28.5930   -6.4740 O.2   151  ALA151     -0.2864
     99  CB       -18.1460   31.5500   -5.6050 C.3   151  ALA151      0.0319
    100  N        -12.7490   29.7970   -5.9130 N.3   153  VAL153     -0.1245
    101  CA       -11.8860   30.3260   -4.8900 C.3   153  VAL153      0.1561
    102  C        -10.4570   30.1430   -5.2980 C.2   153  VAL153      0.2260
    103  O        -10.0000   29.0160   -5.5880 O.2   153  VAL153     -0.2867
    104  CB       -12.1890   29.7540   -3.5020 C.3   153  VAL153      0.0252
    105  CG1      -11.3400   30.4690   -2.4470 C.3   153  VAL153      0.0019
    106  CG2      -13.6840   29.8740   -3.1660 C.3   153  VAL153      0.0019
    107  N        -23.6440   33.9350    3.1890 N.3   190  ARG190     -0.1245
    108  CA       -23.0190   33.9660    1.8640 C.3   190  ARG190      0.1563
    109  C        -24.0250   33.7540    0.7300 C.2   190  ARG190      0.2260
    110  O        -23.9210   34.4080   -0.3330 O.2   190  ARG190     -0.2867
    111  CB       -21.8860   32.9490    1.7830 C.3   190  ARG190      0.0307
    112  CG       -20.7390   33.3770    2.6510 C.3   190  ARG190      0.0489
    113  CD       -19.8330   32.2210    2.9850 C.3   190  ARG190      0.2205
    114  NE       -18.7290   32.6750    3.8020 N.pl3 190  ARG190     -0.0865
    115  CZ       -17.7670   31.8870    4.2930 C.cat 190  ARG190      0.5346
    116  NH1      -17.7590   30.5730    4.0540 N.pl3 190  ARG190      0.1354
    117  NH2      -16.8050   32.4260    5.0030 N.pl3 190  ARG190      0.1354
    118  N        -25.8660   37.0240    0.0730 N.3   193  ARG193     -0.1231
    119  CA       -25.0410   37.8940   -0.7510 C.3   193  ARG193      0.1694
    120  C        -25.1480   37.5770   -2.2450 C.2   193  ARG193      0.2591
    121  O        -25.2090   38.4880   -3.0680 O.2   193  ARG193     -0.2718
    122  CB       -23.5850   37.7900   -0.2770 C.3   193  ARG193      0.0321
    123  CG       -22.5880   38.6010   -1.0540 C.3   193  ARG193      0.0489
    124  CD       -21.2080   38.5180   -0.4180 C.3   193  ARG193      0.2205
    125  NE       -20.3240   39.3690   -1.1770 N.pl3 193  ARG193     -0.0865
    126  CZ       -19.6590   39.0260   -2.2740 C.cat 193  ARG193      0.5346
    127  NH1      -19.6790   37.7860   -2.7590 N.pl3 193  ARG193      0.1354
    128  NH2      -18.9290   39.9360   -2.8740 N.pl3 193  ARG193      0.1354
    129  N        -25.1750   36.2990   -2.6210 N.am  194  ILE194     -0.1980
    130  CA       -25.2150   35.9430   -4.0160 C.3   194  ILE194      0.1595
    131  C        -26.6480   35.6860   -4.4930 C.2   194  ILE194      0.2287
    132  O        -26.8420   35.0450   -5.5460 O.2   194  ILE194     -0.2864
    133  CB       -24.3470   34.6760   -4.3770 C.3   194  ILE194      0.0276
    134  CG1      -24.7000   33.4700   -3.5110 C.3   194  ILE194      0.0022
    135  CG2      -22.8650   34.9210   -4.2540 C.3   194  ILE194      0.0022
    136  CD1      -23.9530   32.1940   -3.9020 C.3   194  ILE194      0.0001
@<TRIPOS>BOND
     1    19    18    2
     2    18    17    1
     3    17    16    1
     4    17    20    1
     5    80    79    2
     6     4     3    2
     7     3     2    1
     8    22    20    1
     9    20    21    1
    10    97    96    1
    11    97    98    2
    12    81    78    1
    13    81    82    1
    14    96    95    1
    15    96    99    1
    16    79    78    1
    17    79    88   am
    18    77    78    1
    19    91    90    2
    20    90    95   am
    21    90    89    1
    22    82    83    1
    23     2     1    1
    24     2     5    1
    25    89    88    1
    26    89    92    1
    27   100   101    1
    28   103   102    2
    29   132   131    2
    30     7     5    1
    31   102   101    1
    32     5     6    1
    33    11    12    2
    34    11    10    1
    35   101   104    1
    36    83    84    1
    37    92    94    1
    38    92    93    1
    39   131   130    1
    40   133   135    1
    41   133   130    1
    42   133   134    1
    43    84    85    2
    44   130   129    1
    45   136   134    1
    46    10     9    1
    47    10    13    1
    48     6     8    1
    49    76    75    1
    50   104   106    1
    51   104   105    1
    52    14    13    1
    53    23    24    1
    54   121   120    2
    55    85    87    1
    56    85    86    1
    57   128   126    1
    58   127   126    1
    59    13    15    1
    60   129   120   am
    61   126   125    2
    62   120   119    1
    63    75    72    1
    64    26    25    2
    65    24    25    1
    66    24    27    1
    67    28    27    1
    68    28    29    1
    69   125   124    1
    70    72    71    1
    71    72    73    1
    72   123   124    1
    73   123   122    1
    74   119   122    1
    75   119   118    1
    76    69    67    1
    77    74    73    2
    78    71    65   am
    79   110   109    2
    80    47    45   ar
    81    47    49   ar
    82    29    30    1
    83    70    68    1
    84    67    68    1
    85    67    64    1
    86    45    44   ar
    87    65    66    2
    88    65    64    1
    89    49    48   ar
    90    51    50    1
    91    51    52    1
    92   109   108    1
    93    53    52    2
    94    64    63    1
    95    44    43    1
    96    44    46   ar
    97    50    41   am
    98    52    54   am
    99    48    46   ar
   100    43    40    1
   101    63    56   am
   102   111   108    1
   103   111   112    1
   104    31    32    1
   105   108   107    1
   106    41    42    2
   107    41    40    1
   108    54    55    1
   109    37    36    1
   110    56    57    2
   111    56    55    1
   112    40    39    1
   113   112   113    1
   114    36    35    1
   115    36    38    1
   116    34    33    2
   117    35    32    1
   118   113   114    1
   119    32    33    1
   120    55    58    1
   121    62    60   ar
   122   114   115    2
   123    60    61   ar
   124    60    59    1
   125   116   115    1
   126   115   117    1
   127    59    58    1
