@<TRIPOS>MOLECULE
tmp/5khpC00.pdb
 96 94 0 0 0
SMALL
GASTEIGER

@<TRIPOS>ATOM
      1  N         58.3810   43.7140   40.5770 N.3    35  ASN35      -0.1225
      2  CA        59.6840   43.0510   40.6050 C.3    35  ASN35       0.1785
      3  C         59.6620   41.6710   39.9880 C.2    35  ASN35       0.2597
      4  O         60.7120   41.1580   39.6290 O.2    35  ASN35      -0.2718
      5  CB        60.2520   43.0070   42.0370 C.3    35  ASN35       0.1169
      6  CG        59.5440   42.0080   42.9330 C.2    35  ASN35       0.2627
      7  OD1       58.4400   41.5360   42.6290 O.2    35  ASN35      -0.2716
      8  ND2       60.1210   41.7850   44.1080 N.am   35  ASN35      -0.0877
      9  N         58.4770   41.1450   39.7170 N.am   36  ALA36      -0.1966
     10  CA        58.3200   39.9270   38.8990 C.3    36  ALA36       0.1728
     11  C         57.5140   40.1930   37.6460 C.2    36  ALA36       0.2616
     12  O         56.8390   39.2950   37.1450 O.2    36  ALA36      -0.2715
     13  CB        57.6490   38.8210   39.7040 C.3    36  ALA36       0.0334
     14  N         57.5610   41.4380   37.1710 N.am   37  ILE37      -0.1977
     15  CA        56.9510   41.8500   35.9160 C.3    37  ILE37       0.1596
     16  C         58.0230   42.3040   34.9270 C.2    37  ILE37       0.2287
     17  O         58.7630   43.2330   35.2160 O.2    37  ILE37      -0.2864
     18  CB        56.0290   43.0680   36.1310 C.3    37  ILE37       0.0276
     19  CG1       54.9120   42.7410   37.1210 C.3    37  ILE37       0.0022
     20  CG2       55.4810   43.5660   34.7970 C.3    37  ILE37       0.0022
     21  CD1       53.8000   41.9120   36.5420 C.3    37  ILE37       0.0001
     22  N         39.3000   36.8650   44.5790 N.3    77  ARG77      -0.1245
     23  CA        39.9930   37.1250   45.8160 C.3    77  ARG77       0.1563
     24  C         38.9710   37.7380   46.7320 C.2    77  ARG77       0.2260
     25  O         38.0680   38.4110   46.2580 O.2    77  ARG77      -0.2867
     26  CB        41.1450   38.1150   45.5760 C.3    77  ARG77       0.0307
     27  CG        42.1270   37.7390   44.4770 C.3    77  ARG77       0.0489
     28  CD        43.2650   36.9140   45.0860 C.3    77  ARG77       0.2205
     29  NE        44.2480   36.3820   44.1430 N.pl3  77  ARG77      -0.0865
     30  CZ        44.1050   35.2690   43.4440 C.cat  77  ARG77       0.5346
     31  NH1       42.9170   34.6840   43.3130 N.pl3  77  ARG77       0.1354
     32  NH2       45.1190   34.8620   42.7010 N.pl3  77  ARG77       0.1354
     33  N         49.9850   38.9150   52.4260 N.3   102  TYR102     -0.1241
     34  CA        49.3960   39.5450   51.2620 C.3   102  TYR102      0.1605
     35  C         48.7390   40.8410   51.6730 C.2   102  TYR102      0.2264
     36  O         47.8920   40.8670   52.5510 O.2   102  TYR102     -0.2867
     37  CB        48.3880   38.6070   50.6260 C.3   102  TYR102      0.0534
     38  CG        47.8930   39.0230   49.2720 C.ar  102  TYR102     -0.0201
     39  CD1       47.0100   40.0960   49.1380 C.ar  102  TYR102     -0.0009
     40  CD2       48.3140   38.3710   48.1150 C.ar  102  TYR102     -0.0009
     41  CE1       46.4820   40.4400   47.9040 C.ar  102  TYR102      0.0417
     42  CE2       47.8160   38.7300   46.8680 C.ar  102  TYR102      0.0417
     43  CZ        46.8450   39.7210   46.7870 C.ar  102  TYR102      0.1957
     44  OH        46.3390   40.1140   45.5740 O.3   102  TYR102     -0.2866
     45  N         50.5800   46.3360   45.7820 N.3   119  PHE119     -0.1241
     46  CA        50.3880   44.9680   46.2200 C.3   119  PHE119      0.1605
     47  C         51.7430   44.3770   46.6560 C.2   119  PHE119      0.2264
     48  O         52.7100   44.4610   45.9270 O.2   119  PHE119     -0.2867
     49  CB        49.8240   44.0570   45.1050 C.3   119  PHE119      0.0534
     50  CG        48.4760   44.4530   44.5740 C.ar  119  PHE119     -0.0203
     51  CD1       48.3670   45.3480   43.5210 C.ar  119  PHE119     -0.0042
     52  CD2       47.3410   43.8140   45.0010 C.ar  119  PHE119     -0.0042
     53  CE1       47.1490   45.7020   42.9960 C.ar  119  PHE119     -0.0003
     54  CE2       46.1000   44.1850   44.4970 C.ar  119  PHE119     -0.0003
     55  CZ        46.0150   45.1170   43.4760 C.ar  119  PHE119     -0.0000
     56  N         53.2580   40.6890   48.3850 N.3   121  LYS121     -0.1245
     57  CA        53.0080   39.3760   48.9220 C.3   121  LYS121      0.1561
     58  C         54.2950   38.6030   49.1770 C.2   121  LYS121      0.2260
     59  O         55.3510   38.8660   48.5960 O.2   121  LYS121     -0.2867
     60  CB        52.1230   38.6190   47.9650 C.3   121  LYS121      0.0271
     61  CG        52.8080   38.1830   46.6930 C.3   121  LYS121      0.0035
     62  CD        51.7850   37.4470   45.8640 C.3   121  LYS121      0.0206
     63  CE        52.3710   37.0330   44.5430 C.3   121  LYS121      0.1093
     64  NZ        51.2880   36.4780   43.6860 N.3   121  LYS121     -0.1314
     65  N         57.3210   39.6400   46.7320 N.3   128  TYR128     -0.1227
     66  CA        56.9340   40.1830   45.4440 C.3   128  TYR128      0.1736
     67  C         56.1010   41.4300   45.6680 C.2   128  TYR128      0.2595
     68  O         55.2950   41.5060   46.5970 O.2   128  TYR128     -0.2718
     69  CB        56.0880   39.1940   44.6630 C.3   128  TYR128      0.0548
     70  CG        56.7660   37.9110   44.3300 C.ar  128  TYR128     -0.0200
     71  CD1       57.6710   37.8380   43.2920 C.ar  128  TYR128     -0.0009
     72  CD2       56.5150   36.7570   45.0690 C.ar  128  TYR128     -0.0009
     73  CE1       58.3360   36.6700   43.0070 C.ar  128  TYR128      0.0417
     74  CE2       57.1470   35.5690   44.7730 C.ar  128  TYR128      0.0417
     75  CZ        58.0250   35.5210   43.7040 C.ar  128  TYR128      0.1957
     76  OH        58.6880   34.3380   43.4270 O.3   128  TYR128     -0.2866
     77  N         56.2950   42.4220   44.8140 N.am  129  PHE129     -0.1962
     78  CA        55.4170   43.5710   44.8300 C.3   129  PHE129      0.1771
     79  C         55.0770   43.9870   43.4160 C.2   129  PHE129      0.2619
     80  O         55.7930   43.6840   42.4580 O.2   129  PHE129     -0.2715
     81  CB        56.0170   44.7530   45.6220 C.3   129  PHE129      0.0574
     82  CG        57.1500   45.4600   44.9300 C.ar  129  PHE129     -0.0200
     83  CD1       58.4290   44.9590   45.0030 C.ar  129  PHE129     -0.0042
     84  CD2       56.9450   46.6360   44.2670 C.ar  129  PHE129     -0.0042
     85  CE1       59.4920   45.6230   44.4230 C.ar  129  PHE129     -0.0003
     86  CE2       58.0010   47.3310   43.7080 C.ar  129  PHE129     -0.0003
     87  CZ        59.2780   46.8350   43.7900 C.ar  129  PHE129     -0.0000
     88  N         53.9560   44.6840   43.3120 N.am  130  LYS130     -0.1977
     89  CA        53.6020   45.3090   42.0880 C.3   130  LYS130      0.1596
     90  C         52.6580   46.4370   42.3390 C.2   130  LYS130      0.2287
     91  O         52.0950   46.5470   43.4140 O.2   130  LYS130     -0.2864
     92  CB        52.9380   44.3020   41.1780 C.3   130  LYS130      0.0298
     93  CG        51.6220   43.8030   41.6820 C.3   130  LYS130      0.0038
     94  CD        50.9800   42.9550   40.6200 C.3   130  LYS130      0.0206
     95  CE        49.7090   42.3070   41.1700 C.3   130  LYS130      0.1093
     96  NZ        49.3800   41.1150   40.3500 N.3   130  LYS130     -0.1314
@<TRIPOS>BOND
     1    20    18    1
     2    16    17    2
     3    16    15    1
     4    15    18    1
     5    15    14    1
     6    18    19    1
     7    21    19    1
     8    12    11    2
     9    14    11   am
    10    11    10    1
    11    10    13    1
    12    10     9    1
    13     4     3    2
    14     9     3   am
    15     3     2    1
    16    96    95    1
    17     1     2    1
    18     2     5    1
    19    94    95    1
    20    94    93    1
    21    92    93    1
    22    92    89    1
    23     5     6    1
    24    89    90    1
    25    89    88    1
    26    90    91    2
    27    80    79    2
    28     7     6    2
    29    32    30    1
    30     6     8   am
    31    53    55   ar
    32    53    51   ar
    33    73    71   ar
    34    73    75   ar
    35    71    70   ar
    36    88    79   am
    37    31    30    1
    38    79    78    1
    39    76    75    1
    40    30    29    2
    41    55    54   ar
    42    51    50   ar
    43    64    63    1
    44    75    74   ar
    45    86    87   ar
    46    86    84   ar
    47    87    85   ar
    48    29    28    1
    49    84    82   ar
    50    70    69    1
    51    70    72   ar
    52    85    83   ar
    53    27    28    1
    54    27    26    1
    55    54    52   ar
    56    63    62    1
    57    50    52   ar
    58    50    49    1
    59    22    23    1
    60    69    66    1
    61    74    72   ar
    62    77    78    1
    63    77    67   am
    64    78    81    1
    65    82    83   ar
    66    82    81    1
    67    49    46    1
    68    66    67    1
    69    66    65    1
    70    44    43    1
    71    26    23    1
    72    67    68    2
    73    45    46    1
    74    23    24    1
    75    62    61    1
    76    48    47    2
    77    46    47    1
    78    25    24    2
    79    61    60    1
    80    43    42   ar
    81    43    41   ar
    82    42    40   ar
    83    41    39   ar
    84    60    57    1
    85    40    38   ar
    86    56    57    1
    87    59    58    2
    88    57    58    1
    89    39    38   ar
    90    38    37    1
    91    37    34    1
    92    34    35    1
    93    34    33    1
    94    35    36    2
