@<TRIPOS>MOLECULE
tmp/5kijA02.pdb
 98 91 0 0 0
SMALL
GASTEIGER

@<TRIPOS>ATOM
      1  N          1.8590   -7.8940   -9.7520 N.3    85  PHE85      -0.1227
      2  CA         1.2190   -7.1010   -8.7050 C.3    85  PHE85       0.1736
      3  C          2.0250   -5.8370   -8.3690 C.2    85  PHE85       0.2595
      4  O          1.4780   -4.7250   -8.3460 O.2    85  PHE85      -0.2718
      5  CB         1.0180   -8.0140   -7.4880 C.3    85  PHE85       0.0547
      6  CG         0.9010   -7.3100   -6.1600 C.ar   85  PHE85      -0.0202
      7  CD1       -0.2900   -6.7360   -5.7660 C.ar   85  PHE85      -0.0042
      8  CD2        1.9700   -7.3220   -5.2660 C.ar   85  PHE85      -0.0042
      9  CE1       -0.4000   -6.1220   -4.5280 C.ar   85  PHE85      -0.0003
     10  CE2        1.8750   -6.7080   -4.0240 C.ar   85  PHE85      -0.0003
     11  CZ         0.6860   -6.1140   -3.6510 C.ar   85  PHE85      -0.0000
     12  N          3.3340   -5.9800   -8.1150 N.am   86  GLU86      -0.1979
     13  CA         4.1280   -4.8210   -7.7200 C.3    86  GLU86       0.1602
     14  C          4.1700   -3.7950   -8.8390 C.2    86  GLU86       0.2287
     15  O          4.0850   -2.5820   -8.5900 O.2    86  GLU86      -0.2864
     16  CB         5.5490   -5.2480   -7.3260 C.3    86  GLU86       0.0415
     17  CG         5.6200   -6.1760   -6.1280 C.3    86  GLU86       0.1163
     18  CD         5.4480   -5.4470   -4.7950 C.2    86  GLU86       0.3649
     19  OE1        5.2080   -4.2240   -4.8020 O.co2  86  GLU86      -0.2457
     20  OE2        5.5570   -6.1050   -3.7380 O.co2  86  GLU86      -0.2457
     21  N          0.5770   -2.0250   -8.9480 N.3    89  ILE89      -0.1245
     22  CA         0.1860   -1.1080   -7.8860 C.3    89  ILE89       0.1561
     23  C          1.1340    0.0760   -7.8390 C.2    89  ILE89       0.2260
     24  O          0.7270    1.1840   -7.4820 O.2    89  ILE89      -0.2867
     25  CB         0.1020   -1.8230   -6.5270 C.3    89  ILE89       0.0252
     26  CG1        1.4780   -2.2960   -6.0650 C.3    89  ILE89       0.0019
     27  CG2       -0.9460   -2.9450   -6.6140 C.3    89  ILE89       0.0019
     28  CD1        1.5110   -2.7870   -4.6370 C.3    89  ILE89       0.0001
     29  N         -0.0750  -15.8160   -6.0440 N.3   150  THR150     -0.1218
     30  CA        -0.4460  -15.3660   -4.7130 C.3   150  THR150      0.1862
     31  C         -1.8120  -14.6850   -4.7830 C.2   150  THR150      0.2287
     32  O         -2.0780  -13.9060   -5.7020 O.2   150  THR150     -0.2866
     33  CB         0.6430  -14.4230   -4.1850 C.3   150  THR150      0.1770
     34  OG1        1.8060  -15.1950   -3.8340 O.3   150  THR150     -0.2211
     35  CG2        0.1720  -13.6120   -2.9940 C.3   150  THR150      0.0375
     36  N         -3.5270  -12.3980   -2.9390 N.3   152  ALA152     -0.1231
     37  CA        -3.5750  -10.9370   -2.9100 C.3   152  ALA152      0.1694
     38  C         -3.0110  -10.3460   -4.1900 C.2   152  ALA152      0.2591
     39  O         -3.4610   -9.2880   -4.6470 O.2   152  ALA152     -0.2718
     40  CB        -2.7990  -10.3780   -1.7120 C.3   152  ALA152      0.0304
     41  N         -2.0220  -11.0040   -4.7800 N.am  153  GLU153     -0.1979
     42  CA        -1.3950  -10.4400   -5.9660 C.3   153  GLU153      0.1602
     43  C         -2.3480  -10.4370   -7.1570 C.2   153  GLU153      0.2287
     44  O         -2.4160   -9.4440   -7.8910 O.2   153  GLU153     -0.2864
     45  CB        -0.0970  -11.1880   -6.2740 C.3   153  GLU153      0.0415
     46  CG         1.0170  -10.8300   -5.2940 C.3   153  GLU153      0.1163
     47  CD         2.3830  -11.4340   -5.6160 C.2   153  GLU153      0.3649
     48  OE1        2.6240  -11.8770   -6.7630 O.co2 153  GLU153     -0.2457
     49  OE2        3.2160  -11.4530   -4.6840 O.co2 153  GLU153     -0.2457
     50  N          0.4860  -10.6130    4.8850 N.3   216  ALA216     -0.1231
     51  CA         1.0440  -10.7320    3.5420 C.3   216  ALA216      0.1694
     52  C          0.4270  -11.9060    2.7990 C.2   216  ALA216      0.2591
     53  O          0.2910  -13.0070    3.3480 O.2   216  ALA216     -0.2718
     54  CB         2.5610  -10.9210    3.6090 C.3   216  ALA216      0.0304
     55  N          0.1250  -11.6660    1.5180 N.am  217  ARG217     -0.1980
     56  CA        -0.3700  -12.5620    0.4730 C.3   217  ARG217      0.1597
     57  C         -1.8880  -12.7040    0.5420 C.2   217  ARG217      0.2287
     58  O         -2.4680  -13.3510   -0.3400 O.2   217  ARG217     -0.2864
     59  CB         0.3080  -13.9460    0.4860 C.3   217  ARG217      0.0334
     60  CG         1.8330  -13.7940    0.3640 C.3   217  ARG217      0.0492
     61  CD         2.5760  -14.9870   -0.2280 C.3   217  ARG217      0.2205
     62  NE         4.0170  -14.7300   -0.1940 N.pl3 217  ARG217     -0.0865
     63  CZ         4.7420  -14.3160   -1.2310 C.cat 217  ARG217      0.5346
     64  NH1        4.1620  -14.1130   -2.4060 N.pl3 217  ARG217      0.1354
     65  NH2        6.0510  -14.0920   -1.0890 N.pl3 217  ARG217      0.1354
     66  N         -3.9260   -9.8430    2.4790 N.3   219  ASP219     -0.1225
     67  CA        -4.5090   -8.5870    2.9760 C.3   219  ASP219      0.1805
     68  C         -5.3030   -7.8130    1.9190 C.2   219  ASP219      0.2598
     69  O         -6.4640   -7.4530    2.1440 O.2   219  ASP219     -0.2718
     70  CB        -3.4140   -7.6880    3.5810 C.3   219  ASP219      0.1424
     71  CG        -2.1670   -7.5770    2.7170 C.2   219  ASP219      0.3668
     72  OD1       -2.1430   -8.0890    1.5850 O.co2 219  ASP219     -0.2456
     73  OD2       -1.1940   -6.9510    3.1770 O.co2 219  ASP219     -0.2456
     74  N         -4.6920   -7.5110    0.7720 N.am  220  SER220     -0.1952
     75  CA        -5.3500   -6.5650   -0.1200 C.3   220  SER220      0.1924
     76  C         -6.4510   -7.1960   -0.9630 C.2   220  SER220      0.2314
     77  O         -7.1810   -6.4590   -1.6380 O.2   220  SER220     -0.2863
     78  CB        -4.3140   -5.8460   -1.0190 C.3   220  SER220      0.2116
     79  OG        -3.4020   -6.7340   -1.6580 O.3   220  SER220     -0.2180
     80  N          1.3430   -5.4030    8.4040 N.3   281  LEU281     -0.1245
     81  CA         0.4640   -5.2820    7.2420 C.3   281  LEU281      0.1561
     82  C         -1.0140   -5.3310    7.6240 C.2   281  LEU281      0.2260
     83  O         -1.8530   -4.7120    6.9590 O.2   281  LEU281     -0.2867
     84  CB         0.7750   -6.3970    6.2500 C.3   281  LEU281      0.0270
     85  CG         2.1120   -6.2890    5.5170 C.3   281  LEU281      0.0019
     86  CD1        2.4540   -7.5720    4.8050 C.3   281  LEU281      0.0001
     87  CD2        2.1060   -5.1130    4.5310 C.3   281  LEU281      0.0001
     88  N          7.1900    1.1460    6.6040 N.3   353  ARG353     -0.1245
     89  CA         5.9050    0.7720    6.0370 C.3   353  ARG353      0.1563
     90  C          4.7720    1.7090    6.4730 C.2   353  ARG353      0.2260
     91  O          4.8060    2.2840    7.5570 O.2   353  ARG353     -0.2867
     92  CB         5.5660   -0.6560    6.4200 C.3   353  ARG353      0.0307
     93  CG         6.4750   -1.7120    5.7630 C.3   353  ARG353      0.0489
     94  CD         5.8400   -3.0860    5.9590 C.3   353  ARG353      0.2205
     95  NE         6.7310   -4.1920    5.6290 N.pl3 353  ARG353     -0.0865
     96  CZ         6.8660   -4.7260    4.4160 C.cat 353  ARG353      0.5346
     97  NH1        6.1800   -4.2510    3.3780 N.pl3 353  ARG353      0.1354
     98  NH2        7.7040   -5.7520    4.2390 N.pl3 353  ARG353      0.1354
@<TRIPOS>BOND
     1     1     2    1
     2    21    22    1
     3    14    15    2
     4    14    13    1
     5     2     3    1
     6     2     5    1
     7     3     4    2
     8     3    12   am
     9    12    13    1
    10    44    43    2
    11    22    23    1
    12    22    25    1
    13    23    24    2
    14    13    16    1
    15     5     6    1
    16    16    17    1
    17    43    42    1
    18    48    47   ar
    19    27    25    1
    20    25    26    1
    21    45    42    1
    22    45    46    1
    23     6     7   ar
    24     6     8   ar
    25    17    18    1
    26    26    28    1
    27    29    30    1
    28    42    41    1
    29     7     9   ar
    30    32    31    2
    31    47    46    1
    32    47    49   ar
    33     8    10   ar
    34    19    18   ar
    35    18    20   ar
    36    31    30    1
    37    41    38   am
    38    30    33    1
    39    39    38    2
    40     9    11   ar
    41    38    37    1
    42    33    34    1
    43    33    35    1
    44    10    11   ar
    45    36    37    1
    46    37    40    1
    47    64    63    1
    48    79    78    1
    49    77    76    2
    50    63    65    1
    51    63    62    2
    52    78    75    1
    53    76    75    1
    54    58    57    2
    55    61    62    1
    56    61    60    1
    57    75    74    1
    58    60    59    1
    59    56    59    1
    60    56    57    1
    61    56    55    1
    62    74    68   am
    63    55    52   am
    64    72    71   ar
    65    68    69    2
    66    68    67    1
    67    66    67    1
    68    71    73   ar
    69    71    70    1
    70    52    53    2
    71    52    51    1
    72    67    70    1
    73    97    96    1
    74    51    54    1
    75    51    50    1
    76    98    96    1
    77    96    95    2
    78    87    85    1
    79    86    85    1
    80    85    84    1
    81    95    94    1
    82    93    94    1
    83    93    92    1
    84    89    92    1
    85    89    90    1
    86    89    88    1
    87    84    81    1
    88    90    91    2
    89    83    82    2
    90    81    82    1
    91    81    80    1
