@<TRIPOS>MOLECULE
tmp/5kijA01.pdb
 133 127 0 0 0
SMALL
GASTEIGER

@<TRIPOS>ATOM
      1  N          1.8590   -7.8940   -9.7520 N.3    85  PHE85      -0.1227
      2  CA         1.2190   -7.1010   -8.7050 C.3    85  PHE85       0.1736
      3  C          2.0250   -5.8370   -8.3690 C.2    85  PHE85       0.2595
      4  O          1.4780   -4.7250   -8.3460 O.2    85  PHE85      -0.2718
      5  CB         1.0180   -8.0140   -7.4880 C.3    85  PHE85       0.0547
      6  CG         0.9010   -7.3100   -6.1600 C.ar   85  PHE85      -0.0202
      7  CD1       -0.2900   -6.7360   -5.7660 C.ar   85  PHE85      -0.0042
      8  CD2        1.9700   -7.3220   -5.2660 C.ar   85  PHE85      -0.0042
      9  CE1       -0.4000   -6.1220   -4.5280 C.ar   85  PHE85      -0.0003
     10  CE2        1.8750   -6.7080   -4.0240 C.ar   85  PHE85      -0.0003
     11  CZ         0.6860   -6.1140   -3.6510 C.ar   85  PHE85      -0.0000
     12  N          3.3340   -5.9800   -8.1150 N.am   86  GLU86      -0.1979
     13  CA         4.1280   -4.8210   -7.7200 C.3    86  GLU86       0.1602
     14  C          4.1700   -3.7950   -8.8390 C.2    86  GLU86       0.2287
     15  O          4.0850   -2.5820   -8.5900 O.2    86  GLU86      -0.2864
     16  CB         5.5490   -5.2480   -7.3260 C.3    86  GLU86       0.0415
     17  CG         5.6200   -6.1760   -6.1280 C.3    86  GLU86       0.1163
     18  CD         5.4480   -5.4470   -4.7950 C.2    86  GLU86       0.3649
     19  OE1        5.2080   -4.2240   -4.8020 O.co2  86  GLU86      -0.2457
     20  OE2        5.5570   -6.1050   -3.7380 O.co2  86  GLU86      -0.2457
     21  N          0.5770   -2.0250   -8.9480 N.3    89  ILE89      -0.1231
     22  CA         0.1860   -1.1080   -7.8860 C.3    89  ILE89       0.1692
     23  C          1.1340    0.0760   -7.8390 C.2    89  ILE89       0.2591
     24  O          0.7270    1.1840   -7.4820 O.2    89  ILE89      -0.2718
     25  CB         0.1020   -1.8230   -6.5270 C.3    89  ILE89       0.0266
     26  CG1        1.4780   -2.2960   -6.0650 C.3    89  ILE89       0.0019
     27  CG2       -0.9460   -2.9450   -6.6140 C.3    89  ILE89       0.0020
     28  CD1        1.5110   -2.7870   -4.6370 C.3    89  ILE89       0.0001
     29  N          2.4030   -0.1230   -8.2060 N.am   90  ARG90      -0.1980
     30  CA         3.3700    0.9640   -8.0900 C.3    90  ARG90       0.1597
     31  C          3.4690    1.7910   -9.3700 C.2    90  ARG90       0.2287
     32  O          3.2470    3.0050   -9.3500 O.2    90  ARG90      -0.2864
     33  CB         4.7380    0.3890   -7.7050 C.3    90  ARG90       0.0334
     34  CG         4.7180   -0.4670   -6.4230 C.3    90  ARG90       0.0492
     35  CD         6.1180   -0.5050   -5.8040 C.3    90  ARG90       0.2205
     36  NE         6.2760   -1.5660   -4.8060 N.pl3  90  ARG90      -0.0865
     37  CZ         7.2320   -1.5940   -3.8770 C.cat  90  ARG90       0.5346
     38  NH1        8.1150   -0.6040   -3.7860 N.pl3  90  ARG90       0.1354
     39  NH2        7.3070   -2.6160   -3.0350 N.pl3  90  ARG90       0.1354
     40  N         -3.9260   -9.8430    2.4790 N.3   219  ASP219     -0.1225
     41  CA        -4.5090   -8.5870    2.9760 C.3   219  ASP219      0.1805
     42  C         -5.3030   -7.8130    1.9190 C.2   219  ASP219      0.2598
     43  O         -6.4640   -7.4530    2.1440 O.2   219  ASP219     -0.2718
     44  CB        -3.4140   -7.6880    3.5810 C.3   219  ASP219      0.1424
     45  CG        -2.1670   -7.5770    2.7170 C.2   219  ASP219      0.3668
     46  OD1       -2.1430   -8.0890    1.5850 O.co2 219  ASP219     -0.2456
     47  OD2       -1.1940   -6.9510    3.1770 O.co2 219  ASP219     -0.2456
     48  N         -4.6920   -7.5110    0.7720 N.am  220  SER220     -0.1952
     49  CA        -5.3500   -6.5650   -0.1200 C.3   220  SER220      0.1924
     50  C         -6.4510   -7.1960   -0.9630 C.2   220  SER220      0.2314
     51  O         -7.1810   -6.4590   -1.6380 O.2   220  SER220     -0.2863
     52  CB        -4.3140   -5.8460   -1.0190 C.3   220  SER220      0.2116
     53  OG        -3.4020   -6.7340   -1.6580 O.3   220  SER220     -0.2180
     54  N          1.3430   -5.4030    8.4040 N.3   281  LEU281     -0.1245
     55  CA         0.4640   -5.2820    7.2420 C.3   281  LEU281      0.1561
     56  C         -1.0140   -5.3310    7.6240 C.2   281  LEU281      0.2260
     57  O         -1.8530   -4.7120    6.9590 O.2   281  LEU281     -0.2867
     58  CB         0.7750   -6.3970    6.2500 C.3   281  LEU281      0.0270
     59  CG         2.1120   -6.2890    5.5170 C.3   281  LEU281      0.0019
     60  CD1        2.4540   -7.5720    4.8050 C.3   281  LEU281      0.0001
     61  CD2        2.1060   -5.1130    4.5310 C.3   281  LEU281      0.0001
     62  N          7.1900    1.1460    6.6040 N.3   353  ARG353     -0.1231
     63  CA         5.9050    0.7720    6.0370 C.3   353  ARG353      0.1679
     64  C          4.7720    1.7090    6.4730 C.2   353  ARG353      0.2434
     65  O          4.8060    2.2840    7.5570 O.2   353  ARG353     -0.2733
     66  CB         5.5660   -0.6560    6.4200 C.3   353  ARG353      0.0321
     67  CG         6.4750   -1.7120    5.7630 C.3   353  ARG353      0.0489
     68  CD         5.8400   -3.0860    5.9590 C.3   353  ARG353      0.2205
     69  NE         6.7310   -4.1920    5.6290 N.pl3 353  ARG353     -0.0865
     70  CZ         6.8660   -4.7260    4.4160 C.cat 353  ARG353      0.5346
     71  NH1        6.1800   -4.2510    3.3780 N.pl3 353  ARG353      0.1354
     72  NH2        7.7040   -5.7520    4.2390 N.pl3 353  ARG353      0.1354
     73  N          3.7540    1.8640    5.6270 N.am  354  PRO354     -0.2718
     74  CA         2.7180    2.8960    5.8110 C.3   354  PRO354      0.1535
     75  C          1.4340    2.4730    6.5150 C.2   354  PRO354      0.2598
     76  O          0.5810    3.3380    6.7160 O.2   354  PRO354     -0.2715
     77  CB         2.4040    3.2630    4.3580 C.3   354  PRO354      0.0310
     78  CG         2.5410    1.9390    3.6170 C.3   354  PRO354      0.0237
     79  CD         3.7590    1.2990    4.2640 C.3   354  PRO354      0.0939
     80  N          1.2460    1.2030    6.8830 N.am  355  GLU355     -0.1978
     81  CA        -0.1260    0.7710    7.1320 C.3   355  GLU355      0.1602
     82  C         -0.7340    1.4230    8.3690 C.2   355  GLU355      0.2287
     83  O         -1.9480    1.6480    8.3980 O.2   355  GLU355     -0.2864
     84  CB        -0.1930   -0.7460    7.2200 C.3   355  GLU355      0.0415
     85  CG         0.1090   -1.4540    5.8870 C.3   355  GLU355      0.1163
     86  CD         1.6040   -1.5620    5.6080 C.2   355  GLU355      0.3649
     87  OE1        2.4070   -1.4220    6.5510 O.co2 355  GLU355     -0.2457
     88  OE2        1.9690   -1.7860    4.4490 O.co2 355  GLU355     -0.2457
     89  N         -1.5640    4.9370    7.1780 N.3   358  GLU358     -0.1245
     90  CA        -2.6490    4.7030    6.2300 C.3   358  GLU358      0.1567
     91  C         -3.9960    4.6700    6.9430 C.2   358  GLU358      0.2260
     92  O         -4.9410    5.3740    6.5680 O.2   358  GLU358     -0.2867
     93  CB        -2.3950    3.3900    5.4830 C.3   358  GLU358      0.0388
     94  CG        -3.4940    3.0200    4.4880 C.3   358  GLU358      0.1160
     95  CD        -3.2960    1.6590    3.8560 C.2   358  GLU358      0.3649
     96  OE1       -2.3090    0.9720    4.1950 O.co2 358  GLU358     -0.2457
     97  OE2       -4.1680    1.2630    3.0480 O.co2 358  GLU358     -0.2457
     98  N          7.7140    2.9870   -1.1610 N.3   415  PHE415     -0.1241
     99  CA         6.4600    3.3430   -0.5160 C.3   415  PHE415      0.1605
    100  C          6.6440    4.2870    0.6680 C.2   415  PHE415      0.2264
    101  O          5.6520    4.7940    1.2080 O.2   415  PHE415     -0.2867
    102  CB         5.7010    2.0810   -0.0950 C.3   415  PHE415      0.0534
    103  CG         6.5190    1.0850    0.6820 C.ar  415  PHE415     -0.0203
    104  CD1        6.8630    1.3250    2.0060 C.ar  415  PHE415     -0.0042
    105  CD2        6.8950   -0.1200    0.1040 C.ar  415  PHE415     -0.0042
    106  CE1        7.6040    0.4020    2.7340 C.ar  415  PHE415     -0.0003
    107  CE2        7.6360   -1.0660    0.8270 C.ar  415  PHE415     -0.0003
    108  CZ         7.9780   -0.8030    2.1540 C.ar  415  PHE415     -0.0000
    109  N          3.6400    6.3330   -0.1030 N.3   419  GLU419     -0.1245
    110  CA         2.5350    6.0950    0.8190 C.3   419  GLU419      0.1567
    111  C          2.7070    6.7820    2.1650 C.2   419  GLU419      0.2260
    112  O          1.8220    7.5470    2.5740 O.2   419  GLU419     -0.2867
    113  CB         2.3500    4.5980    1.0530 C.3   419  GLU419      0.0388
    114  CG         2.1410    3.7620   -0.1730 C.3   419  GLU419      0.1160
    115  CD         1.5240    2.4250    0.1950 C.2   419  GLU419      0.3649
    116  OE1        0.4260    2.4400    0.7940 O.co2 419  GLU419     -0.2457
    117  OE2        2.1540    1.3820   -0.0740 O.co2 419  GLU419     -0.2457
    118  N         -3.6510    0.2970   -3.5890 N.3   444  THR444     -0.1203
    119  CA        -2.9960   -0.2070   -2.3870 C.3   444  THR444      0.1994
    120  C         -1.5720    0.3240   -2.2230 C.2   444  THR444      0.2617
    121  O         -0.9220    0.0260   -1.2050 O.2   444  THR444     -0.2717
    122  CB        -3.0580   -1.7410   -2.3520 C.3   444  THR444      0.1784
    123  OG1       -2.7450   -2.1860   -1.0250 O.3   444  THR444     -0.2211
    124  CG2       -2.1050   -2.3710   -3.3470 C.3   444  THR444      0.0376
    125  N         -1.1060    1.1480   -3.1670 N.am  445  GLU445     -0.1979
    126  CA         0.1140    1.9360   -3.0410 C.3   445  GLU445      0.1602
    127  C         -0.1970    3.4350   -2.9230 C.2   445  GLU445      0.2287
    128  O          0.6160    4.2870   -3.3010 O.2   445  GLU445     -0.2864
    129  CB         1.0380    1.6510   -4.2280 C.3   445  GLU445      0.0415
    130  CG         2.5000    2.0960   -4.0720 C.3   445  GLU445      0.1163
    131  CD         3.4260    1.0840   -3.4240 C.2   445  GLU445      0.3649
    132  OE1        2.9790   -0.0380   -3.1200 O.co2 445  GLU445     -0.2457
    133  OE2        4.6210    1.4250   -3.2250 O.co2 445  GLU445     -0.2457
@<TRIPOS>BOND
     1     1     2    1
     2    31    32    2
     3    31    30    1
     4    21    22    1
     5    14    15    2
     6    14    13    1
     7     2     3    1
     8     2     5    1
     9     3     4    2
    10     3    12   am
    11    29    30    1
    12    29    23   am
    13    12    13    1
    14    30    33    1
    15    22    23    1
    16    22    25    1
    17    23    24    2
    18    13    16    1
    19    33    34    1
    20     5     6    1
    21    16    17    1
    22    27    25    1
    23    25    26    1
    24    34    35    1
    25     6     7   ar
    26     6     8   ar
    27    17    18    1
    28    26    28    1
    29    35    36    1
    30     7     9   ar
    31     8    10   ar
    32    36    37    2
    33    19    18   ar
    34    18    20   ar
    35     9    11   ar
    36   129   130    1
    37   129   126    1
    38   130   131    1
    39    10    11   ar
    40    37    38    1
    41    37    39    1
    42   118   119    1
    43   131   133   ar
    44   131   132   ar
    45   124   122    1
    46   128   127    2
    47   125   126    1
    48   125   120   am
    49   126   127    1
    50   119   122    1
    51   119   120    1
    52   122   123    1
    53   120   121    2
    54    53    52    1
    55    51    50    2
    56    98    99    1
    57    52    49    1
    58    50    49    1
    59    99   102    1
    60    99   100    1
    61   114   115    1
    62   114   113    1
    63    49    48    1
    64   109   110    1
    65   102   103    1
    66   117   115   ar
    67   105   103   ar
    68   105   107   ar
    69   115   116   ar
    70   100   101    2
    71   103   104   ar
    72    48    42   am
    73   110   113    1
    74   110   111    1
    75   107   108   ar
    76    46    45   ar
    77    42    43    2
    78    42    41    1
    79   104   106   ar
    80   108   106   ar
    81   111   112    2
    82    40    41    1
    83    45    47   ar
    84    45    44    1
    85    41    44    1
    86    97    95   ar
    87    71    70    1
    88    78    79    1
    89    78    77    1
    90    95    96   ar
    91    95    94    1
    92    72    70    1
    93    79    73    1
    94    77    74    1
    95    70    69    2
    96    88    86   ar
    97    94    93    1
    98    61    59    1
    99    60    59    1
   100    93    90    1
   101    59    58    1
   102    86    85    1
   103    86    87   ar
   104    73    74    1
   105    73    64   am
   106    69    68    1
   107    67    68    1
   108    67    66    1
   109    74    75    1
   110    85    84    1
   111    63    66    1
   112    63    64    1
   113    63    62    1
   114    90    91    1
   115    90    89    1
   116    58    55    1
   117    64    65    2
   118    75    76    2
   119    75    80   am
   120    92    91    2
   121    80    81    1
   122    57    56    2
   123    81    84    1
   124    81    82    1
   125    55    56    1
   126    55    54    1
   127    82    83    2
