@<TRIPOS>MOLECULE
tmp/5kijA07.pdb
 92 92 0 0 0
SMALL
GASTEIGER

@<TRIPOS>ATOM
      1  N         15.4640   -3.0100   -9.2000 N.3    40  TRP40      -0.1227
      2  CA        14.8750   -4.3280   -9.4410 C.3    40  TRP40       0.1737
      3  C         13.9400   -4.3500  -10.6420 C.2    40  TRP40       0.2595
      4  O         13.8980   -5.3600  -11.3430 O.2    40  TRP40      -0.2718
      5  CB        14.1490   -4.9040   -8.1960 C.3    40  TRP40       0.0564
      6  CG        13.1310   -4.0480   -7.5220 C.ar   40  TRP40       0.0003
      7  CD1       13.3020   -2.7700   -7.0810 C.ar   40  TRP40       0.0946
      8  CD2       11.8010   -4.4330   -7.1330 C.ar   40  TRP40       0.0152
      9  NE1       12.1520   -2.3210   -6.4710 N.ar   40  TRP40      -0.2442
     10  CE2       11.2180   -3.3240   -6.4850 C.ar   40  TRP40       0.0810
     11  CE3       11.0490   -5.6050   -7.2710 C.ar   40  TRP40       0.0012
     12  CZ2        9.9120   -3.3490   -5.9820 C.ar   40  TRP40       0.0191
     13  CZ3        9.7570   -5.6280   -6.7720 C.ar   40  TRP40       0.0001
     14  CH2        9.2000   -4.4990   -6.1410 C.ar   40  TRP40       0.0015
     15  N         13.2000   -3.2650  -10.9010 N.am   41  PHE41      -0.1976
     16  CA        12.5180   -3.0730  -12.1810 C.3    41  PHE41       0.1639
     17  C         13.4220   -2.4110  -13.2140 C.2    41  PHE41       0.2290
     18  O         13.3130   -2.6940  -14.4150 O.2    41  PHE41      -0.2864
     19  CB        11.2880   -2.1580  -12.0440 C.3    41  PHE41       0.0560
     20  CG        10.1380   -2.7180  -11.2440 C.ar   41  PHE41      -0.0200
     21  CD1        9.5300   -3.9100  -11.5860 C.ar   41  PHE41      -0.0042
     22  CD2        9.6110   -1.9880  -10.1870 C.ar   41  PHE41      -0.0042
     23  CE1        8.4540   -4.3890  -10.8580 C.ar   41  PHE41      -0.0003
     24  CE2        8.5350   -2.4590   -9.4600 C.ar   41  PHE41      -0.0003
     25  CZ         7.9560   -3.6640   -9.7970 C.ar   41  PHE41      -0.0000
     26  N         12.1410   -9.3110  -16.0150 N.3    81  ASP81      -0.1225
     27  CA        10.9620   -9.9310  -15.4160 C.3    81  ASP81       0.1805
     28  C         10.4100   -9.0350  -14.3170 C.2    81  ASP81       0.2598
     29  O         11.1410   -8.6450  -13.4040 O.2    81  ASP81      -0.2718
     30  CB        11.3110  -11.2950  -14.8220 C.3    81  ASP81       0.1424
     31  CG        11.3600  -12.3880  -15.8550 C.2    81  ASP81       0.3668
     32  OD1       11.6170  -13.5500  -15.4730 O.co2  81  ASP81      -0.2456
     33  OD2       11.1300  -12.0880  -17.0400 O.co2  81  ASP81      -0.2456
     34  N          9.1230   -8.7190  -14.3870 N.am   82  VAL82      -0.1966
     35  CA         8.4980   -7.9300  -13.3350 C.3    82  VAL82       0.1727
     36  C          7.3990   -8.7450  -12.6670 C.2    82  VAL82       0.2616
     37  O          6.7730   -9.6120  -13.2830 O.2    82  VAL82      -0.2715
     38  CB         7.9510   -6.5920  -13.8710 C.3    82  VAL82       0.0290
     39  CG1        9.0590   -5.8360  -14.5790 C.3    82  VAL82       0.0023
     40  CG2        6.7570   -6.8230  -14.8090 C.3    82  VAL82       0.0023
     41  N          7.2160   -8.4970  -11.3780 N.am   83  ASN83      -0.1972
     42  CA         6.0680   -9.0150  -10.6470 C.3    83  ASN83       0.1688
     43  C          4.8260   -8.2520  -11.0800 C.2    83  ASN83       0.2292
     44  O          4.8010   -7.0190  -11.0320 O.2    83  ASN83      -0.2864
     45  CB         6.2980   -8.8550   -9.1460 C.3    83  ASN83       0.1181
     46  CG         5.1600   -9.4160   -8.3140 C.2    83  ASN83       0.2629
     47  OD1        4.2120   -8.7020   -7.9890 O.2    83  ASN83      -0.2716
     48  ND2        5.2530  -10.7080   -7.9560 N.am   83  ASN83      -0.0877
     49  N          2.5490  -15.0020  -12.0140 N.3   131  SER131     -0.1202
     50  CA         3.1220  -14.0380  -11.0820 C.3   131  SER131      0.2020
     51  C          4.0380  -13.0470  -11.7860 C.2   131  SER131      0.2618
     52  O          4.0540  -11.8560  -11.4470 O.2   131  SER131     -0.2717
     53  CB         3.8980  -14.7630   -9.9890 C.3   131  SER131      0.2103
     54  OG         4.8240  -13.8810   -9.3880 O.3   131  SER131     -0.2182
     55  N          4.8260  -13.5260  -12.7460 N.am  132  ASP132     -0.1973
     56  CA         5.8950  -12.7560  -13.3660 C.3   132  ASP132      0.1709
     57  C          5.6410  -12.6330  -14.8590 C.2   132  ASP132      0.2293
     58  O          5.1520  -13.5730  -15.4940 O.2   132  ASP132     -0.2864
     59  CB         7.2710  -13.4150  -13.1460 C.3   132  ASP132      0.1436
     60  CG         7.6710  -13.4970  -11.6720 C.2   132  ASP132      0.3671
     61  OD1        6.9950  -12.8930  -10.8230 O.co2 132  ASP132     -0.2456
     62  OD2        8.6840  -14.1600  -11.3700 O.co2 132  ASP132     -0.2456
     63  N          6.4770  -18.2430  -10.2870 N.3   143  PRO143     -0.2116
     64  CA         7.7300  -18.0200   -9.5590 C.3   143  PRO143      0.1372
     65  C          8.5560  -19.2980   -9.5130 C.2   143  PRO143      0.2244
     66  O          8.0980  -20.3910   -9.8560 O.2   143  PRO143     -0.2868
     67  CB         7.2730  -17.5820   -8.1640 C.3   143  PRO143      0.0268
     68  CG         5.8630  -18.0880   -8.0430 C.3   143  PRO143      0.0207
     69  CD         5.2910  -18.1850   -9.4060 C.3   143  PRO143      0.0892
     70  N         10.2050  -20.2600   -6.5450 N.3   145  TRP145     -0.1241
     71  CA        10.0910  -20.8440   -5.2160 C.3   145  TRP145      0.1605
     72  C          8.7480  -21.5170   -4.9680 C.2   145  TRP145      0.2264
     73  O          8.5840  -22.1720   -3.9340 O.2   145  TRP145     -0.2867
     74  CB        10.3370  -19.7690   -4.1530 C.3   145  TRP145      0.0550
     75  CG         9.2590  -18.7220   -4.0690 C.ar  145  TRP145      0.0003
     76  CD1        9.1610  -17.5770   -4.8070 C.ar  145  TRP145      0.0946
     77  CD2        8.1340  -18.7250   -3.1820 C.ar  145  TRP145      0.0152
     78  NE1        8.0410  -16.8690   -4.4350 N.ar  145  TRP145     -0.2442
     79  CE2        7.3940  -17.5530   -3.4400 C.ar  145  TRP145      0.0810
     80  CE3        7.6790  -19.6070   -2.1990 C.ar  145  TRP145      0.0012
     81  CZ2        6.2250  -17.2410   -2.7500 C.ar  145  TRP145      0.0191
     82  CZ3        6.5210  -19.2940   -1.5120 C.ar  145  TRP145      0.0001
     83  CH2        5.8050  -18.1230   -1.7910 C.ar  145  TRP145      0.0015
     84  N         -2.0220  -11.0040   -4.7800 N.3   153  GLU153     -0.1245
     85  CA        -1.3950  -10.4400   -5.9660 C.3   153  GLU153      0.1567
     86  C         -2.3480  -10.4370   -7.1570 C.2   153  GLU153      0.2260
     87  O         -2.4160   -9.4440   -7.8910 O.2   153  GLU153     -0.2867
     88  CB        -0.0970  -11.1880   -6.2740 C.3   153  GLU153      0.0388
     89  CG         1.0170  -10.8300   -5.2940 C.3   153  GLU153      0.1160
     90  CD         2.3830  -11.4340   -5.6160 C.2   153  GLU153      0.3649
     91  OE1        2.6240  -11.8770   -6.7630 O.co2 153  GLU153     -0.2457
     92  OE2        3.2160  -11.4530   -4.6840 O.co2 153  GLU153     -0.2457
@<TRIPOS>BOND
     1    33    31   ar
     2    26    27    1
     3    31    32   ar
     4    31    30    1
     5    58    57    2
     6    27    30    1
     7    27    28    1
     8    57    56    1
     9    40    38    1
    10    39    38    1
    11    18    17    2
    12    34    28   am
    13    34    35    1
    14    28    29    2
    15    38    35    1
    16    56    59    1
    17    56    55    1
    18    35    36    1
    19    37    36    2
    20    17    16    1
    21    59    60    1
    22    55    51   am
    23    36    41   am
    24    16    19    1
    25    16    15    1
    26    19    20    1
    27    49    50    1
    28    51    52    2
    29    51    50    1
    30    60    62   ar
    31    60    61   ar
    32    21    20   ar
    33    21    23   ar
    34    41    42    1
    35     4     3    2
    36    20    22   ar
    37    50    53    1
    38    43    44    2
    39    43    42    1
    40    15     3   am
    41    23    25   ar
    42    42    45    1
    43     3     2    1
    44    63    64    1
    45    63    69    1
    46    22    24   ar
    47    53    54    1
    48    66    65    2
    49    25    24   ar
    50    64    65    1
    51    64    67    1
    52     2     1    1
    53     2     5    1
    54    69    68    1
    55    45    46    1
    56    46    47    2
    57    46    48   am
    58     5     6    1
    59    67    68    1
    60    87    86    2
    61     6     8   ar
    62     6     7   ar
    63    11     8   ar
    64    11    13   ar
    65    86    85    1
    66     8    10   ar
    67     7     9   ar
    68    13    14   ar
    69    91    90   ar
    70    70    71    1
    71    10     9   ar
    72    10    12   ar
    73    88    85    1
    74    88    89    1
    75    14    12   ar
    76    85    84    1
    77    90    89    1
    78    90    92   ar
    79    71    72    1
    80    71    74    1
    81    72    73    2
    82    76    78   ar
    83    76    75   ar
    84    78    79   ar
    85    74    75    1
    86    75    77   ar
    87    79    77   ar
    88    79    81   ar
    89    77    80   ar
    90    81    83   ar
    91    80    82   ar
    92    83    82   ar
