@<TRIPOS>MOLECULE
tmp/5kirB00.pdb
 190 183 0 0 0
SMALL
GASTEIGER

@<TRIPOS>ATOM
      1  N         18.0030   36.6800   -4.1780 N.3    57  HIS57      -0.1241
      2  CA        18.1500   38.0540   -3.7150 C.3    57  HIS57       0.1621
      3  C         17.2100   38.9830   -4.4710 C.2    57  HIS57       0.2264
      4  O         16.6800   39.9350   -3.9020 O.2    57  HIS57      -0.2867
      5  CB        19.5920   38.5390   -3.8740 C.3    57  HIS57       0.0745
      6  CG        19.7990   39.9510   -3.4220 C.ar   57  HIS57       0.0817
      7  ND1       19.9930   40.9950   -4.3000 N.ar   57  HIS57      -0.2268
      8  CD2       19.8220   40.4940   -2.1820 C.ar   57  HIS57       0.1154
      9  CE1       20.1390   42.1190   -3.6200 C.ar   57  HIS57       0.1986
     10  NE2       20.0390   41.8420   -2.3320 N.ar   57  HIS57      -0.2212
     11  N         21.1940   28.3290    6.0090 N.3    88  ARG88      -0.1245
     12  CA        22.4550   29.0640    5.9880 C.3    88  ARG88       0.1563
     13  C         23.4370   28.5370    7.0360 C.2    88  ARG88       0.2260
     14  O         24.6480   28.6580    6.8710 O.2    88  ARG88      -0.2867
     15  CB        22.2110   30.5570    6.2170 C.3    88  ARG88       0.0307
     16  CG        21.1860   31.1920    5.2790 C.3    88  ARG88       0.0489
     17  CD        21.8090   31.8910    4.0790 C.3    88  ARG88       0.2205
     18  NE        21.0300   33.0700    3.7000 N.pl3  88  ARG88      -0.0865
     19  CZ        21.3020   33.8580    2.6640 C.cat  88  ARG88       0.5346
     20  NH1       20.5290   34.9070    2.4120 N.pl3  88  ARG88       0.1354
     21  NH2       22.3410   33.6010    1.8780 N.pl3  88  ARG88       0.1354
     22  N         22.8040   51.6630   -0.6000 N.3   160  GLN160     -0.1245
     23  CA        21.7630   51.3840    0.3850 C.3   160  GLN160      0.1566
     24  C         21.7180   52.4560    1.4710 C.2   160  GLN160      0.2260
     25  O         20.8710   52.4110    2.3650 O.2   160  GLN160     -0.2867
     26  CB        21.9770   50.0070    1.0110 C.3   160  GLN160      0.0367
     27  CG        21.9560   48.8760   -0.0020 C.3   160  GLN160      0.0905
     28  CD        22.0750   47.5060    0.6330 C.2   160  GLN160      0.2608
     29  OE1       22.8400   46.6630    0.1670 O.2   160  GLN160     -0.2717
     30  NE2       21.3080   47.2700    1.6930 N.am  160  GLN160     -0.0878
     31  N         20.2120   45.8100   12.1230 N.3   316  TYR316     -0.1227
     32  CA        21.5130   45.7650   11.4650 C.3   316  TYR316      0.1736
     33  C         21.5030   44.9180   10.1890 C.2   316  TYR316      0.2595
     34  O         21.7170   45.4350    9.0930 O.2   316  TYR316     -0.2718
     35  CB        22.5400   45.2250   12.4560 C.3   316  TYR316      0.0548
     36  CG        23.9670   45.1510   11.9800 C.ar  316  TYR316     -0.0200
     37  CD1       24.7770   46.2720   11.9910 C.ar  316  TYR316     -0.0009
     38  CD2       24.5190   43.9450   11.5660 C.ar  316  TYR316     -0.0009
     39  CE1       26.0900   46.2070   11.5790 C.ar  316  TYR316      0.0417
     40  CE2       25.8340   43.8660   11.1500 C.ar  316  TYR316      0.0417
     41  CZ        26.6140   45.0030   11.1610 C.ar  316  TYR316      0.1957
     42  OH        27.9260   44.9600   10.7560 O.3   316  TYR316     -0.2866
     43  N         21.2490   43.6200   10.3280 N.am  317  VAL317     -0.1980
     44  CA        21.2630   42.7230    9.1760 C.3   317  VAL317      0.1595
     45  C         20.0900   42.9960    8.2330 C.2   317  VAL317      0.2287
     46  O         20.2430   42.8950    7.0150 O.2   317  VAL317     -0.2864
     47  CB        21.2440   41.2410    9.6160 C.3   317  VAL317      0.0276
     48  CG1       20.9850   40.3120    8.4250 C.3   317  VAL317      0.0022
     49  CG2       22.5650   40.8710   10.2780 C.3   317  VAL317      0.0022
     50  N         21.2560   45.6820    6.0490 N.3   320  LEU320     -0.1231
     51  CA        22.2690   45.2130    5.1140 C.3   320  LEU320      0.1693
     52  C         21.6470   44.4540    3.9570 C.2   320  LEU320      0.2592
     53  O         22.0070   44.6700    2.8010 O.2   320  LEU320     -0.2718
     54  CB        23.2940   44.3210    5.8260 C.3   320  LEU320      0.0284
     55  CG        24.5210   44.9990    6.4410 C.3   320  LEU320      0.0019
     56  CD1       25.4640   43.9490    7.0190 C.3   320  LEU320      0.0001
     57  CD2       25.2530   45.8520    5.4130 C.3   320  LEU320      0.0001
     58  N         20.7080   43.5740    4.2730 N.am  321  SER321     -0.1952
     59  CA        20.0820   42.7330    3.2650 C.3   321  SER321      0.1924
     60  C         19.3030   43.5600    2.2530 C.2   321  SER321      0.2314
     61  O         19.3410   43.2890    1.0540 O.2   321  SER321     -0.2863
     62  CB        19.1580   41.7130    3.9260 C.3   321  SER321      0.2116
     63  OG        18.0330   42.3440    4.5140 O.3   321  SER321     -0.2180
     64  N         16.3220   43.3620    2.2650 N.3   323  TYR323     -0.1241
     65  CA        15.1970   42.4670    2.0450 C.3   323  TYR323      0.1605
     66  C         13.9000   43.1660    2.4170 C.2   323  TYR323      0.2264
     67  O         13.8150   43.8270    3.4510 O.2   323  TYR323     -0.2867
     68  CB        15.3490   41.1810    2.8710 C.3   323  TYR323      0.0534
     69  CG        16.4620   40.2550    2.4260 C.ar  323  TYR323     -0.0201
     70  CD1       17.0840   40.4160    1.1940 C.ar  323  TYR323     -0.0009
     71  CD2       16.8870   39.2110    3.2390 C.ar  323  TYR323     -0.0009
     72  CE1       18.0960   39.5700    0.7880 C.ar  323  TYR323      0.0417
     73  CE2       17.9020   38.3600    2.8400 C.ar  323  TYR323      0.0417
     74  CZ        18.5010   38.5460    1.6130 C.ar  323  TYR323      0.1957
     75  OH        19.5100   37.7060    1.2010 O.3   323  TYR323     -0.2866
     76  N         13.0940   40.2540    8.7170 N.3   327  LEU327     -0.1245
     77  CA        13.8110   39.2670    9.5190 C.3   327  LEU327      0.1561
     78  C         13.3580   39.3340   10.9720 C.2   327  LEU327      0.2260
     79  O         12.9630   40.3960   11.4560 O.2   327  LEU327     -0.2867
     80  CB        15.3190   39.4930    9.4280 C.3   327  LEU327      0.0270
     81  CG        15.9110   39.4840    8.0180 C.3   327  LEU327      0.0019
     82  CD1       17.3700   39.9030    8.0510 C.3   327  LEU327      0.0001
     83  CD2       15.7650   38.1120    7.3800 C.3   327  LEU327      0.0001
     84  N         36.7180   38.6680    6.1270 N.3   352  LEU352     -0.1231
     85  CA        35.7260   39.2590    5.2330 C.3   352  LEU352      0.1693
     86  C         35.0200   40.4480    5.8800 C.2   352  LEU352      0.2592
     87  O         34.3570   41.2260    5.1970 O.2   352  LEU352     -0.2718
     88  CB        34.7140   38.1910    4.7680 C.3   352  LEU352      0.0284
     89  CG        33.3350   37.8130    5.3550 C.3   352  LEU352      0.0019
     90  CD1       33.4020   36.3680    5.8140 C.3   352  LEU352      0.0001
     91  CD2       32.7750   38.6850    6.4800 C.3   352  LEU352      0.0001
     92  N         35.1690   40.5920    7.1930 N.am  353  TYR353     -0.1976
     93  CA        34.4930   41.6580    7.9240 C.3   353  TYR353      0.1639
     94  C         35.3200   42.9380    7.9990 C.2   353  TYR353      0.2290
     95  O         34.9490   43.8790    8.7010 O.2   353  TYR353     -0.2864
     96  CB        34.1500   41.1970    9.3380 C.3   353  TYR353      0.0560
     97  CG        32.6960   41.3890    9.6910 C.ar  353  TYR353     -0.0198
     98  CD1       31.8770   40.2970    9.9300 C.ar  353  TYR353     -0.0009
     99  CD2       32.1380   42.6600    9.7690 C.ar  353  TYR353     -0.0009
    100  CE1       30.5520   40.4560   10.2490 C.ar  353  TYR353      0.0417
    101  CE2       30.8030   42.8350   10.0840 C.ar  353  TYR353      0.0417
    102  CZ        30.0170   41.7230   10.3280 C.ar  353  TYR353      0.1957
    103  OH        28.6830   41.8500   10.6480 O.3   353  TYR353     -0.2866
    104  N         35.4880   45.7000    6.6320 N.3   355  TRP355     -0.1241
    105  CA        34.7540   46.6450    5.7950 C.3   355  TRP355      0.1605
    106  C         35.2900   48.0580    5.9650 C.2   355  TRP355      0.2264
    107  O         34.5330   48.9840    6.2500 O.2   355  TRP355     -0.2867
    108  CB        33.2630   46.6270    6.1390 C.3   355  TRP355      0.0550
    109  CG        32.6130   45.2890    6.0250 C.ar  355  TRP355      0.0003
    110  CD1       33.1080   44.1840    5.3990 C.ar  355  TRP355      0.0946
    111  CD2       31.3390   44.9120    6.5590 C.ar  355  TRP355      0.0152
    112  NE1       32.2210   43.1410    5.5090 N.ar  355  TRP355     -0.2442
    113  CE2       31.1260   43.5620    6.2170 C.ar  355  TRP355      0.0810
    114  CE3       30.3580   45.5850    7.2930 C.ar  355  TRP355      0.0012
    115  CZ2       29.9720   42.8720    6.5840 C.ar  355  TRP355      0.0191
    116  CZ3       29.2140   44.8990    7.6560 C.ar  355  TRP355      0.0001
    117  CH2       29.0300   43.5570    7.3010 C.ar  355  TRP355      0.0015
    118  N         25.8790   43.7030   -6.1510 N.3   481  ARG481     -0.1245
    119  CA        24.5420   43.4280   -6.6500 C.3   481  ARG481      0.1563
    120  C         23.8670   44.7600   -6.9690 C.2   481  ARG481      0.2260
    121  O         24.3600   45.8090   -6.5550 O.2   481  ARG481     -0.2867
    122  CB        23.7390   42.6210   -5.6260 C.3   481  ARG481      0.0307
    123  CG        24.1160   41.1460   -5.5910 C.3   481  ARG481      0.0489
    124  CD        23.5210   40.4370   -4.3870 C.3   481  ARG481      0.2205
    125  NE        23.6510   38.9870   -4.4880 N.pl3 481  ARG481     -0.0865
    126  CZ        23.3660   38.1370   -3.5050 C.cat 481  ARG481      0.5346
    127  NH1       22.9390   38.5840   -2.3310 N.pl3 481  ARG481      0.1354
    128  NH2       23.5150   36.8330   -3.6950 N.pl3 481  ARG481      0.1354
    129  N         23.6340   47.5280   -4.5520 N.3   484  ALA484     -0.1231
    130  CA        23.9510   46.8420   -3.3050 C.3   484  ALA484      0.1694
    131  C         25.2290   47.3920   -2.6940 C.2   484  ALA484      0.2592
    132  O         25.9540   48.1570   -3.3290 O.2   484  ALA484     -0.2718
    133  CB        24.0850   45.3470   -3.5410 C.3   484  ALA484      0.0304
    134  N         25.4930   46.9920   -1.4570 N.am  485  ILE485     -0.1966
    135  CA        26.7060   47.3900   -0.7510 C.3   485  ILE485      0.1727
    136  C         27.7710   46.3090   -0.9050 C.2   485  ILE485      0.2616
    137  O         28.9670   46.6030   -0.9280 O.2   485  ILE485     -0.2715
    138  CB        26.4290   47.6490    0.7460 C.3   485  ILE485      0.0290
    139  CG1       27.6900   48.1780    1.4370 C.3   485  ILE485      0.0022
    140  CG2       25.9120   46.3840    1.4280 C.3   485  ILE485      0.0023
    141  CD1       27.4860   48.5580    2.8910 C.3   485  ILE485      0.0001
    142  N         27.3200   45.0610   -1.0180 N.am  486  PHE486     -0.1974
    143  CA        28.2040   43.9070   -1.1640 C.3   486  PHE486      0.1639
    144  C         28.0290   43.2320   -2.5180 C.2   486  PHE486      0.2290
    145  O         27.0740   43.5100   -3.2440 O.2   486  PHE486     -0.2864
    146  CB        27.9380   42.8730   -0.0700 C.3   486  PHE486      0.0560
    147  CG        28.1550   43.3750    1.3270 C.ar  486  PHE486     -0.0200
    148  CD1       29.2790   44.1150    1.6500 C.ar  486  PHE486     -0.0042
    149  CD2       27.2350   43.0940    2.3230 C.ar  486  PHE486     -0.0042
    150  CE1       29.4790   44.5650    2.9400 C.ar  486  PHE486     -0.0003
    151  CE2       27.4270   43.5430    3.6120 C.ar  486  PHE486     -0.0003
    152  CZ        28.5500   44.2790    3.9230 C.ar  486  PHE486     -0.0000
    153  N         30.3600   38.0100   -0.6110 N.3   490  MET490     -0.1230
    154  CA        30.3800   38.5450    0.7450 C.3   490  MET490      0.1702
    155  C         29.1310   38.1030    1.4990 C.2   490  MET490      0.2592
    156  O         29.1950   37.7470    2.6740 O.2   490  MET490     -0.2718
    157  CB        30.4700   40.0690    0.7230 C.3   490  MET490      0.0401
    158  CG        30.5070   40.7220    2.1040 C.3   490  MET490      0.0596
    159  SD        32.1600   40.8020    2.8140 S.3   490  MET490     -0.1393
    160  CE        32.8960   42.0810    1.7990 C.3   490  MET490      0.0692
    161  N         27.9960   38.1280    0.8120 N.am  491  VAL491     -0.1980
    162  CA        26.7340   37.7260    1.4130 C.3   491  VAL491      0.1595
    163  C         26.7190   36.2330    1.7090 C.2   491  VAL491      0.2287
    164  O         26.5360   35.8200    2.8530 O.2   491  VAL491     -0.2864
    165  CB        25.5450   38.0710    0.4950 C.3   491  VAL491      0.0276
    166  CG1       24.2470   37.4570    1.0240 C.3   491  VAL491      0.0022
    167  CG2       25.4130   39.5800    0.3580 C.3   491  VAL491      0.0022
    168  N         29.2250   35.4740    4.2550 N.3   494  GLY494     -0.1210
    169  CA        29.0180   36.2310    5.4750 C.3   494  GLY494      0.1956
    170  C         27.8270   35.7760    6.3000 C.2   494  GLY494      0.2611
    171  O         27.9300   35.6470    7.5210 O.2   494  GLY494     -0.2717
    172  N         26.6990   35.5260    5.6430 N.am  495  ALA495     -0.1979
    173  CA        25.4500   35.2320    6.3440 C.3   495  ALA495      0.1597
    174  C         25.5230   33.9730    7.2200 C.2   495  ALA495      0.2287
    175  O         25.0760   34.0000    8.3660 O.2   495  ALA495     -0.2864
    176  CB        24.3000   35.1130    5.3460 C.3   495  ALA495      0.0319
    177  N         27.3500   34.9310   10.2840 N.3   498  SER498     -0.1202
    178  CA        26.5210   35.8570   11.0460 C.3   498  SER498      0.2020
    179  C         25.4430   35.1160   11.8260 C.2   498  SER498      0.2618
    180  O         25.3710   35.2130   13.0490 O.2   498  SER498     -0.2717
    181  CB        25.8720   36.8870   10.1170 C.3   498  SER498      0.2103
    182  OG        26.8390   37.7550    9.5510 O.3   498  SER498     -0.2182
    183  N         24.6200   34.3590   11.1110 N.am  499  LEU499     -0.1979
    184  CA        23.4610   33.7130   11.7130 C.3   499  LEU499      0.1596
    185  C         23.8570   32.6210   12.7050 C.2   499  LEU499      0.2287
    186  O         23.2450   32.4940   13.7640 O.2   499  LEU499     -0.2864
    187  CB        22.5600   33.1360   10.6200 C.3   499  LEU499      0.0297
    188  CG        22.0670   34.1700    9.6010 C.3   499  LEU499      0.0022
    189  CD1       21.4580   33.4870    8.3850 C.3   499  LEU499      0.0001
    190  CD2       21.0760   35.1360   10.2340 C.3   499  LEU499      0.0001
@<TRIPOS>BOND
     1   120   119    1
     2   120   121    2
     3   119   118    1
     4   119   122    1
     5   122   123    1
     6   123   124    1
     7   129   130    1
     8   125   124    1
     9   125   126    2
    10     3     4    2
    11     3     2    1
    12     7     9   ar
    13     7     6   ar
    14     1     2    1
    15     5     2    1
    16     5     6    1
    17   128   126    1
    18     9    10   ar
    19   133   130    1
    20   126   127    1
    21     6     8   ar
    22   132   131    2
    23   130   131    1
    24   145   144    2
    25   131   134   am
    26   144   143    1
    27    10     8   ar
    28   134   135    1
    29   143   142    1
    30   143   146    1
    31   142   136   am
    32   137   136    2
    33   136   135    1
    34   135   138    1
    35   153   154    1
    36    22    23    1
    37   146   147    1
    38    27    28    1
    39    27    26    1
    40    29    28    2
    41   167   165    1
    42    23    26    1
    43    23    24    1
    44   165   166    1
    45   165   162    1
    46    28    30   am
    47   157   154    1
    48   157   158    1
    49   154   155    1
    50   138   140    1
    51   138   139    1
    52    72    70   ar
    53    72    74   ar
    54   161   162    1
    55   161   155   am
    56    61    60    2
    57    70    69   ar
    58    75    74    1
    59   147   148   ar
    60   147   149   ar
    61   162   163    1
    62   139   141    1
    63    24    25    2
    64   155   156    2
    65    74    73   ar
    66   148   150   ar
    67   163   164    2
    68   160   159    1
    69    21    19    1
    70    65    64    1
    71    65    66    1
    72    65    68    1
    73   158   159    1
    74    60    59    1
    75   149   151   ar
    76    20    19    1
    77    66    67    2
    78    69    68    1
    79    69    71   ar
    80    19    18    2
    81    53    52    2
    82    73    71   ar
    83   150   152   ar
    84    59    62    1
    85    59    58    1
    86   151   152   ar
    87    18    17    1
    88    62    63    1
    89    52    58   am
    90    52    51    1
    91    17    16    1
    92   168   169    1
    93    88    85    1
    94    88    89    1
    95    51    54    1
    96    51    50    1
    97    87    86    2
    98    85    86    1
    99    85    84    1
   100    16    15    1
   101   176   173    1
   102    89    90    1
   103    89    91    1
   104   110   112   ar
   105   110   109   ar
   106    57    55    1
   107   169   170    1
   108   112   113   ar
   109   172   170   am
   110   172   173    1
   111   105   106    1
   112   105   108    1
   113   105   104    1
   114    54    55    1
   115    86    92   am
   116   106   107    2
   117    12    11    1
   118    12    15    1
   119    12    13    1
   120   109   108    1
   121   109   111   ar
   122   113   111   ar
   123   113   115   ar
   124   170   171    2
   125   173   174    1
   126    55    56    1
   127   111   114   ar
   128   115   117   ar
   129    14    13    2
   130    46    45    2
   131    92    93    1
   132   174   175    2
   133   114   116   ar
   134   117   116   ar
   135    83    81    1
   136    93    94    1
   137    93    96    1
   138    94    95    2
   139    81    82    1
   140    81    80    1
   141    45    44    1
   142   189   188    1
   143    48    47    1
   144    76    77    1
   145    34    33    2
   146    44    47    1
   147    44    43    1
   148    96    97    1
   149    80    77    1
   150    77    78    1
   151   182   181    1
   152   188   190    1
   153   188   187    1
   154    47    49    1
   155    97    99   ar
   156    97    98   ar
   157    99   101   ar
   158    98   100   ar
   159   101   102   ar
   160   181   178    1
   161    33    43   am
   162    33    32    1
   163   100   102   ar
   164   177   178    1
   165   102   103    1
   166   187   184    1
   167    42    41    1
   168    78    79    2
   169   178   179    1
   170   183   184    1
   171   183   179   am
   172    40    41   ar
   173    40    38   ar
   174    41    39   ar
   175    32    31    1
   176    32    35    1
   177    38    36   ar
   178    39    37   ar
   179   184   185    1
   180   179   180    2
   181    36    37   ar
   182    36    35    1
   183   185   186    2
