@<TRIPOS>MOLECULE
tmp/5kitB00.pdb
 174 166 0 0 0
SMALL
GASTEIGER

@<TRIPOS>ATOM
      1  N          8.3970    3.7090   46.5500 N.3   171  TYR171     -0.1227
      2  CA         8.6170    2.2780   46.3210 C.3   171  TYR171      0.1736
      3  C          7.3960    1.5640   45.7480 C.2   171  TYR171      0.2595
      4  O          7.3840    0.3360   45.6510 O.2   171  TYR171     -0.2718
      5  CB         9.0800    1.5780   47.6050 C.3   171  TYR171      0.0548
      6  CG        10.4720    1.9850   48.0010 C.ar  171  TYR171     -0.0200
      7  CD1       11.5740    1.5020   47.3070 C.ar  171  TYR171     -0.0009
      8  CD2       10.6900    2.8700   49.0490 C.ar  171  TYR171     -0.0009
      9  CE1       12.8520    1.8760   47.6490 C.ar  171  TYR171      0.0417
     10  CE2       11.9710    3.2550   49.3970 C.ar  171  TYR171      0.0417
     11  CZ        13.0470    2.7510   48.6940 C.ar  171  TYR171      0.1957
     12  OH        14.3270    3.1250   49.0310 O.3   171  TYR171     -0.2866
     13  N          6.3830    2.3250   45.3450 N.am  172  LYS172     -0.1980
     14  CA         5.1250    1.7130   44.9090 C.3   172  LYS172      0.1596
     15  C          5.1020    1.2160   43.4540 C.2   172  LYS172      0.2287
     16  O          4.2060    0.4590   43.0750 O.2   172  LYS172     -0.2864
     17  CB         3.9460    2.6570   45.1610 C.3   172  LYS172      0.0298
     18  CG         3.5580    2.8360   46.6330 C.3   172  LYS172      0.0038
     19  CD         2.8070    1.6200   47.1510 C.3   172  LYS172      0.0206
     20  CE         2.4070    1.7910   48.6060 C.3   172  LYS172      0.1093
     21  NZ         1.9090    0.5230   49.1730 N.3   172  LYS172     -0.1314
     22  N          7.7520   -0.5630   40.8140 N.3   174  HIS174     -0.1241
     23  CA         9.0640   -1.1820   40.7110 C.3   174  HIS174      0.1621
     24  C          9.3370   -1.5630   39.2590 C.2   174  HIS174      0.2264
     25  O          8.4510   -2.0750   38.5690 O.2   174  HIS174     -0.2867
     26  CB         9.0930   -2.4340   41.5930 C.3   174  HIS174      0.0745
     27  CG        10.4670   -2.8810   41.9790 C.ar  174  HIS174      0.0817
     28  ND1       11.0510   -2.5250   43.1750 N.ar  174  HIS174     -0.2268
     29  CD2       11.3610   -3.6770   41.3450 C.ar  174  HIS174      0.1154
     30  CE1       12.2510   -3.0750   43.2580 C.ar  174  HIS174      0.1986
     31  NE2       12.4590   -3.7870   42.1630 N.ar  174  HIS174     -0.2212
     32  N         10.5110   -3.8390   36.5310 N.3   176  PHE176     -0.1241
     33  CA        10.6880   -5.2620   36.2330 C.3   176  PHE176      0.1605
     34  C         11.1170   -5.4430   34.7670 C.2   176  PHE176      0.2264
     35  O         11.0290   -6.5510   34.2190 O.2   176  PHE176     -0.2867
     36  CB         9.3660   -6.0380   36.3900 C.3   176  PHE176      0.0534
     37  CG         8.9540   -6.3460   37.8200 C.ar  176  PHE176     -0.0203
     38  CD1        9.6490   -5.8440   38.9140 C.ar  176  PHE176     -0.0042
     39  CD2        7.8510   -7.1590   38.0540 C.ar  176  PHE176     -0.0042
     40  CE1        9.2360   -6.1440   40.2240 C.ar  176  PHE176     -0.0003
     41  CE2        7.4300   -7.4720   39.3570 C.ar  176  PHE176     -0.0003
     42  CZ         8.1320   -6.9640   40.4430 C.ar  176  PHE176     -0.0000
     43  N         14.4040   -7.6670   31.1440 N.3   179  ARG179     -0.1245
     44  CA        14.3400   -8.6750   30.0840 C.3   179  ARG179      0.1563
     45  C         13.4920   -8.2200   28.9010 C.2   179  ARG179      0.2260
     46  O         13.6300   -8.7500   27.8000 O.2   179  ARG179     -0.2867
     47  CB        13.7730   -9.9870   30.6190 C.3   179  ARG179      0.0307
     48  CG        12.2560   -9.9950   30.7550 C.3   179  ARG179      0.0489
     49  CD        11.7430  -11.1720   31.5700 C.3   179  ARG179      0.2205
     50  NE        12.2700  -11.1260   32.9280 N.pl3 179  ARG179     -0.0865
     51  CZ        11.9120  -11.9470   33.9060 C.cat 179  ARG179      0.5346
     52  NH1       11.0050  -12.8960   33.6950 N.pl3 179  ARG179      0.1354
     53  NH2       12.4680  -11.8060   35.1040 N.pl3 179  ARG179      0.1354
     54  N         14.6710   -3.5250   39.6530 N.3   202  ASP202     -0.1239
     55  CA        15.3790   -4.7890   39.4570 C.3   202  ASP202      0.1674
     56  C         16.2620   -4.7150   38.2080 C.2   202  ASP202      0.2266
     57  O         16.9750   -5.6660   37.8740 O.2   202  ASP202     -0.2867
     58  CB        14.4030   -5.9650   39.3540 C.3   202  ASP202      0.1410
     59  CG        14.2450   -6.7080   40.6750 C.2   202  ASP202      0.3668
     60  OD1       14.0700   -6.0330   41.7130 O.co2 202  ASP202     -0.2456
     61  OD2       14.3100   -7.9620   40.6800 O.co2 202  ASP202     -0.2456
     62  N         16.2780   -2.9200   45.9880 N.3   224  SER224     -0.1202
     63  CA        15.3690   -4.0390   45.8000 C.3   224  SER224      0.2020
     64  C         15.3480   -4.9460   47.0250 C.2   224  SER224      0.2618
     65  O         16.0100   -4.6590   48.0360 O.2   224  SER224     -0.2717
     66  CB        15.7250   -4.8300   44.5330 C.3   224  SER224      0.2103
     67  OG        14.7040   -5.7640   44.2160 O.3   224  SER224     -0.2182
     68  N         14.5650   -6.0180   46.9400 N.am  225  VAL225     -0.1979
     69  CA        14.4230   -6.9930   48.0220 C.3   225  VAL225      0.1595
     70  C         14.4070   -8.3870   47.4020 C.2   225  VAL225      0.2287
     71  O         14.1620   -8.5270   46.1980 O.2   225  VAL225     -0.2864
     72  CB        13.1040   -6.7930   48.8360 C.3   225  VAL225      0.0276
     73  CG1       13.0230   -5.3870   49.4230 C.3   225  VAL225      0.0022
     74  CG2       11.8770   -7.1040   47.9720 C.3   225  VAL225      0.0022
     75  N         13.1940  -11.9620   46.1250 N.3   227  ALA227     -0.1231
     76  CA        11.9250  -12.3580   45.5260 C.3   227  ALA227      0.1694
     77  C         12.1030  -13.6720   44.7880 C.2   227  ALA227      0.2592
     78  O         13.1850  -13.9550   44.2760 O.2   227  ALA227     -0.2718
     79  CB        11.4320  -11.2810   44.5620 C.3   227  ALA227      0.0304
     80  N         11.0370  -14.4650   44.7280 N.am  228  ALA228     -0.1966
     81  CA        11.0680  -15.7290   44.0150 C.3   228  ALA228      0.1728
     82  C         10.6970  -15.5100   42.5600 C.2   228  ALA228      0.2616
     83  O         10.1230  -14.4840   42.2060 O.2   228  ALA228     -0.2715
     84  CB        10.1050  -16.7160   44.6520 C.3   228  ALA228      0.0334
     85  N         11.0470  -16.4760   41.7220 N.am  229  GLU229     -0.1977
     86  CA        10.5010  -16.5350   40.3700 C.3   229  GLU229      0.1602
     87  C          9.8300  -17.8890   40.2070 C.2   229  GLU229      0.2287
     88  O          9.9170  -18.7420   41.0800 O.2   229  GLU229     -0.2864
     89  CB        11.5960  -16.3260   39.3170 C.3   229  GLU229      0.0415
     90  CG        12.6390  -17.4380   39.2480 C.3   229  GLU229      0.1163
     91  CD        13.6650  -17.1920   38.1420 C.2   229  GLU229      0.3649
     92  OE1       13.9690  -16.0170   37.8570 O.co2 229  GLU229     -0.2457
     93  OE2       14.1580  -18.1680   37.5490 O.co2 229  GLU229     -0.2457
     94  N         12.1890   -8.2360   53.8540 N.3   256  PRO256     -0.2116
     95  CA        10.9810   -8.4430   53.0470 C.3   256  PRO256      0.1372
     96  C         11.2460   -9.4850   51.9690 C.2   256  PRO256      0.2244
     97  O         12.3700   -9.5620   51.4740 O.2   256  PRO256     -0.2868
     98  CB        10.7630   -7.0770   52.3810 C.3   256  PRO256      0.0268
     99  CG        11.5340   -6.0960   53.2190 C.3   256  PRO256      0.0207
    100  CD        12.7010   -6.8590   53.7490 C.3   256  PRO256      0.0892
    101  N          9.2750  -11.2460   48.4180 N.3   258  SER258     -0.1217
    102  CA         8.1700  -11.3990   47.4760 C.3   258  SER258      0.1889
    103  C          8.1580  -12.8390   47.0030 C.2   258  SER258      0.2288
    104  O          9.2000  -13.3840   46.6470 O.2   258  SER258     -0.2866
    105  CB         8.3910  -10.4520   46.3070 C.3   258  SER258      0.2089
    106  OG         7.7100  -10.8790   45.1290 O.3   258  SER258     -0.2183
    107  N          7.9570   -7.9100   55.7730 N.3   290  PRO290     -0.2116
    108  CA         6.7030   -8.5620   55.3940 C.3   290  PRO290      0.1372
    109  C          6.8830   -9.6470   54.3360 C.2   290  PRO290      0.2244
    110  O          7.8380   -9.6020   53.5490 O.2   290  PRO290     -0.2868
    111  CB         5.8860   -7.4110   54.8020 C.3   290  PRO290      0.0268
    112  CG         6.9190   -6.4490   54.2970 C.3   290  PRO290      0.0207
    113  CD         8.0090   -6.5080   55.3230 C.3   290  PRO290      0.0892
    114  N          5.4350  -10.6030   50.9180 N.3   292  ILE292     -0.1245
    115  CA         4.6960   -9.9380   49.8630 C.3   292  ILE292      0.1561
    116  C          4.2420  -10.9980   48.8690 C.2   292  ILE292      0.2260
    117  O          5.0540  -11.5820   48.1490 O.2   292  ILE292     -0.2867
    118  CB         5.5460   -8.8580   49.1860 C.3   292  ILE292      0.0252
    119  CG1        6.2230   -7.9870   50.2600 C.3   292  ILE292      0.0019
    120  CG2        4.6760   -8.0330   48.2130 C.3   292  ILE292      0.0019
    121  CD1        7.5610   -7.4370   49.8590 C.3   292  ILE292      0.0001
    122  N          2.7240  -12.4340   45.5590 N.3   294  ARG294     -0.1245
    123  CA         2.7550  -11.9540   44.1820 C.3   294  ARG294      0.1563
    124  C          1.8980  -12.8140   43.2560 C.2   294  ARG294      0.2260
    125  O          2.3180  -13.8980   42.8410 O.2   294  ARG294     -0.2867
    126  CB         4.2020  -11.9160   43.6640 C.3   294  ARG294      0.0307
    127  CG         4.3470  -11.4210   42.2260 C.3   294  ARG294      0.0489
    128  CD         5.8070  -11.4530   41.7400 C.3   294  ARG294      0.2205
    129  NE         5.8430  -11.5530   40.2790 N.pl3 294  ARG294     -0.0865
    130  CZ         6.6690  -12.3370   39.5940 C.cat 294  ARG294      0.5346
    131  NH1        6.6030  -12.3460   38.2780 N.pl3 294  ARG294      0.1354
    132  NH2        7.5700  -13.0990   40.2180 N.pl3 294  ARG294      0.1354
    133  N          1.7640   -8.1130   52.6110 N.3   332  ARG332     -0.1231
    134  CA         1.4290   -7.1890   51.5300 C.3   332  ARG332      0.1694
    135  C          1.2550   -7.9660   50.2280 C.2   332  ARG332      0.2592
    136  O          1.4950   -9.1800   50.1820 O.2   332  ARG332     -0.2718
    137  CB         2.5300   -6.1320   51.3660 C.3   332  ARG332      0.0321
    138  CG         2.6070   -5.1100   52.5040 C.3   332  ARG332      0.0489
    139  CD         1.3270   -4.2790   52.5640 C.3   332  ARG332      0.2205
    140  NE         1.3660   -3.2330   53.5890 N.pl3 332  ARG332     -0.0865
    141  CZ         0.7930   -3.3250   54.7880 C.cat 332  ARG332      0.5346
    142  NH1        0.1410   -4.4310   55.1430 N.pl3 332  ARG332      0.1354
    143  NH2        0.8790   -2.3100   55.6360 N.pl3 332  ARG332      0.1354
    144  N          0.8290   -7.2660   49.1750 N.am  333  VAL333     -0.1966
    145  CA         0.6670   -7.8600   47.8450 C.3   333  VAL333      0.1727
    146  C          1.4510   -7.0510   46.8170 C.2   333  VAL333      0.2616
    147  O          1.5980   -5.8350   46.9580 O.2   333  VAL333     -0.2715
    148  CB        -0.8320   -7.8930   47.4260 C.3   333  VAL333      0.0290
    149  CG1       -1.0160   -8.3970   45.9750 C.3   333  VAL333      0.0023
    150  CG2       -1.6430   -8.7500   48.3980 C.3   333  VAL333      0.0023
    151  N          1.9600   -7.7230   45.7850 N.am  334  ILE334     -0.1977
    152  CA         2.5470   -7.0270   44.6460 C.3   334  ILE334      0.1596
    153  C          1.9370   -7.5720   43.3530 C.2   334  ILE334      0.2287
    154  O          1.8970   -8.7870   43.1270 O.2   334  ILE334     -0.2864
    155  CB         4.1130   -7.0850   44.6400 C.3   334  ILE334      0.0276
    156  CG1        4.7080   -6.2800   43.4690 C.3   334  ILE334      0.0022
    157  CG2        4.6290   -8.5260   44.6410 C.3   334  ILE334      0.0022
    158  CD1        5.0030   -7.0950   42.2080 C.3   334  ILE334      0.0001
    159  N          1.7790   -2.9780   46.0790 N.3   362  ALA362     -0.1231
    160  CA         2.8260   -2.3380   45.3030 C.3   362  ALA362      0.1694
    161  C          2.7110   -2.8920   43.8940 C.2   362  ALA362      0.2592
    162  O          2.0800   -3.9320   43.6850 O.2   362  ALA362     -0.2718
    163  CB         4.1950   -2.6510   45.8880 C.3   362  ALA362      0.0304
    164  N          3.3130   -2.2040   42.9280 N.am  363  PHE363     -0.1976
    165  CA         3.2420   -2.6500   41.5450 C.3   363  PHE363      0.1639
    166  C          4.6260   -2.8760   40.9540 C.2   363  PHE363      0.2290
    167  O          5.5780   -2.1730   41.2900 O.2   363  PHE363     -0.2864
    168  CB         2.4580   -1.6400   40.7010 C.3   363  PHE363      0.0560
    169  CG         1.0300   -1.4800   41.1450 C.ar  363  PHE363     -0.0200
    170  CD1        0.0360   -2.3160   40.6510 C.ar  363  PHE363     -0.0042
    171  CD2        0.6880   -0.5270   42.0900 C.ar  363  PHE363     -0.0042
    172  CE1       -1.2820   -2.1820   41.0760 C.ar  363  PHE363     -0.0003
    173  CE2       -0.6270   -0.3950   42.5290 C.ar  363  PHE363     -0.0003
    174  CZ        -1.6120   -1.2200   42.0180 C.ar  363  PHE363     -0.0000
@<TRIPOS>BOND
     1    46    45    2
     2    45    44    1
     3    44    47    1
     4    44    43    1
     5    47    48    1
     6    48    49    1
     7    49    50    1
     8    50    51    2
     9    52    51    1
    10    51    53    1
    11    35    34    2
    12    34    33    1
    13    33    36    1
    14    33    32    1
    15    36    37    1
    16    93    91   ar
    17    37    39   ar
    18    37    38   ar
    19    92    91   ar
    20    57    56    2
    21    39    41   ar
    22    91    90    1
    23    56    55    1
    24   131   130    1
    25    25    24    2
    26    38    40   ar
    27    90    89    1
    28    24    23    1
    29    89    86    1
    30    58    55    1
    31    58    59    1
    32    41    42   ar
    33    55    54    1
    34   130   132    1
    35   130   129    2
    36    87    86    1
    37    87    88    2
    38    40    42   ar
    39   129   128    1
    40    86    85    1
    41   170   172   ar
    42   170   169   ar
    43    59    61   ar
    44    59    60   ar
    45   168   169    1
    46   168   165    1
    47    23    22    1
    48    23    26    1
    49   166   167    2
    50   166   165    1
    51   172   174   ar
    52   169   171   ar
    53    29    27   ar
    54    29    31   ar
    55   165   164    1
    56    26    27    1
    57    85    82   am
    58   128   127    1
    59    27    28   ar
    60   174   173   ar
    61   171   173   ar
    62    31    30   ar
    63    83    82    2
    64   158   156    1
    65   127   126    1
    66    82    81    1
    67   125   124    2
    68   164   161   am
    69    16    15    2
    70   154   153    2
    71    28    30   ar
    72   124   123    1
    73   153   152    1
    74    15    14    1
    75   156   155    1
    76   126   123    1
    77   162   161    2
    78   161   160    1
    79    81    84    1
    80    81    80    1
    81   123   122    1
    82    67    66    1
    83    78    77    2
    84    66    63    1
    85    79    76    1
    86   155   157    1
    87   155   152    1
    88   152   151    1
    89    80    77   am
    90    77    76    1
    91    14    17    1
    92    14    13    1
    93   106   105    1
    94    17    18    1
    95   160   163    1
    96   160   159    1
    97    13     3   am
    98    76    75    1
    99     4     3    2
   100     3     2    1
   101   151   146   am
   102    63    62    1
   103    63    64    1
   104   149   148    1
   105    71    70    2
   106   105   102    1
   107     2     1    1
   108     2     5    1
   109    18    19    1
   110   104   103    2
   111   146   147    2
   112   146   145    1
   113    68    64   am
   114    68    69    1
   115   103   102    1
   116    64    65    2
   117    19    20    1
   118     7     9   ar
   119     7     6   ar
   120    70    69    1
   121   148   145    1
   122   148   150    1
   123   102   101    1
   124     5     6    1
   125     9    11   ar
   126   145   144    1
   127    74    72    1
   128     6     8   ar
   129    69    72    1
   130   117   116    2
   131   120   118    1
   132    20    21    1
   133    11    12    1
   134    11    10   ar
   135    72    73    1
   136   116   115    1
   137     8    10   ar
   138   144   135   am
   139   118   115    1
   140   118   119    1
   141   121   119    1
   142   115   114    1
   143   136   135    2
   144   135   134    1
   145   137   134    1
   146   137   138    1
   147    97    96    2
   148   134   133    1
   149    96    95    1
   150    98    95    1
   151    98    99    1
   152   138   139    1
   153   139   140    1
   154    95    94    1
   155    99   100    1
   156   110   109    2
   157   140   141    2
   158   100    94    1
   159   112   111    1
   160   112   113    1
   161   109   108    1
   162   141   142    1
   163   141   143    1
   164   111   108    1
   165   113   107    1
   166   108   107    1
