@<TRIPOS>MOLECULE
tmp/5kiyA00.pdb
 137 130 0 0 0
SMALL
GASTEIGER

@<TRIPOS>ATOM
      1  N         17.0440   43.5160   22.8040 N.3   196  ASP196     -0.1225
      2  CA        17.8710   42.3770   22.5040 C.3   196  ASP196      0.1805
      3  C         17.2330   41.4780   21.5200 C.2   196  ASP196      0.2598
      4  O         17.7260   40.3620   21.2990 O.2   196  ASP196     -0.2718
      5  CB        18.1930   41.6160   23.7720 C.3   196  ASP196      0.1424
      6  CG        18.9680   42.4520   24.7160 C.2   196  ASP196      0.3668
      7  OD1       20.1920   42.6190   24.4840 O.co2 196  ASP196     -0.2456
      8  OD2       18.3160   43.0020   25.6130 O.co2 196  ASP196     -0.2456
      9  N         16.1390   41.9340   20.9290 N.am  197  ILE197     -0.1966
     10  CA        15.4090   41.0920   19.9960 C.3   197  ILE197      0.1727
     11  C         15.3890   41.7350   18.6270 C.2   197  ILE197      0.2616
     12  O         14.7090   42.7660   18.4070 O.2   197  ILE197     -0.2715
     13  CB        13.9960   40.8960   20.5110 C.3   197  ILE197      0.0290
     14  CG1       14.1150   40.3960   21.9380 C.3   197  ILE197      0.0022
     15  CG2       13.2450   39.9730   19.6040 C.3   197  ILE197      0.0023
     16  CD1       12.9880   39.5780   22.4950 C.3   197  ILE197      0.0001
     17  N         16.0920   41.1010   17.6990 N.am  198  GLY198     -0.1955
     18  CA        16.2040   41.6130   16.3420 C.3   198  GLY198      0.1869
     19  C         15.2800   40.9440   15.3420 C.2   198  GLY198      0.2309
     20  O         14.9860   39.7780   15.4760 O.2   198  GLY198     -0.2863
     21  N         12.0190   41.2750   14.6280 N.3   200  CYS200     -0.1235
     22  CA        10.6530   40.9330   14.9890 C.3   200  CYS200      0.1677
     23  C          9.7820   42.1290   15.2520 C.2   200  CYS200      0.2270
     24  O          8.8500   42.0420   16.0550 O.2   200  CYS200     -0.2867
     25  CB        10.6850   40.1730   16.2920 C.3   200  CYS200      0.0956
     26  SG        11.3260   38.5580   16.0800 S.3   200  CYS200     -0.0801
     27  N         12.7420   26.4670   14.7210 N.3   238  PRO238     -0.2102
     28  CA        13.6200   26.5420   15.8570 C.3   238  PRO238      0.1504
     29  C         14.6010   27.7160   15.7810 C.2   238  PRO238      0.2576
     30  O         15.0550   28.0680   14.7260 O.2   238  PRO238     -0.2718
     31  CB        14.3210   25.1900   15.7930 C.3   238  PRO238      0.0282
     32  CG        13.3350   24.2550   15.2420 C.3   238  PRO238      0.0208
     33  CD        12.5710   25.0780   14.2540 C.3   238  PRO238      0.0893
     34  N         14.8360   28.3630   16.9100 N.am  239  GLY239     -0.1943
     35  CA        15.8710   29.3970   17.0320 C.3   239  GLY239      0.2014
     36  C         15.5390   30.7720   16.5050 C.2   239  GLY239      0.2640
     37  O         16.4470   31.5550   16.2380 O.2   239  GLY239     -0.2714
     38  N         14.2510   31.0690   16.3940 N.am  240  THR240     -0.1936
     39  CA        13.7920   32.3220   15.8800 C.3   240  THR240      0.2028
     40  C         13.5850   33.3590   16.9570 C.2   240  THR240      0.2643
     41  O         13.3470   34.5160   16.6400 O.2   240  THR240     -0.2714
     42  CB        12.4930   32.0940   15.1010 C.3   240  THR240      0.1808
     43  OG1       11.6000   31.2950   15.8480 O.3   240  THR240     -0.2208
     44  CG2       12.7630   31.3140   13.9030 C.3   240  THR240      0.0379
     45  N         13.6720   32.9290   18.2110 N.am  241  GLY241     -0.1939
     46  CA        13.6450   33.7850   19.3990 C.3   241  GLY241      0.2014
     47  C         12.3300   33.8400   20.1600 C.2   241  GLY241      0.2639
     48  O         11.9460   34.8650   20.7630 O.2   241  GLY241     -0.2714
     49  N         11.6290   32.7360   20.1750 N.am  242  LYS242     -0.1963
     50  CA        10.3900   32.6700   20.9120 C.3   242  LYS242      0.1728
     51  C         10.6840   32.7220   22.4090 C.2   242  LYS242      0.2617
     52  O         10.1180   33.5050   23.1390 O.2   242  LYS242     -0.2715
     53  CB         9.6190   31.4020   20.5610 C.3   242  LYS242      0.0311
     54  CG         9.2330   31.3230   19.0930 C.3   242  LYS242      0.0038
     55  CD         8.6430   29.9890   18.6950 C.3   242  LYS242      0.0206
     56  CE         9.6470   28.8590   18.7860 C.3   242  LYS242      0.1093
     57  NZ        10.4530   28.7360   17.5420 N.3   242  LYS242     -0.1314
     58  N         11.5970   31.8980   22.8600 N.am  243  THR243     -0.1937
     59  CA        11.9630   31.8860   24.2580 C.3   243  THR243      0.2028
     60  C         12.6370   33.2430   24.6560 C.2   243  THR243      0.2642
     61  O         12.4600   33.7360   25.7440 O.2   243  THR243     -0.2714
     62  CB        12.8770   30.6650   24.5120 C.3   243  THR243      0.1808
     63  OG1       12.1400   29.4370   24.3170 O.3   243  THR243     -0.2208
     64  CG2       13.4000   30.6790   25.8360 C.3   243  THR243      0.0379
     65  N         13.4180   33.8270   23.7590 N.am  244  LEU244     -0.1977
     66  CA        13.9750   35.1780   23.9450 C.3   244  LEU244      0.1596
     67  C         12.9360   36.2060   24.2070 C.2   244  LEU244      0.2287
     68  O         13.0470   37.0130   25.1080 O.2   244  LEU244     -0.2864
     69  CB        14.7130   35.6300   22.6970 C.3   244  LEU244      0.0297
     70  CG        15.6420   36.8130   22.8710 C.3   244  LEU244      0.0022
     71  CD1       16.9030   36.3010   23.4590 C.3   244  LEU244      0.0001
     72  CD2       15.9650   37.4500   21.5220 C.3   244  LEU244      0.0001
     73  N          6.2260   27.7910   27.9550 N.3   295  ASP295     -0.1225
     74  CA         7.2400   27.6340   26.8930 C.3   295  ASP295      0.1805
     75  C          7.2780   26.1590   26.5710 C.2   295  ASP295      0.2597
     76  O          7.0540   25.3120   27.4560 O.2   295  ASP295     -0.2718
     77  CB         8.6090   28.1720   27.3040 C.3   295  ASP295      0.1424
     78  CG         9.5460   28.4110   26.1260 C.2   295  ASP295      0.3668
     79  OD1        9.0940   28.3760   24.9560 O.co2 295  ASP295     -0.2456
     80  OD2       10.7630   28.6110   26.3810 O.co2 295  ASP295     -0.2456
     81  N          7.4900   25.8790   25.2830 N.am  296  GLU296     -0.1979
     82  CA         7.4220   24.5090   24.7000 C.3   296  GLU296      0.1602
     83  C          6.1100   23.8440   24.9880 C.2   296  GLU296      0.2287
     84  O          6.0920   22.8380   25.6750 O.2   296  GLU296     -0.2864
     85  CB         8.5460   23.6330   25.1860 C.3   296  GLU296      0.0415
     86  CG         9.8570   23.9270   24.5110 C.3   296  GLU296      0.1163
     87  CD        11.0340   23.2720   25.2590 C.2   296  GLU296      0.3649
     88  OE1       11.6470   22.3360   24.7020 O.co2 296  GLU296     -0.2457
     89  OE2       11.3170   23.6660   26.4410 O.co2 296  GLU296     -0.2457
     90  N          7.5460   25.3500   18.4780 N.3   339  ASN339     -0.1240
     91  CA         8.0660   25.2540   17.1150 C.3   339  ASN339      0.1653
     92  C          7.3690   24.1890   16.3450 C.2   339  ASN339      0.2266
     93  O          7.7410   23.9340   15.2440 O.2   339  ASN339     -0.2867
     94  CB         9.5900   25.1190   17.0670 C.3   339  ASN339      0.1155
     95  CG        10.0890   23.9100   17.8210 C.2   339  ASN339      0.2627
     96  OD1        9.3260   22.9730   18.0560 O.2   339  ASN339     -0.2716
     97  ND2       11.3770   23.9230   18.2090 N.am  339  ASN339     -0.0877
     98  N         20.0010   41.4340   14.2260 N.3   371  ILE371     -0.1245
     99  CA        20.4210   40.3630   15.0590 C.3   371  ILE371      0.1561
    100  C         21.9000   40.3790   15.2090 C.2   371  ILE371      0.2260
    101  O         22.4200   40.2350   16.3010 O.2   371  ILE371     -0.2867
    102  CB        19.9660   38.9970   14.4650 C.3   371  ILE371      0.0252
    103  CG1       18.4540   38.8610   14.6200 C.3   371  ILE371      0.0019
    104  CG2       20.6350   37.7930   15.1650 C.3   371  ILE371      0.0019
    105  CD1       17.8070   37.8730   13.7150 C.3   371  ILE371      0.0001
    106  N         23.0030   43.1900   17.6190 N.3   374  ILE374     -0.1231
    107  CA        22.7080   42.8320   18.9970 C.3   374  ILE374      0.1692
    108  C         23.6800   41.8430   19.5890 C.2   374  ILE374      0.2592
    109  O         24.0630   41.9300   20.7500 O.2   374  ILE374     -0.2718
    110  CB        21.3130   42.2380   19.0770 C.3   374  ILE374      0.0266
    111  CG1       20.2610   43.3500   19.0010 C.3   374  ILE374      0.0019
    112  CG2       21.1430   41.4380   20.3540 C.3   374  ILE374      0.0020
    113  CD1       18.9010   42.8820   18.5540 C.3   374  ILE374      0.0001
    114  N         24.0600   40.8900   18.7930 N.am  375  HIS375     -0.1976
    115  CA        24.9400   39.8580   19.2320 C.3   375  HIS375      0.1656
    116  C         26.3850   40.1540   19.3200 C.2   375  HIS375      0.2291
    117  O         27.1670   39.3950   19.8960 O.2   375  HIS375     -0.2864
    118  CB        24.8070   38.7340   18.2570 C.3   375  HIS375      0.0771
    119  CG        24.1890   37.6130   18.8920 C.ar  375  HIS375      0.0820
    120  ND1       24.9630   36.6390   19.4870 N.ar  375  HIS375     -0.2267
    121  CD2       22.9050   37.4320   19.2850 C.ar  375  HIS375      0.1154
    122  CE1       24.1440   35.8280   20.1390 C.ar  375  HIS375      0.1986
    123  NE2       22.8950   36.2880   20.0330 N.ar  375  HIS375     -0.2212
    124  N         17.9360   33.6510   14.1170 N.3   399  GLY399     -0.1210
    125  CA        18.7150   34.1770   15.2140 C.3   399  GLY399      0.1956
    126  C         19.7180   33.2380   15.8520 C.2   399  GLY399      0.2611
    127  O         20.8230   33.6170   16.1320 O.2   399  GLY399     -0.2717
    128  N         19.3210   32.0100   16.0950 N.am  400  ALA400     -0.1979
    129  CA        20.2210   31.0810   16.7440 C.3   400  ALA400      0.1597
    130  C         21.3710   30.6820   15.8570 C.2   400  ALA400      0.2287
    131  O         22.4700   30.4150   16.3300 O.2   400  ALA400     -0.2864
    132  CB        19.4710   29.8690   17.1860 C.3   400  ALA400      0.0319
    133  N         23.8550   33.5770   16.1010 N.3   403  ALA403     -0.1245
    134  CA        24.6190   33.4780   17.3140 C.3   403  ALA403      0.1562
    135  C         25.7820   32.4940   17.2030 C.2   403  ALA403      0.2260
    136  O         26.9050   32.7310   17.7210 O.2   403  ALA403     -0.2867
    137  CB        23.7140   33.0830   18.4780 C.3   403  ALA403      0.0290
@<TRIPOS>BOND
     1   105   103    1
     2    44    42    1
     3   124   125    1
     4    98    99    1
     5    33    27    1
     6    33    32    1
     7   102   103    1
     8   102    99    1
     9   102   104    1
    10    21    22    1
    11    27    28    1
    12    30    29    2
    13    22    23    1
    14    22    25    1
    15    99   100    1
    16    42    43    1
    17    42    39    1
    18   100   101    2
    19   125   126    1
    20    32    31    1
    21    93    92    2
    22    23    24    2
    23    19    20    2
    24    19    18    1
    25    29    28    1
    26    29    34   am
    27    31    28    1
    28   126   128   am
    29   126   127    2
    30   130   131    2
    31   130   129    1
    32    39    38    1
    33    39    40    1
    34    26    25    1
    35   128   129    1
    36   133   134    1
    37    37    36    2
    38    18    17    1
    39    92    91    1
    40    38    36   am
    41    36    35    1
    42    41    40    2
    43   129   132    1
    44    34    35    1
    45    40    45   am
    46    94    91    1
    47    94    95    1
    48    91    90    1
    49   135   134    1
    50   135   136    2
    51   134   137    1
    52    57    56    1
    53   106   107    1
    54    17    11   am
    55    95    96    2
    56    95    97   am
    57    45    46    1
    58   118   119    1
    59   118   115    1
    60    12    11    2
    61   113   111    1
    62    11    10    1
    63    55    56    1
    64    55    54    1
    65   114   115    1
    66   114   108   am
    67   119   121   ar
    68   119   120   ar
    69   107   110    1
    70   107   108    1
    71   111   110    1
    72   110   112    1
    73    54    53    1
    74   115   116    1
    75   121   123   ar
    76   116   117    2
    77    46    47    1
    78   120   122   ar
    79   108   109    2
    80    15    13    1
    81    10    13    1
    82    10     9    1
    83   123   122   ar
    84    47    49   am
    85    47    48    2
    86    49    50    1
    87    13    14    1
    88    53    50    1
    89    50    51    1
    90     9     3   am
    91     4     3    2
    92     3     2    1
    93    72    70    1
    94    14    16    1
    95    51    58   am
    96    51    52    2
    97     2     1    1
    98     2     5    1
    99    69    70    1
   100    69    66    1
   101    58    59    1
   102    70    71    1
   103    65    66    1
   104    65    60   am
   105     5     6    1
   106    66    67    1
   107    67    68    2
   108    59    62    1
   109    59    60    1
   110    63    62    1
   111     7     6   ar
   112    86    85    1
   113    86    87    1
   114    62    64    1
   115    60    61    2
   116    82    83    1
   117    82    85    1
   118    82    81    1
   119    88    87   ar
   120     6     8   ar
   121    79    78   ar
   122    83    84    2
   123    87    89   ar
   124    81    75   am
   125    78    80   ar
   126    78    77    1
   127    75    74    1
   128    75    76    2
   129    74    77    1
   130    74    73    1
