@<TRIPOS>MOLECULE
tmp/5kj2A00.pdb
 233 234 0 0 0
SMALL
GASTEIGER

@<TRIPOS>ATOM
      1  N         36.5890    2.8200  191.0000 N.3    88  PHE88      -0.1241
      2  CA        37.6130    3.8600  190.9190 C.3    88  PHE88       0.1605
      3  C         39.0430    3.2880  190.8880 C.2    88  PHE88       0.2264
      4  O         39.3550    2.3480  191.6170 O.2    88  PHE88      -0.2867
      5  CB        37.4610    4.7950  192.1470 C.3    88  PHE88       0.0534
      6  CG        38.5410    5.8220  192.3310 C.ar   88  PHE88      -0.0203
      7  CD1       38.4530    7.0620  191.7140 C.ar   88  PHE88      -0.0042
      8  CD2       39.6250    5.5690  193.1520 C.ar   88  PHE88      -0.0042
      9  CE1       39.4700    8.0110  191.8740 C.ar   88  PHE88      -0.0003
     10  CE2       40.6350    6.5170  193.3110 C.ar   88  PHE88      -0.0003
     11  CZ        40.5360    7.7420  192.6890 C.ar   88  PHE88      -0.0000
     12  N         43.3710    8.8700  186.3350 N.3   112  LEU112     -0.1231
     13  CA        42.2790    8.5550  187.2470 C.3   112  LEU112      0.1693
     14  C         41.1730    8.0090  186.3670 C.2   112  LEU112      0.2592
     15  O         40.9900    8.4800  185.2540 O.2   112  LEU112     -0.2718
     16  CB        41.8560    9.9030  187.8790 C.3   112  LEU112      0.0284
     17  CG        40.6530    9.9970  188.7880 C.3   112  LEU112      0.0019
     18  CD1       40.8180   11.1590  189.6930 C.3   112  LEU112      0.0001
     19  CD2       39.3470   10.1930  187.9760 C.3   112  LEU112      0.0001
     20  N         40.4280    7.0100  186.8550 N.am  113  ASP113     -0.1960
     21  CA        39.3170    6.4130  186.1170 C.3   113  ASP113      0.1840
     22  C         38.2390    5.9290  187.1020 C.2   113  ASP113      0.2622
     23  O         38.5380    5.6840  188.2630 O.2   113  ASP113     -0.2715
     24  CB        39.7910    5.2480  185.2280 C.3   113  ASP113      0.1450
     25  CG        38.8780    4.9410  184.0360 C.2   113  ASP113      0.3671
     26  OD1       37.7310    5.4460  184.0130 O.co2 113  ASP113     -0.2456
     27  OD2       39.3180    4.2140  183.1210 O.co2 113  ASP113     -0.2456
     28  N         36.9940    5.8460  186.6300 N.am  114  SER114     -0.1950
     29  CA        35.8440    5.4130  187.4300 C.3   114  SER114      0.1924
     30  C         34.8470    4.6430  186.5430 C.2   114  SER114      0.2314
     31  O         34.8300    4.8460  185.3200 O.2   114  SER114     -0.2863
     32  CB        35.1510    6.6310  188.0520 C.3   114  SER114      0.2116
     33  OG        34.7910    7.5860  187.0650 O.3   114  SER114     -0.2180
     34  N         27.5040    9.0720  194.6770 N.3   124  ARG124     -0.1231
     35  CA        28.7310    8.8980  193.8690 C.3   124  ARG124      0.1694
     36  C         29.7130   10.0850  194.0380 C.2   124  ARG124      0.2592
     37  O         30.8240    9.8980  194.5350 O.2   124  ARG124     -0.2718
     38  CB        28.3810    8.7160  192.3740 C.3   124  ARG124      0.0321
     39  CG        27.6660    7.4230  192.0230 C.3   124  ARG124      0.0489
     40  CD        27.2690    7.3590  190.5560 C.3   124  ARG124      0.2205
     41  NE        28.3820    7.6970  189.6640 N.pl3 124  ARG124     -0.0865
     42  CZ        28.3490    8.6660  188.7540 C.cat 124  ARG124      0.5346
     43  NH1       27.2490    9.3920  188.5860 N.pl3 124  ARG124      0.1354
     44  NH2       29.4100    8.9060  187.9920 N.pl3 124  ARG124      0.1354
     45  N         29.2730   11.3020  193.6480 N.am  125  THR125     -0.1953
     46  CA        30.0500   12.5510  193.7000 C.3   125  THR125      0.1897
     47  C         30.7430   12.6950  195.0410 C.2   125  THR125      0.2313
     48  O         31.9690   12.8220  195.0930 O.2   125  THR125     -0.2863
     49  CB        29.1570   13.7580  193.3360 C.3   125  THR125      0.1794
     50  OG1       28.5120   13.5020  192.0850 O.3   125  THR125     -0.2208
     51  CG2       29.9360   15.0740  193.2550 C.3   125  THR125      0.0378
     52  N         33.6780   10.2100  195.6160 N.3   128  TYR128     -0.1241
     53  CA        34.8690   10.5600  194.8170 C.3   128  TYR128      0.1605
     54  C         35.6660   11.6690  195.5300 C.2   128  TYR128      0.2264
     55  O         36.9000   11.6110  195.5650 O.2   128  TYR128     -0.2867
     56  CB        34.4610   11.0120  193.4110 C.3   128  TYR128      0.0534
     57  CG        33.7680    9.9860  192.5420 C.ar  128  TYR128     -0.0201
     58  CD1       34.0980    8.6330  192.6230 C.ar  128  TYR128     -0.0009
     59  CD2       32.8940   10.3810  191.5350 C.ar  128  TYR128     -0.0009
     60  CE1       33.5090    7.6910  191.7740 C.ar  128  TYR128      0.0417
     61  CE2       32.3180    9.4550  190.6690 C.ar  128  TYR128      0.0417
     62  CZ        32.6230    8.1090  190.7980 C.ar  128  TYR128      0.1957
     63  OH        32.0260    7.1980  189.9650 O.3   128  TYR128     -0.2866
     64  N         37.8940   10.1830  198.5780 N.3   131  ILE131     -0.1231
     65  CA        39.1520    9.5540  198.1230 C.3   131  ILE131      0.1692
     66  C         40.1940   10.6370  197.7510 C.2   131  ILE131      0.2591
     67  O         41.2790   10.6590  198.3270 O.2   131  ILE131     -0.2718
     68  CB        38.9300    8.5520  196.9380 C.3   131  ILE131      0.0266
     69  CG1       37.7900    7.5410  197.2160 C.3   131  ILE131      0.0019
     70  CG2       40.2410    7.8240  196.5920 C.3   131  ILE131      0.0020
     71  CD1       37.0440    7.1010  196.0060 C.3   131  ILE131      0.0001
     72  N         39.8400   11.5420  196.8250 N.am  132  LEU132     -0.1980
     73  CA        40.7600   12.5810  196.3310 C.3   132  LEU132      0.1596
     74  C         41.2170   13.5640  197.4270 C.2   132  LEU132      0.2287
     75  O         42.4320   13.7700  197.5960 O.2   132  LEU132     -0.2864
     76  CB        40.1870   13.2980  195.1100 C.3   132  LEU132      0.0297
     77  CG        39.9860   12.4620  193.8210 C.3   132  LEU132      0.0022
     78  CD1       39.7640   13.3620  192.6420 C.3   132  LEU132      0.0001
     79  CD2       41.1940   11.5680  193.5090 C.3   132  LEU132      0.0001
     80  N         41.7000   16.7530  182.3360 N.3   152  CYS152     -0.1221
     81  CA        41.4990   16.5240  180.9110 C.3   152  CYS152      0.1794
     82  C         40.7660   15.1880  180.6960 C.2   152  CYS152      0.2443
     83  O         41.2080   14.1570  181.2140 O.2   152  CYS152     -0.2733
     84  CB        42.8510   16.5700  180.1950 C.3   152  CYS152      0.0970
     85  SG        42.8920   15.8160  178.5520 S.3   152  CYS152     -0.0800
     86  N         39.6030   15.1970  180.0010 N.am  153  PRO153     -0.2718
     87  CA        38.8840   13.9320  179.7740 C.3   153  PRO153      0.1520
     88  C         39.5330   13.1150  178.6440 C.2   153  PRO153      0.2440
     89  O         40.3730   13.6680  177.9260 O.2   153  PRO153     -0.2731
     90  CB        37.4750   14.3950  179.4070 C.3   153  PRO153      0.0310
     91  CG        37.6490   15.7290  178.8030 C.3   153  PRO153      0.0237
     92  CD        38.9190   16.3350  179.3440 C.3   153  PRO153      0.0939
     93  N         39.1490   11.8240  178.4370 N.am  154  PRO154     -0.2727
     94  CA        39.7640   11.0370  177.3580 C.3   154  PRO154      0.1402
     95  C         39.3360   11.4490  175.9610 C.2   154  PRO154      0.2269
     96  O         38.3030   12.1000  175.7850 O.2   154  PRO154     -0.2865
     97  CB        39.3180    9.6100  177.6760 C.3   154  PRO154      0.0296
     98  CG        38.0100    9.7730  178.3530 C.3   154  PRO154      0.0237
     99  CD        38.1700   11.0110  179.1900 C.3   154  PRO154      0.0939
    100  N         36.5880    7.9830  171.9350 N.3   157  GLY157     -0.1210
    101  CA        36.3670    6.6000  172.3520 C.3   157  GLY157      0.1956
    102  C         37.5780    6.0000  173.0400 C.2   157  GLY157      0.2612
    103  O         38.0000    4.8890  172.7010 O.2   157  GLY157     -0.2717
    104  N         38.1670    6.7560  173.9920 N.am  158  ASP158     -0.1959
    105  CA        39.3720    6.3550  174.7100 C.3   158  ASP158      0.1840
    106  C         39.1150    5.9240  176.1460 C.2   158  ASP158      0.2622
    107  O         38.3250    6.5560  176.8480 O.2   158  ASP158     -0.2715
    108  CB        40.4330    7.4610  174.6400 C.3   158  ASP158      0.1450
    109  CG        41.2820    7.4110  173.3820 C.2   158  ASP158      0.3671
    110  OD1       40.7010    7.3620  172.2700 O.co2 158  ASP158     -0.2456
    111  OD2       42.5250    7.4440  173.5060 O.co2 158  ASP158     -0.2456
    112  N         39.7920    4.8240  176.5580 N.am  159  ASP159     -0.1957
    113  CA        39.7290    4.1910  177.8800 C.3   159  ASP159      0.1840
    114  C         41.0300    4.3830  178.6520 C.2   159  ASP159      0.2622
    115  O         42.1050    4.1200  178.0970 O.2   159  ASP159     -0.2715
    116  CB        39.3740    2.6940  177.7480 C.3   159  ASP159      0.1450
    117  CG        37.9160    2.3960  177.4200 C.2   159  ASP159      0.3671
    118  OD1       37.3040    3.1670  176.6430 O.co2 159  ASP159     -0.2456
    119  OD2       37.3830    1.4180  177.9580 O.co2 159  ASP159     -0.2456
    120  N         40.9380    4.8690  179.9180 N.am  160  TYR160     -0.1974
    121  CA        42.1120    5.1370  180.7510 C.3   160  TYR160      0.1639
    122  C         42.6320    3.9070  181.5080 C.2   160  TYR160      0.2290
    123  O         43.6390    3.3500  181.0810 O.2   160  TYR160     -0.2864
    124  CB        41.8890    6.3250  181.7130 C.3   160  TYR160      0.0560
    125  CG        42.0320    7.7050  181.1020 C.ar  160  TYR160     -0.0198
    126  CD1       41.8180    8.8500  181.8650 C.ar  160  TYR160     -0.0009
    127  CD2       42.3840    7.8690  179.7620 C.ar  160  TYR160     -0.0009
    128  CE1       41.9070   10.1240  181.3020 C.ar  160  TYR160      0.0417
    129  CE2       42.4890    9.1410  179.1910 C.ar  160  TYR160      0.0417
    130  CZ        42.2390   10.2660  179.9630 C.ar  160  TYR160      0.1957
    131  OH        42.3440   11.5290  179.4180 O.3   160  TYR160     -0.2866
    132  N         33.8640    0.7970  179.0420 N.3   165  HIS165     -0.1227
    133  CA        33.0110    1.4970  179.9940 C.3   165  HIS165      0.1737
    134  C         31.5180    1.3540  179.6250 C.2   165  HIS165      0.2438
    135  O         31.2220    0.9880  178.4800 O.2   165  HIS165     -0.2733
    136  CB        33.4150    2.9770  180.0520 C.3   165  HIS165      0.0758
    137  CG        34.5820    3.2710  180.9430 C.ar  165  HIS165      0.0818
    138  ND1       35.8870    3.1100  180.5040 N.ar  165  HIS165     -0.2268
    139  CD2       34.6050    3.7610  182.2050 C.ar  165  HIS165      0.1154
    140  CE1       36.6530    3.4740  181.5190 C.ar  165  HIS165      0.1986
    141  NE2       35.9260    3.8780  182.5610 N.ar  165  HIS165     -0.2212
    142  N         30.5610    1.6430  180.5520 N.am  166  PRO166     -0.2718
    143  CA        29.1400    1.5710  180.1700 C.3   166  PRO166      0.1520
    144  C         28.8150    2.6360  179.1290 C.2   166  PRO166      0.2440
    145  O         29.2510    3.7790  179.2990 O.2   166  PRO166     -0.2731
    146  CB        28.3860    1.8360  181.4830 C.3   166  PRO166      0.0310
    147  CG        29.3970    1.8810  182.5380 C.3   166  PRO166      0.0237
    148  CD        30.7170    2.1230  181.9400 C.3   166  PRO166      0.0939
    149  N         28.0740    2.3050  178.0460 N.am  167  PRO167     -0.2727
    150  CA        27.7350    3.3370  177.0500 C.3   167  PRO167      0.1402
    151  C         26.9200    4.4870  177.6500 C.2   167  PRO167      0.2269
    152  O         26.9060    5.5820  177.0820 O.2   167  PRO167     -0.2865
    153  CB        26.9520    2.5630  175.9820 C.3   167  PRO167      0.0296
    154  CG        27.3090    1.1250  176.2040 C.3   167  PRO167      0.0237
    155  CD        27.4880    1.0000  177.6780 C.3   167  PRO167      0.0939
    156  N         27.6010    5.8150  180.7220 N.3   169  GLN169     -0.1231
    157  CA        28.6040    6.6860  181.3490 C.3   169  GLN169      0.1698
    158  C         29.2510    7.5330  180.2580 C.2   169  GLN169      0.2592
    159  O         30.1100    7.0480  179.5200 O.2   169  GLN169     -0.2718
    160  CB        29.6500    5.8630  182.1060 C.3   169  GLN169      0.0381
    161  CG        30.4660    6.7020  183.0800 C.3   169  GLN169      0.0905
    162  CD        31.5850    5.9420  183.7250 C.2   169  GLN169      0.2608
    163  OE1       31.4790    4.7480  184.0160 O.2   169  GLN169     -0.2717
    164  NE2       32.6780    6.6310  183.9970 N.am  169  GLN169     -0.0878
    165  N         28.7760    8.7770  180.1130 N.am  170  LYS170     -0.1966
    166  CA        29.2530    9.7040  179.0970 C.3   170  LYS170      0.1728
    167  C         30.6280   10.2600  179.4330 C.2   170  LYS170      0.2616
    168  O         30.9490   10.4550  180.6150 O.2   170  LYS170     -0.2715
    169  CB        28.2540   10.8590  178.9110 C.3   170  LYS170      0.0311
    170  CG        26.8740   10.4320  178.4610 C.3   170  LYS170      0.0038
    171  CD        26.9420    9.7150  177.1280 C.3   170  LYS170      0.0206
    172  CE        25.5680    9.6280  176.4850 C.3   170  LYS170      0.1093
    173  NZ        24.5870    9.0790  177.4620 N.3   170  LYS170     -0.1314
    174  N         31.4430   10.5070  178.3820 N.am  171  ILE171     -0.1964
    175  CA        32.7510   11.1340  178.5350 C.3   171  ILE171      0.1712
    176  C         32.4440   12.6170  178.8260 C.2   171  ILE171      0.2458
    177  O         31.8180   13.2830  177.9860 O.2   171  ILE171     -0.2730
    178  CB        33.6970   10.9290  177.3000 C.3   171  ILE171      0.0289
    179  CG1       34.1490    9.4640  177.1710 C.3   171  ILE171      0.0022
    180  CG2       34.9330   11.8240  177.3880 C.3   171  ILE171      0.0023
    181  CD1       33.4090    8.6890  176.1050 C.3   171  ILE171      0.0001
    182  N         32.7890   13.1330  180.0300 N.am  172  PRO172     -0.2727
    183  CA        32.4870   14.5500  180.3230 C.3   172  PRO172      0.1402
    184  C         33.2120   15.5250  179.4070 C.2   172  PRO172      0.2269
    185  O         34.3420   15.2610  178.9870 O.2   172  PRO172     -0.2865
    186  CB        32.9530   14.7230  181.7630 C.3   172  PRO172      0.0296
    187  CG        33.9750   13.6810  181.9570 C.3   172  PRO172      0.0237
    188  CD        33.5020   12.5000  181.1570 C.3   172  PRO172      0.0939
    189  N         32.8570   20.7000  182.1510 N.3   176  ARG176     -0.1231
    190  CA        32.1670   19.9100  183.1950 C.3   176  ARG176      0.1694
    191  C         33.2150   19.3100  184.1520 C.2   176  ARG176      0.2591
    192  O         33.0340   19.3140  185.3670 O.2   176  ARG176     -0.2718
    193  CB        31.3260   18.7580  182.5810 C.3   176  ARG176      0.0321
    194  CG        30.5750   17.9440  183.6650 C.3   176  ARG176      0.0489
    195  CD        29.7330   16.7870  183.1540 C.3   176  ARG176      0.2205
    196  NE        28.9710   16.1950  184.2600 N.pl3 176  ARG176     -0.0865
    197  CZ        28.8660   14.8940  184.4970 C.cat 176  ARG176      0.5346
    198  NH1       29.4610   14.0150  183.6960 N.pl3 176  ARG176      0.1354
    199  NH2       28.1820   14.4590  185.5450 N.pl3 176  ARG176      0.1354
    200  N         34.2910   18.7480  183.5870 N.am  177  LEU177     -0.1980
    201  CA        35.3430   18.1260  184.3740 C.3   177  LEU177      0.1596
    202  C         36.0830   19.1830  185.2180 C.2   177  LEU177      0.2287
    203  O         36.3110   18.9630  186.4110 O.2   177  LEU177     -0.2864
    204  CB        36.3030   17.3550  183.4350 C.3   177  LEU177      0.0297
    205  CG        37.3480   16.4750  184.0950 C.3   177  LEU177      0.0022
    206  CD1       36.7240   15.3570  184.8720 C.3   177  LEU177      0.0001
    207  CD2       38.2770   15.9050  183.0640 C.3   177  LEU177      0.0001
    208  N         33.9600   20.2110  188.0490 N.3   180  TRP180     -0.1227
    209  CA        34.0070   19.1390  189.0320 C.3   180  TRP180      0.1737
    210  C         35.2220   19.2570  189.9470 C.2   180  TRP180      0.2595
    211  O         35.0900   19.0910  191.1630 O.2   180  TRP180     -0.2718
    212  CB        33.9800   17.7580  188.3450 C.3   180  TRP180      0.0564
    213  CG        33.6480   16.6550  189.3020 C.ar  180  TRP180      0.0003
    214  CD1       32.4050   16.1640  189.5800 C.ar  180  TRP180      0.0946
    215  CD2       34.5520   15.9870  190.1930 C.ar  180  TRP180      0.0152
    216  NE1       32.4790   15.2230  190.5750 N.ar  180  TRP180     -0.2442
    217  CE2       33.7830   15.1000  190.9790 C.ar  180  TRP180      0.0810
    218  CE3       35.9420   16.0540  190.4090 C.ar  180  TRP180      0.0012
    219  CZ2       34.3520   14.2870  191.9530 C.ar  180  TRP180      0.0191
    220  CZ3       36.5010   15.2810  191.4100 C.ar  180  TRP180      0.0001
    221  CH2       35.7100   14.4170  192.1780 C.ar  180  TRP180      0.0015
    222  N         36.4300   19.4310  189.3730 N.am  181  TYR181     -0.1976
    223  CA        37.6390   19.5270  190.2070 C.3   181  TYR181      0.1639
    224  C         37.6540   20.7970  191.0290 C.2   181  TYR181      0.2290
    225  O         38.1330   20.7500  192.1550 O.2   181  TYR181     -0.2864
    226  CB        38.9120   19.4480  189.3480 C.3   181  TYR181      0.0560
    227  CG        39.2980   18.0290  188.9980 C.ar  181  TYR181     -0.0198
    228  CD1       39.9490   17.2170  189.9190 C.ar  181  TYR181     -0.0009
    229  CD2       39.0390   17.5080  187.7310 C.ar  181  TYR181     -0.0009
    230  CE1       40.3430   15.9170  189.5920 C.ar  181  TYR181      0.0417
    231  CE2       39.4370   16.2120  187.3860 C.ar  181  TYR181      0.0417
    232  CZ        40.0900   15.4220  188.3230 C.ar  181  TYR181      0.1957
    233  OH        40.4660   14.1390  188.0120 O.3   181  TYR181     -0.2866
@<TRIPOS>BOND
     1   100   101    1
     2   110   109   ar
     3   101   102    1
     4   103   102    2
     5   102   104   am
     6   109   111   ar
     7   109   108    1
     8   104   105    1
     9   108   105    1
    10   105   106    1
    11    96    95    2
    12    95    94    1
    13   153   154    1
    14   153   150    1
    15   181   179    1
    16   106   112   am
    17   106   107    2
    18   154   155    1
    19   172   171    1
    20   172   173    1
    21   112   113    1
    22   118   117   ar
    23   150   151    1
    24   150   149    1
    25   152   151    2
    26   171   170    1
    27   179   178    1
    28   178   180    1
    29   178   175    1
    30    94    97    1
    31    94    93    1
    32   117   116    1
    33   117   119   ar
    34    97    98    1
    35   155   149    1
    36   116   113    1
    37   113   114    1
    38    89    88    2
    39   177   176    2
    40   149   144   am
    41   115   114    2
    42    98    99    1
    43   174   175    1
    44   174   167   am
    45    93    88   am
    46    93    99    1
    47   170   169    1
    48   135   134    2
    49   175   176    1
    50    85    84    1
    51    88    87    1
    52   114   120   am
    53    91    92    1
    54    91    90    1
    55   176   182   am
    56   169   166    1
    57   185   184    2
    58   132   133    1
    59   166   167    1
    60   166   165    1
    61   144   145    2
    62   144   143    1
    63   129   127   ar
    64   129   130   ar
    65    92    86    1
    66    90    87    1
    67   184   183    1
    68   131   130    1
    69   167   168    2
    70   159   158    2
    71   134   133    1
    72   134   142   am
    73   127   125   ar
    74    87    86    1
    75   120   121    1
    76   130   128   ar
    77   133   136    1
    78    86    82   am
    79   182   183    1
    80   182   188    1
    81   136   137    1
    82   165   158   am
    83   143   142    1
    84   143   146    1
    85    84    81    1
    86   158   157    1
    87   183   186    1
    88   138   137   ar
    89   138   140   ar
    90   142   148    1
    91    82    81    1
    92    82    83    2
    93   156   157    1
    94   121   122    1
    95   121   124    1
    96    81    80    1
    97   137   139   ar
    98   123   122    2
    99   125   124    1
   100   125   126   ar
   101   188   187    1
   102   128   126   ar
   103   157   160    1
   104   146   147    1
   105   140   141   ar
   106   186   187    1
   107   148   147    1
   108   160   161    1
   109   189   190    1
   110   139   141   ar
   111   193   190    1
   112   193   194    1
   113   207   205    1
   114   161   162    1
   115    27    25   ar
   116   195   194    1
   117   195   196    1
   118   190   191    1
   119   204   205    1
   120   204   201    1
   121   200   191   am
   122   200   201    1
   123   198   197    1
   124   162   164   am
   125   162   163    2
   126    26    25   ar
   127    25    24    1
   128   205   206    1
   129   191   192    2
   130   196   197    2
   131   201   202    1
   132   197   199    1
   133   202   203    2
   134    24    21    1
   135    15    14    2
   136    31    30    2
   137    21    20    1
   138    21    22    1
   139    12    13    1
   140    14    20   am
   141    14    13    1
   142    30    29    1
   143    28    22   am
   144    28    29    1
   145    33    32    1
   146    22    23    2
   147    13    16    1
   148   231   229   ar
   149   231   232   ar
   150    29    32    1
   151   229   227   ar
   152    16    17    1
   153    19    17    1
   154    44    42    1
   155   233   232    1
   156   208   209    1
   157   232   230   ar
   158   212   209    1
   159   212   213    1
   160    43    42    1
   161    42    41    2
   162    17    18    1
   163   227   226    1
   164   227   228   ar
   165   209   210    1
   166   213   214   ar
   167   213   215   ar
   168   226   223    1
   169   222   210   am
   170   222   223    1
   171   214   216   ar
   172   230   228   ar
   173    41    40    1
   174   210   211    2
   175    63    62    1
   176   215   218   ar
   177   215   217   ar
   178   223   224    1
   179   218   220   ar
   180    40    39    1
   181   216   217   ar
   182    61    62   ar
   183    61    59   ar
   184    62    60   ar
   185     3     2    1
   186     3     4    2
   187     2     1    1
   188     2     5    1
   189   217   219   ar
   190   224   225    2
   191   220   221   ar
   192    59    57   ar
   193     7     9   ar
   194     7     6   ar
   195    60    58   ar
   196     9    11   ar
   197   219   221   ar
   198    39    38    1
   199    50    49    1
   200     5     6    1
   201     6     8   ar
   202    38    35    1
   203    57    58   ar
   204    57    56    1
   205    78    77    1
   206    11    10   ar
   207     8    10   ar
   208    51    49    1
   209    49    46    1
   210    56    53    1
   211    79    77    1
   212    45    46    1
   213    45    36   am
   214    46    47    1
   215    77    76    1
   216    35    36    1
   217    35    34    1
   218    36    37    2
   219    53    54    1
   220    53    52    1
   221    47    48    2
   222    76    73    1
   223    54    55    2
   224    71    69    1
   225    73    72    1
   226    73    74    1
   227    70    68    1
   228    72    66   am
   229    68    69    1
   230    68    65    1
   231    74    75    2
   232    66    65    1
   233    66    67    2
   234    65    64    1
