@<TRIPOS>MOLECULE
tmp/5kjhB00.pdb
 200 198 0 0 0
SMALL
GASTEIGER

@<TRIPOS>ATOM
      1  N         82.0460   86.5600  298.5890 N.3   106  PRO106     -0.2102
      2  CA        81.7470   85.6940  297.4390 C.3   106  PRO106      0.1504
      3  C         80.5860   86.1390  296.5410 C.2   106  PRO106      0.2575
      4  O         79.7670   86.9810  296.9110 O.2   106  PRO106     -0.2718
      5  CB        81.5040   84.3170  298.0760 C.3   106  PRO106      0.0282
      6  CG        81.2610   84.5480  299.4800 C.3   106  PRO106      0.0208
      7  CD        81.8580   85.8560  299.8760 C.3   106  PRO106      0.0893
      8  N         80.5570   85.6000  295.3170 N.am  107  TYR107     -0.1977
      9  CA        79.5120   85.8770  294.3290 C.3   107  TYR107      0.1639
     10  C         79.5850   84.8620  293.2040 C.2   107  TYR107      0.2290
     11  O         80.6170   84.2320  292.9900 O.2   107  TYR107     -0.2864
     12  CB        79.5830   87.3430  293.7610 C.3   107  TYR107      0.0560
     13  CG        80.8430   87.6290  292.9780 C.ar  107  TYR107     -0.0198
     14  CD1       80.9640   87.2410  291.6430 C.ar  107  TYR107     -0.0009
     15  CD2       81.9180   88.2860  293.5670 C.ar  107  TYR107     -0.0009
     16  CE1       82.1420   87.4630  290.9290 C.ar  107  TYR107      0.0417
     17  CE2       83.0920   88.5300  292.8590 C.ar  107  TYR107      0.0417
     18  CZ        83.2020   88.1100  291.5430 C.ar  107  TYR107      0.1957
     19  OH        84.3740   88.3140  290.8580 O.3   107  TYR107     -0.2866
     20  N         78.3470   90.5660  287.6600 N.3   111  HIS111     -0.1241
     21  CA        77.2150   91.4650  287.9340 C.3   111  HIS111      0.1621
     22  C         77.3180   92.7410  287.0640 C.2   111  HIS111      0.2264
     23  O         78.1610   93.5830  287.3110 O.2   111  HIS111     -0.2867
     24  CB        77.1070   91.7530  289.4520 C.3   111  HIS111      0.0745
     25  CG        76.8380   90.5290  290.2920 C.ar  111  HIS111      0.0817
     26  ND1       76.8780   90.5780  291.6620 N.ar  111  HIS111     -0.2268
     27  CD2       76.5400   89.2600  289.9200 C.ar  111  HIS111      0.1154
     28  CE1       76.6040   89.3540  292.0900 C.ar  111  HIS111      0.1986
     29  NE2       76.4120   88.5230  291.0780 N.ar  111  HIS111     -0.2212
     30  N         76.1120   92.9510  308.7710 N.3   541  LEU541     -0.1245
     31  CA        75.5170   91.7010  309.2430 C.3   541  LEU541      0.1561
     32  C         76.5840   90.5970  309.1240 C.2   541  LEU541      0.2260
     33  O         77.2690   90.4970  308.0870 O.2   541  LEU541     -0.2867
     34  CB        74.2580   91.3470  308.4260 C.3   541  LEU541      0.0270
     35  CG        73.1350   92.4060  308.3390 C.3   541  LEU541      0.0019
     36  CD1       72.0150   91.9330  307.4410 C.3   541  LEU541      0.0001
     37  CD2       72.5700   92.7610  309.7330 C.3   541  LEU541      0.0001
     38  N         77.4630   87.9270  305.9480 N.3   544  CYS544     -0.1221
     39  CA        76.3670   88.2880  305.0580 C.3   544  CYS544      0.1808
     40  C         76.8110   88.9140  303.7320 C.2   544  CYS544      0.2602
     41  O         76.0270   89.6480  303.1160 O.2   544  CYS544     -0.2717
     42  CB        75.3720   89.1800  305.7930 C.3   544  CYS544      0.0970
     43  SG        73.6990   89.1640  305.1030 S.3   544  CYS544     -0.0800
     44  N         78.0260   88.5860  303.2830 N.am  545  GLY545     -0.1942
     45  CA        78.5800   89.0510  302.0190 C.3   545  GLY545      0.2014
     46  C         78.5670   90.5470  301.8180 C.2   545  GLY545      0.2638
     47  O         78.9800   91.2950  302.6980 O.2   545  GLY545     -0.2714
     48  N         78.1020   90.9880  300.6470 N.am  546  TYR546     -0.1973
     49  CA        77.9740   92.3990  300.2840 C.3   546  TYR546      0.1639
     50  C         76.7270   93.0310  300.8980 C.2   546  TYR546      0.2290
     51  O         75.7450   92.3420  301.2160 O.2   546  TYR546     -0.2864
     52  CB        77.9000   92.5760  298.7460 C.3   546  TYR546      0.0560
     53  CG        79.1520   92.1150  298.0250 C.ar  546  TYR546     -0.0198
     54  CD1       80.2850   92.9230  297.9620 C.ar  546  TYR546     -0.0009
     55  CD2       79.2100   90.8580  297.4230 C.ar  546  TYR546     -0.0009
     56  CE1       81.4570   92.4750  297.3520 C.ar  546  TYR546      0.0417
     57  CE2       80.3610   90.4160  296.7820 C.ar  546  TYR546      0.0417
     58  CZ        81.4860   91.2210  296.7580 C.ar  546  TYR546      0.1957
     59  OH        82.6250   90.7580  296.1490 O.3   546  TYR546     -0.2866
     60  N         71.2990   79.5340  299.0420 N.3   586  LYS586     -0.1231
     61  CA        71.1610   80.4990  300.1350 C.3   586  LYS586      0.1693
     62  C         70.9810   81.9420  299.6310 C.2   586  LYS586      0.2592
     63  O         70.0650   82.6200  300.1110 O.2   586  LYS586     -0.2718
     64  CB        72.2990   80.3860  301.1810 C.3   586  LYS586      0.0285
     65  CG        73.7250   80.5180  300.6540 C.3   586  LYS586      0.0035
     66  CD        74.7290   80.3610  301.7910 C.3   586  LYS586      0.0206
     67  CE        76.1520   80.4390  301.2990 C.3   586  LYS586      0.1093
     68  NZ        77.1220   80.3160  302.4140 N.3   586  LYS586     -0.1314
     69  N         71.8230   82.3940  298.6600 N.am  587  VAL587     -0.1966
     70  CA        71.7250   83.7460  298.0830 C.3   587  VAL587      0.1727
     71  C         70.7410   83.7770  296.8840 C.2   587  VAL587      0.2617
     72  O         70.8690   82.9880  295.9390 O.2   587  VAL587     -0.2715
     73  CB        73.0940   84.4100  297.7500 C.3   587  VAL587      0.0290
     74  CG1       72.8960   85.8620  297.3270 C.3   587  VAL587      0.0023
     75  CG2       74.0390   84.3590  298.9510 C.3   587  VAL587      0.0023
     76  N         69.7350   84.6810  296.9640 N.am  588  SER588     -0.1936
     77  CA        68.6980   84.8940  295.9370 C.3   588  SER588      0.2055
     78  C         68.5740   86.3910  295.6250 C.2   588  SER588      0.2643
     79  O         68.6750   87.2240  296.5260 O.2   588  SER588     -0.2714
     80  CB        67.3560   84.3520  296.4280 C.3   588  SER588      0.2130
     81  OG        66.2320   84.8430  295.7110 O.3   588  SER588     -0.2179
     82  N         68.2950   86.7220  294.3620 N.am  589  TYR589     -0.1973
     83  CA        68.1200   88.1120  293.9460 C.3   589  TYR589      0.1639
     84  C         66.7890   88.3160  293.2660 C.2   589  TYR589      0.2290
     85  O         66.6480   89.2010  292.4270 O.2   589  TYR589     -0.2864
     86  CB        69.2600   88.5460  293.0330 C.3   589  TYR589      0.0560
     87  CG        70.6280   88.3950  293.6430 C.ar  589  TYR589     -0.0198
     88  CD1       71.2100   89.4370  294.3620 C.ar  589  TYR589     -0.0009
     89  CD2       71.3720   87.2280  293.4570 C.ar  589  TYR589     -0.0009
     90  CE1       72.4950   89.3210  294.8890 C.ar  589  TYR589      0.0417
     91  CE2       72.6470   87.0890  294.0060 C.ar  589  TYR589      0.0417
     92  CZ        73.2050   88.1410  294.7120 C.ar  589  TYR589      0.1957
     93  OH        74.4590   88.0120  295.2330 O.3   589  TYR589     -0.2866
     94  N         70.5880   95.2030  294.2110 N.3   611  ARG611     -0.1231
     95  CA        70.5540   93.7490  294.4250 C.3   611  ARG611      0.1694
     96  C         71.3130   93.3770  295.7090 C.2   611  ARG611      0.2592
     97  O         71.1070   92.2810  296.2380 O.2   611  ARG611     -0.2718
     98  CB        71.1370   92.9900  293.2130 C.3   611  ARG611      0.0321
     99  CG        72.6500   93.0780  293.0770 C.3   611  ARG611      0.0489
    100  CD        73.0980   92.4630  291.7900 C.3   611  ARG611      0.2205
    101  NE        73.3350   93.4720  290.7650 N.pl3 611  ARG611     -0.0865
    102  CZ        73.5420   93.1940  289.4870 C.cat 611  ARG611      0.5346
    103  NH1       73.4300   91.9440  289.0440 N.pl3 611  ARG611      0.1354
    104  NH2       73.8300   94.1600  288.6340 N.pl3 611  ARG611      0.1354
    105  N         72.1860   94.2900  296.2030 N.am  612  TYR612     -0.1976
    106  CA        73.0030   94.0680  297.4080 C.3   612  TYR612      0.1639
    107  C         72.4070   94.5810  298.6980 C.2   612  TYR612      0.2290
    108  O         73.0360   94.4160  299.7490 O.2   612  TYR612     -0.2864
    109  CB        74.4160   94.6400  297.2460 C.3   612  TYR612      0.0560
    110  CG        75.1270   94.1620  296.0020 C.ar  612  TYR612     -0.0198
    111  CD1       75.5560   92.8400  295.8830 C.ar  612  TYR612     -0.0009
    112  CD2       75.4030   95.0380  294.9590 C.ar  612  TYR612     -0.0009
    113  CE1       76.2370   92.4050  294.7530 C.ar  612  TYR612      0.0417
    114  CE2       76.0780   94.6180  293.8260 C.ar  612  TYR612      0.0417
    115  CZ        76.5070   93.3050  293.7310 C.ar  612  TYR612      0.1957
    116  OH        77.1760   92.9340  292.5990 O.3   612  TYR612     -0.2866
    117  N         70.6570   94.3390  301.8660 N.3   614  ASN614     -0.1225
    118  CA        70.3130   93.2570  302.7660 C.3   614  ASN614      0.1785
    119  C         68.9880   93.4700  303.5030 C.2   614  ASN614      0.2597
    120  O         68.4400   94.5810  303.5210 O.2   614  ASN614     -0.2718
    121  CB        71.4690   93.0340  303.7550 C.3   614  ASN614      0.1169
    122  CG        72.6430   92.4070  303.0540 C.2   614  ASN614      0.2627
    123  OD1       72.5060   91.4200  302.3140 O.2   614  ASN614     -0.2716
    124  ND2       73.7890   93.0280  303.1730 N.am  614  ASN614     -0.0877
    125  N         68.4900   92.3860  304.1250 N.am  615  HIS615     -0.1975
    126  CA        67.2520   92.3780  304.8930 C.3   615  HIS615      0.1656
    127  C         67.4240   92.8270  306.3370 C.2   615  HIS615      0.2291
    128  O         68.3860   92.4620  307.0010 O.2   615  HIS615     -0.2864
    129  CB        66.5740   90.9870  304.8460 C.3   615  HIS615      0.0771
    130  CG        65.4190   90.8670  305.8030 C.ar  615  HIS615      0.0820
    131  ND1       64.1590   91.3110  305.4660 N.ar  615  HIS615     -0.2267
    132  CD2       65.3980   90.4220  307.0820 C.ar  615  HIS615      0.1154
    133  CE1       63.4080   91.0900  306.5290 C.ar  615  HIS615      0.1986
    134  NE2       64.1220   90.5760  307.5310 N.ar  615  HIS615     -0.2212
    135  N         62.3770   92.4540  303.5140 N.3   652  TYR652     -0.1241
    136  CA        62.1730   91.5910  302.3340 C.3   652  TYR652      0.1605
    137  C         60.7270   91.0700  302.2860 C.2   652  TYR652      0.2264
    138  O         60.2590   90.6880  301.2150 O.2   652  TYR652     -0.2867
    139  CB        63.1470   90.3860  302.3640 C.3   652  TYR652      0.0534
    140  CG        64.5550   90.6270  301.8500 C.ar  652  TYR652     -0.0201
    141  CD1       65.0790   91.9170  301.7580 C.ar  652  TYR652     -0.0009
    142  CD2       65.3840   89.5570  301.5040 C.ar  652  TYR652     -0.0009
    143  CE1       66.3880   92.1350  301.3330 C.ar  652  TYR652      0.0417
    144  CE2       66.6900   89.7660  301.0710 C.ar  652  TYR652      0.0417
    145  CZ        67.1860   91.0560  300.9850 C.ar  652  TYR652      0.1957
    146  OH        68.4660   91.2680  300.5610 O.3   652  TYR652     -0.2866
    147  N         60.3010   85.3460  302.3330 N.3   656  PHE656     -0.1241
    148  CA        61.7350   85.1070  302.4420 C.3   656  PHE656      0.1605
    149  C         61.9390   84.7160  303.9120 C.2   656  PHE656      0.2264
    150  O         61.8470   85.5750  304.7930 O.2   656  PHE656     -0.2867
    151  CB        62.5450   86.3440  302.0180 C.3   656  PHE656      0.0534
    152  CG        63.7930   86.0690  301.1980 C.ar  656  PHE656     -0.0203
    153  CD1       64.7930   85.2240  301.6770 C.ar  656  PHE656     -0.0042
    154  CD2       64.0030   86.7140  299.9860 C.ar  656  PHE656     -0.0042
    155  CE1       65.9580   85.0020  300.9390 C.ar  656  PHE656     -0.0003
    156  CE2       65.1710   86.4900  299.2470 C.ar  656  PHE656     -0.0003
    157  CZ        66.1400   85.6360  299.7290 C.ar  656  PHE656     -0.0000
    158  N         64.3850   82.3360  306.3110 N.3   658  ASN658     -0.1225
    159  CA        65.5560   82.3190  307.1910 C.3   658  ASN658      0.1785
    160  C         66.4860   83.5540  307.0740 C.2   658  ASN658      0.2597
    161  O         67.6400   83.4280  306.6520 O.2   658  ASN658     -0.2718
    162  CB        66.3440   81.0020  307.0080 C.3   658  ASN658      0.1169
    163  CG        66.7440   80.6550  305.5830 C.2   658  ASN658      0.2627
    164  OD1       66.5480   81.4280  304.6290 O.2   658  ASN658     -0.2716
    165  ND2       67.3500   79.4880  305.4140 N.am  658  ASN658     -0.0877
    166  N         66.0000   84.7350  307.4990 N.am  659  LEU659     -0.1966
    167  CA        66.8130   85.9590  307.4820 C.3   659  LEU659      0.1728
    168  C         66.9630   86.4410  308.9230 C.2   659  LEU659      0.2617
    169  O         66.4180   87.4780  309.3100 O.2   659  LEU659     -0.2715
    170  CB        66.1910   87.0430  306.5760 C.3   659  LEU659      0.0311
    171  CG        65.8820   86.6710  305.1300 C.3   659  LEU659      0.0022
    172  CD1       64.8440   87.5890  304.5720 C.3   659  LEU659      0.0001
    173  CD2       67.1170   86.6880  304.2690 C.3   659  LEU659      0.0001
    174  N         67.6910   85.6530  309.7240 N.am  660  THR660     -0.1937
    175  CA        67.8420   85.8740  311.1650 C.3   660  THR660      0.2028
    176  C         68.9380   86.9040  311.5800 C.2   660  THR660      0.2642
    177  O         68.9050   87.3620  312.7290 O.2   660  THR660     -0.2714
    178  CB        68.0410   84.5230  311.8810 C.3   660  THR660      0.1808
    179  OG1       69.3000   83.9510  311.5120 O.3   660  THR660     -0.2208
    180  CG2       66.8930   83.5350  311.6100 C.3   660  THR660      0.0379
    181  N         69.8760   87.2790  310.6720 N.am  661  LYS661     -0.1977
    182  CA        70.9500   88.2360  311.0040 C.3   661  LYS661      0.1596
    183  C         70.4320   89.6500  311.2470 C.2   661  LYS661      0.2287
    184  O         69.6220   90.1630  310.4700 O.2   661  LYS661     -0.2864
    185  CB        72.0820   88.2250  309.9570 C.3   661  LYS661      0.0298
    186  CG        72.7110   86.8550  309.7660 C.3   661  LYS661      0.0038
    187  CD        73.4830   86.7680  308.4840 C.3   661  LYS661      0.0206
    188  CE        73.9540   85.3640  308.2170 C.3   661  LYS661      0.1093
    189  NZ        74.6860   85.2720  306.9300 N.3   661  LYS661     -0.1314
    190  N         62.1080   88.6730  297.4680 N.3   670  ARG670     -0.1245
    191  CA        61.6670   89.9220  298.0600 C.3   670  ARG670      0.1563
    192  C         60.2630   90.2060  297.4820 C.2   670  ARG670      0.2260
    193  O         59.9660   89.8660  296.3420 O.2   670  ARG670     -0.2867
    194  CB        62.6100   91.0720  297.6780 C.3   670  ARG670      0.0307
    195  CG        64.0800   90.8820  297.9950 C.3   670  ARG670      0.0489
    196  CD        64.9020   91.4090  296.8350 C.3   670  ARG670      0.2205
    197  NE        66.3320   91.5420  297.1230 N.pl3 670  ARG670     -0.0865
    198  CZ        67.1990   90.5350  297.1010 C.cat 670  ARG670      0.5346
    199  NH1       66.7770   89.2900  296.9060 N.pl3 670  ARG670      0.1354
    200  NH2       68.4890   90.7570  297.3210 N.pl3 670  ARG670      0.1354
@<TRIPOS>BOND
     1    22    23    2
     2    22    21    1
     3    20    21    1
     4    21    24    1
     5   104   102    1
     6   103   102    1
     7    24    25    1
     8   102   101    2
     9    27    25   ar
    10    27    29   ar
    11    25    26   ar
    12   101   100    1
    13    19    18    1
    14    16    18   ar
    15    16    14   ar
    16    29    28   ar
    17    18    17   ar
    18    14    13   ar
    19    26    28   ar
    20   100    99    1
    21    85    84    2
    22   116   115    1
    23    17    15   ar
    24    13    15   ar
    25    13    12    1
    26    11    10    2
    27    86    87    1
    28    86    83    1
    29    99    98    1
    30    10     9    1
    31    98    95    1
    32    84    83    1
    33    89    87   ar
    34    89    91   ar
    35    87    88   ar
    36   115   114   ar
    37   115   113   ar
    38    12     9    1
    39   114   112   ar
    40    83    82    1
    41    91    92   ar
    42    94    95    1
    43     9     8    1
    44    88    90   ar
    45    82    78   am
    46    95    96    1
    47    92    90   ar
    48    92    93    1
    49   113   111   ar
    50   112   110   ar
    51     8     3   am
    52    78    77    1
    53    78    79    2
    54    96   105   am
    55    96    97    2
    56    81    80    1
    57   111   110   ar
    58    77    80    1
    59    77    76    1
    60    72    71    2
    61   110   109    1
    62    59    58    1
    63   105   106    1
    64   193   192    2
    65     3     4    2
    66     3     2    1
    67    58    57   ar
    68    58    56   ar
    69    57    55   ar
    70   196   197    1
    71   196   195    1
    72    71    76   am
    73    71    70    1
    74   199   198    1
    75   198   197    2
    76   198   200    1
    77   109   106    1
    78    74    73    1
    79    56    54   ar
    80   106   107    1
    81    55    53   ar
    82     2     5    1
    83     2     1    1
    84   190   191    1
    85   192   191    1
    86   194   195    1
    87   194   191    1
    88    73    70    1
    89    73    75    1
    90    54    53   ar
    91    53    52    1
    92     5     6    1
    93    70    69    1
    94     1     7    1
    95    69    62   am
    96   107   108    2
    97    52    49    1
    98    60    61    1
    99   156   157   ar
   100   156   154   ar
   101     6     7    1
   102    62    63    2
   103    62    61    1
   104   157   155   ar
   105   154   152   ar
   106    61    64    1
   107    49    48    1
   108    49    50    1
   109   146   145    1
   110    48    46   am
   111    65    64    1
   112    65    66    1
   113    50    51    2
   114   155   153   ar
   115   145   144   ar
   116   145   143   ar
   117   144   142   ar
   118   152   153   ar
   119   152   151    1
   120   138   137    2
   121    67    66    1
   122    67    68    1
   123   143   141   ar
   124   142   140   ar
   125   141   140   ar
   126    46    45    1
   127    46    47    2
   128   140   139    1
   129   117   118    1
   130   151   148    1
   131    45    44    1
   132   137   136    1
   133   123   122    2
   134   147   148    1
   135   136   139    1
   136   136   135    1
   137   148   149    1
   138   118   119    1
   139   118   121    1
   140   122   124   am
   141   122   121    1
   142    41    40    2
   143    44    40   am
   144   119   120    2
   145   119   125   am
   146    40    39    1
   147   149   150    2
   148   125   126    1
   149   173   171    1
   150   172   171    1
   151   164   163    2
   152   129   126    1
   153   129   130    1
   154   126   127    1
   155    39    42    1
   156    39    38    1
   157    43    42    1
   158   171   170    1
   159   165   163   am
   160   131   130   ar
   161   131   133   ar
   162   163   162    1
   163   130   132   ar
   164   158   159    1
   165   127   128    2
   166   133   134   ar
   167   170   167    1
   168   161   160    2
   169   189   188    1
   170   162   159    1
   171   160   159    1
   172   160   166   am
   173   132   134   ar
   174    36    35    1
   175   167   166    1
   176   167   168    1
   177    33    32    2
   178   188   187    1
   179    35    34    1
   180    35    37    1
   181    34    31    1
   182   187   186    1
   183    30    31    1
   184   168   169    2
   185   168   174   am
   186    32    31    1
   187   174   175    1
   188   186   185    1
   189   185   182    1
   190   184   183    2
   191   181   182    1
   192   181   176   am
   193   182   183    1
   194   175   176    1
   195   175   178    1
   196   179   178    1
   197   176   177    2
   198   180   178    1
