@<TRIPOS>MOLECULE
tmp/5kjkA01.pdb
 210 201 0 0 0
SMALL
GASTEIGER

@<TRIPOS>ATOM
      1  N         -9.5590  -57.8070  -31.2080 N.3   101  THR101     -0.1218
      2  CA        -9.1350  -58.4380  -29.9450 C.3   101  THR101      0.1862
      3  C         -7.6080  -58.7020  -29.9340 C.2   101  THR101      0.2287
      4  O         -6.9460  -58.4510  -28.9250 O.2   101  THR101     -0.2866
      5  CB        -9.9550  -59.6960  -29.6720 C.3   101  THR101      0.1770
      6  OG1      -11.2960  -59.2930  -29.4230 O.3   101  THR101     -0.2211
      7  CG2       -9.4400  -60.4780  -28.4740 C.3   101  THR101      0.0375
      8  N         -5.8130  -55.3030  -29.7290 N.3   104  LEU104     -0.1245
      9  CA        -5.8330  -54.8340  -28.3460 C.3   104  LEU104      0.1561
     10  C         -4.8710  -55.6450  -27.4590 C.2   104  LEU104      0.2260
     11  O         -4.1690  -55.0530  -26.6280 O.2   104  LEU104     -0.2867
     12  CB        -7.2630  -54.8900  -27.7490 C.3   104  LEU104      0.0270
     13  CG        -7.4600  -54.3280  -26.3240 C.3   104  LEU104      0.0019
     14  CD1       -6.9770  -52.8500  -26.2110 C.3   104  LEU104      0.0001
     15  CD2       -8.9250  -54.3770  -25.9120 C.3   104  LEU104      0.0001
     16  N        -10.9230  -64.9210  -15.7940 N.3   132  SER132     -0.1217
     17  CA       -10.7720  -65.4540  -17.1400 C.3   132  SER132      0.1889
     18  C        -11.8350  -66.4550  -17.5590 C.2   132  SER132      0.2288
     19  O        -12.0680  -66.5960  -18.7590 O.2   132  SER132     -0.2866
     20  CB        -9.4020  -66.1140  -17.2740 C.3   132  SER132      0.2089
     21  OG        -9.3870  -67.3290  -16.5410 O.3   132  SER132     -0.2183
     22  N        -14.3220  -72.6780  -20.5730 N.3   137  LEU137     -0.1245
     23  CA       -14.0980  -72.6330  -22.0150 C.3   137  LEU137      0.1561
     24  C        -14.5170  -73.9340  -22.7090 C.2   137  LEU137      0.2260
     25  O        -14.0630  -75.0190  -22.3220 O.2   137  LEU137     -0.2867
     26  CB       -12.5970  -72.3430  -22.2850 C.3   137  LEU137      0.0270
     27  CG       -12.1180  -70.9240  -22.6240 C.3   137  LEU137      0.0019
     28  CD1      -12.9080  -69.8100  -21.9150 C.3   137  LEU137      0.0001
     29  CD2      -10.6320  -70.7760  -22.3380 C.3   137  LEU137      0.0001
     30  N        -14.8850  -71.8910  -28.0210 N.3   141  LYS141     -0.1245
     31  CA       -14.1470  -70.7590  -27.4700 C.3   141  LYS141      0.1561
     32  C        -12.6370  -71.0020  -27.4910 C.2   141  LYS141      0.2260
     33  O        -11.8930  -70.0890  -27.8490 O.2   141  LYS141     -0.2867
     34  CB       -14.6670  -70.3600  -26.0920 C.3   141  LYS141      0.0271
     35  CG       -15.9060  -69.4680  -26.1930 C.3   141  LYS141      0.0035
     36  CD       -16.5020  -69.2340  -24.8500 C.3   141  LYS141      0.0206
     37  CE       -17.6650  -68.2730  -24.9180 C.3   141  LYS141      0.1093
     38  NZ       -18.9190  -68.9610  -25.3010 N.3   141  LYS141     -0.1314
     39  N        -11.4950  -70.3740  -31.0450 N.3   144  LEU144     -0.1231
     40  CA       -11.4480  -68.9460  -31.3530 C.3   144  LEU144      0.1693
     41  C        -10.1950  -68.3300  -30.7310 C.2   144  LEU144      0.2591
     42  O         -9.5030  -67.5930  -31.4120 O.2   144  LEU144     -0.2718
     43  CB       -12.7320  -68.2020  -30.9040 C.3   144  LEU144      0.0284
     44  CG       -13.9860  -68.4860  -31.7460 C.3   144  LEU144      0.0019
     45  CD1      -15.2790  -68.2410  -30.9400 C.3   144  LEU144      0.0001
     46  CD2      -13.9750  -67.7040  -33.0690 C.3   144  LEU144      0.0001
     47  N         -9.8900  -68.6740  -29.4550 N.am  145  ILE145     -0.1980
     48  CA        -8.6880  -68.2140  -28.7360 C.3   145  ILE145      0.1595
     49  C         -7.4010  -68.7000  -29.4620 C.2   145  ILE145      0.2287
     50  O         -6.4480  -67.9290  -29.5820 O.2   145  ILE145     -0.2864
     51  CB        -8.7230  -68.6240  -27.2370 C.3   145  ILE145      0.0276
     52  CG1       -9.8120  -67.7930  -26.4710 C.3   145  ILE145      0.0022
     53  CG2       -7.3430  -68.4730  -26.5760 C.3   145  ILE145      0.0022
     54  CD1      -10.1020  -68.2790  -25.0700 C.3   145  ILE145      0.0001
     55  N         -8.7960  -64.9690  -22.7850 N.3   173  ALA173     -0.1245
     56  CA       -10.0520  -65.1690  -22.0530 C.3   173  ALA173      0.1562
     57  C        -10.3430  -63.9830  -21.1170 C.2   173  ALA173      0.2260
     58  O        -11.4880  -63.5750  -21.0300 O.2   173  ALA173     -0.2867
     59  CB       -10.0320  -66.4980  -21.2900 C.3   173  ALA173      0.0290
     60  N         -9.3640  -60.8820  -21.5940 N.3   175  VAL175     -0.1231
     61  CA        -9.6970  -59.7890  -22.5250 C.3   175  VAL175      0.1692
     62  C        -11.1620  -59.8890  -22.9780 C.2   175  VAL175      0.2592
     63  O        -11.8550  -58.8840  -22.9830 O.2   175  VAL175     -0.2718
     64  CB        -8.6690  -59.6970  -23.6950 C.3   175  VAL175      0.0266
     65  CG1       -9.1190  -58.6970  -24.7830 C.3   175  VAL175      0.0020
     66  CG2       -7.3000  -59.2920  -23.1550 C.3   175  VAL175      0.0020
     67  N        -11.6430  -61.0880  -23.3310 N.am  176  ASN176     -0.1960
     68  CA       -13.0700  -61.2420  -23.6770 C.3   176  ASN176      0.1819
     69  C        -14.0040  -60.9480  -22.4760 C.2   176  ASN176      0.2621
     70  O        -15.0820  -60.3670  -22.6630 O.2   176  ASN176     -0.2715
     71  CB       -13.3260  -62.6530  -24.2090 C.3   176  ASN176      0.1195
     72  CG       -12.8490  -62.7730  -25.6150 C.2   176  ASN176      0.2630
     73  OD1      -13.4850  -62.2870  -26.5290 O.2   176  ASN176     -0.2716
     74  ND2      -11.6460  -63.2400  -25.8030 N.am  176  ASN176     -0.0877
     75  N        -13.5670  -61.3450  -21.2590 N.am  177  CYS177     -0.1954
     76  CA       -14.3700  -61.1760  -20.0470 C.3   177  CYS177      0.1843
     77  C        -14.3750  -59.7340  -19.5460 C.2   177  CYS177      0.2625
     78  O        -15.3660  -59.3160  -18.9370 O.2   177  CYS177     -0.2714
     79  CB       -13.9070  -62.1540  -18.9610 C.3   177  CYS177      0.0997
     80  SG       -14.9060  -62.1420  -17.4430 S.3   177  CYS177     -0.0797
     81  N        -13.2770  -58.9910  -19.7640 N.am  178  ASN178     -0.1958
     82  CA       -13.1380  -57.6540  -19.2210 C.3   178  ASN178      0.1819
     83  C        -12.9810  -56.4860  -20.2030 C.2   178  ASN178      0.2622
     84  O        -13.0110  -55.3380  -19.7440 O.2   178  ASN178     -0.2715
     85  CB       -11.9670  -57.6600  -18.2520 C.3   178  ASN178      0.1195
     86  CG       -12.1860  -58.6370  -17.1050 C.2   178  ASN178      0.2630
     87  OD1      -12.8130  -58.3100  -16.1060 O.2   178  ASN178     -0.2716
     88  ND2      -11.7260  -59.8820  -17.2510 N.am  178  ASN178     -0.0877
     89  N        -12.8440  -56.7770  -21.4910 N.am  179  GLY179     -0.1940
     90  CA       -12.6610  -55.7570  -22.5190 C.3   179  GLY179      0.2014
     91  C        -13.8920  -54.9230  -22.7960 C.2   179  GLY179      0.2639
     92  O        -15.0230  -55.4050  -22.6810 O.2   179  GLY179     -0.2714
     93  N        -13.6700  -53.6640  -23.1870 N.am  180  PHE180     -0.1959
     94  CA       -14.7750  -52.7640  -23.5040 C.3   180  PHE180      0.1771
     95  C        -14.7120  -52.3450  -24.9480 C.2   180  PHE180      0.2620
     96  O        -13.6310  -52.0670  -25.4630 O.2   180  PHE180     -0.2715
     97  CB       -14.7010  -51.4640  -22.6420 C.3   180  PHE180      0.0574
     98  CG       -15.0080  -51.5970  -21.1780 C.ar  180  PHE180     -0.0200
     99  CD1      -16.2560  -51.2310  -20.6760 C.ar  180  PHE180     -0.0042
    100  CD2      -14.0430  -52.0820  -20.2870 C.ar  180  PHE180     -0.0042
    101  CE1      -16.5290  -51.3280  -19.3060 C.ar  180  PHE180     -0.0003
    102  CE2      -14.3370  -52.2230  -18.9230 C.ar  180  PHE180     -0.0003
    103  CZ       -15.5740  -51.8460  -18.4460 C.ar  180  PHE180     -0.0000
    104  N        -15.8750  -52.2000  -25.5800 N.am  181  THR181     -0.1951
    105  CA       -15.9400  -51.5500  -26.8790 C.3   181  THR181      0.1897
    106  C        -16.1920  -50.0670  -26.5120 C.2   181  THR181      0.2313
    107  O        -16.8510  -49.7760  -25.4970 O.2   181  THR181     -0.2863
    108  CB       -17.0730  -52.0990  -27.7540 C.3   181  THR181      0.1794
    109  OG1      -18.2570  -52.0530  -26.9710 O.3   181  THR181     -0.2208
    110  CG2      -16.8130  -53.5380  -28.2580 C.3   181  THR181      0.0378
    111  N        -11.7490  -50.5240  -29.1160 N.3   192  SER192     -0.1217
    112  CA       -11.7460  -51.4460  -27.9760 C.3   192  SER192      0.1889
    113  C        -10.6660  -51.0330  -27.0180 C.2   192  SER192      0.2288
    114  O         -9.6730  -50.4210  -27.4290 O.2   192  SER192     -0.2866
    115  CB       -11.5430  -52.8880  -28.4380 C.3   192  SER192      0.2089
    116  OG       -12.6810  -53.2950  -29.1760 O.3   192  SER192     -0.2183
    117  N        -12.9770  -50.0970  -14.1410 N.3   198  VAL198     -0.1231
    118  CA       -14.3680  -50.1180  -14.6290 C.3   198  VAL198      0.1692
    119  C        -14.8360  -51.5910  -14.7440 C.2   198  VAL198      0.2591
    120  O        -16.0100  -51.8730  -14.5240 O.2   198  VAL198     -0.2718
    121  CB       -14.5320  -49.3500  -15.9760 C.3   198  VAL198      0.0266
    122  CG1      -16.0100  -49.2560  -16.3700 C.3   198  VAL198      0.0020
    123  CG2      -13.9490  -47.9420  -15.8570 C.3   198  VAL198      0.0020
    124  N        -13.9160  -52.5080  -15.1100 N.am  199  ALA199     -0.1980
    125  CA       -14.2390  -53.9280  -15.2480 C.3   199  ALA199      0.1597
    126  C        -14.5010  -54.5960  -13.8850 C.2   199  ALA199      0.2287
    127  O        -15.0500  -55.6910  -13.8680 O.2   199  ALA199     -0.2864
    128  CB       -13.1470  -54.6570  -16.0270 C.3   199  ALA199      0.0319
    129  N        -16.7890  -53.5900  -11.8830 N.3   201  MET201     -0.1245
    130  CA       -18.2490  -53.5520  -11.7040 C.3   201  MET201      0.1570
    131  C        -18.9660  -54.7540  -12.2870 C.2   201  MET201      0.2261
    132  O        -18.7200  -55.1400  -13.4210 O.2   201  MET201     -0.2867
    133  CB       -18.8580  -52.2720  -12.2560 C.3   201  MET201      0.0387
    134  CG       -18.3650  -51.0190  -11.5450 C.3   201  MET201      0.0595
    135  SD       -19.1700  -49.5430  -12.2200 S.3   201  MET201     -0.1393
    136  CE       -18.3590  -49.3730  -13.8110 C.3   201  MET201      0.0692
    137  N        -17.6720  -42.4780  -22.5450 N.3   213  TYR213     -0.1241
    138  CA       -16.2890  -42.1850  -22.9250 C.3   213  TYR213      0.1605
    139  C        -16.0850  -40.7490  -23.3440 C.2   213  TYR213      0.2264
    140  O        -16.9240  -40.1670  -24.0470 O.2   213  TYR213     -0.2867
    141  CB       -15.8410  -43.1500  -24.0510 C.3   213  TYR213      0.0534
    142  CG       -16.1530  -44.5880  -23.6950 C.ar  213  TYR213     -0.0201
    143  CD1      -15.3670  -45.2870  -22.7810 C.ar  213  TYR213     -0.0009
    144  CD2      -17.2670  -45.2370  -24.2320 C.ar  213  TYR213     -0.0009
    145  CE1      -15.6850  -46.5870  -22.3990 C.ar  213  TYR213      0.0417
    146  CE2      -17.6170  -46.5280  -23.8270 C.ar  213  TYR213      0.0417
    147  CZ       -16.7920  -47.2140  -22.9450 C.ar  213  TYR213      0.1957
    148  OH       -17.0870  -48.4850  -22.5280 O.3   213  TYR213     -0.2866
    149  N        -23.5040  -51.9640  -13.5780 N.3   234  THR234     -0.1203
    150  CA       -23.6040  -51.4300  -14.9200 C.3   234  THR234      0.1994
    151  C        -24.2590  -52.5430  -15.7510 C.2   234  THR234      0.2619
    152  O        -24.2590  -53.6970  -15.3110 O.2   234  THR234     -0.2717
    153  CB       -22.2080  -51.0060  -15.3950 C.3   234  THR234      0.1784
    154  OG1      -22.3550  -50.1780  -16.5380 O.3   234  THR234     -0.2211
    155  CG2      -21.2560  -52.2000  -15.6750 C.3   234  THR234      0.0376
    156  N        -24.7990  -52.2230  -16.9270 N.am  235  SER235     -0.1937
    157  CA       -25.3520  -53.2750  -17.7800 C.3   235  SER235      0.2055
    158  C        -24.2710  -53.6750  -18.7730 C.2   235  SER235      0.2643
    159  O        -23.6400  -52.8050  -19.4000 O.2   235  SER235     -0.2714
    160  CB       -26.5890  -52.7990  -18.5340 C.3   235  SER235      0.2130
    161  OG       -26.9520  -53.8040  -19.4640 O.3   235  SER235     -0.2179
    162  N        -24.0480  -54.9880  -18.9170 N.am  236  TYR236     -0.1973
    163  CA       -23.0490  -55.5190  -19.8420 C.3   236  TYR236      0.1639
    164  C        -23.6460  -55.6760  -21.2470 C.2   236  TYR236      0.2290
    165  O        -22.9160  -55.9550  -22.1830 O.2   236  TYR236     -0.2864
    166  CB       -22.5940  -56.9120  -19.3740 C.3   236  TYR236      0.0560
    167  CG       -21.7150  -57.0010  -18.1410 C.ar  236  TYR236     -0.0198
    168  CD1      -21.4700  -55.8790  -17.3440 C.ar  236  TYR236     -0.0009
    169  CD2      -21.1620  -58.2160  -17.7480 C.ar  236  TYR236     -0.0009
    170  CE1      -20.6890  -55.9700  -16.1870 C.ar  236  TYR236      0.0417
    171  CE2      -20.3570  -58.3130  -16.6190 C.ar  236  TYR236      0.0417
    172  CZ       -20.1470  -57.1940  -15.8240 C.ar  236  TYR236      0.1957
    173  OH       -19.2940  -57.2960  -14.7590 O.3   236  TYR236     -0.2866
    174  N        -23.3860  -66.9370  -22.6500 N.3   252  ASP252     -0.1225
    175  CA       -22.4470  -67.1060  -23.7600 C.3   252  ASP252      0.1805
    176  C        -21.2050  -66.2000  -23.6610 C.2   252  ASP252      0.2598
    177  O        -20.0900  -66.6860  -23.8500 O.2   252  ASP252     -0.2718
    178  CB       -23.1610  -66.9240  -25.1200 C.3   252  ASP252      0.1424
    179  CG       -22.3340  -67.3330  -26.3320 C.2   252  ASP252      0.3668
    180  OD1      -21.7110  -68.4190  -26.2910 O.co2 252  ASP252     -0.2456
    181  OD2      -22.3520  -66.5960  -27.3340 O.co2 252  ASP252     -0.2456
    182  N        -21.3800  -64.9120  -23.3820 N.am  253  SER253     -0.1938
    183  CA       -20.2420  -63.9980  -23.3550 C.3   253  SER253      0.2055
    184  C        -19.5610  -63.8340  -22.0030 C.2   253  SER253      0.2643
    185  O        -18.3820  -63.4900  -22.0020 O.2   253  SER253     -0.2714
    186  CB       -20.6250  -62.6230  -23.9030 C.3   253  SER253      0.2130
    187  OG       -21.1140  -62.6870  -25.2320 O.3   253  SER253     -0.2179
    188  N        -20.2900  -64.0360  -20.8780 N.am  254  TYR254     -0.1959
    189  CA       -19.7840  -63.7860  -19.5280 C.3   254  TYR254      0.1771
    190  C        -19.9420  -64.9280  -18.5490 C.2   254  TYR254      0.2619
    191  O        -19.6020  -64.7640  -17.3840 O.2   254  TYR254     -0.2715
    192  CB       -20.4020  -62.4780  -18.9490 C.3   254  TYR254      0.0574
    193  CG       -20.0130  -61.2780  -19.7800 C.ar  254  TYR254     -0.0198
    194  CD1      -18.7140  -60.7730  -19.7450 C.ar  254  TYR254     -0.0009
    195  CD2      -20.9130  -60.7100  -20.6850 C.ar  254  TYR254     -0.0009
    196  CE1      -18.3300  -59.7060  -20.5610 C.ar  254  TYR254      0.0417
    197  CE2      -20.5430  -59.6390  -21.4980 C.ar  254  TYR254      0.0417
    198  CZ       -19.2420  -59.1590  -21.4490 C.ar  254  TYR254      0.1957
    199  OH       -18.8600  -58.1230  -22.2560 O.3   254  TYR254     -0.2866
    200  N        -20.4100  -66.0920  -19.0110 N.am  255  PHE255     -0.1974
    201  CA       -20.5220  -67.3310  -18.2420 C.3   255  PHE255      0.1639
    202  C        -21.3190  -67.2320  -16.9330 C.2   255  PHE255      0.2290
    203  O        -20.9640  -67.8820  -15.9570 O.2   255  PHE255     -0.2864
    204  CB       -19.1120  -67.9180  -17.9680 C.3   255  PHE255      0.0560
    205  CG       -18.2510  -68.0110  -19.2040 C.ar  255  PHE255     -0.0200
    206  CD1      -18.2690  -69.1500  -19.9990 C.ar  255  PHE255     -0.0042
    207  CD2      -17.3980  -66.9690  -19.5580 C.ar  255  PHE255     -0.0042
    208  CE1      -17.4580  -69.2360  -21.1400 C.ar  255  PHE255     -0.0003
    209  CE2      -16.5950  -67.0550  -20.6960 C.ar  255  PHE255     -0.0003
    210  CZ       -16.6400  -68.1800  -21.4810 C.ar  255  PHE255     -0.0000
@<TRIPOS>BOND
     1    46    44    1
     2    44    45    1
     3    44    43    1
     4    42    41    2
     5    40    39    1
     6    40    43    1
     7    40    41    1
     8     1     2    1
     9    41    47   am
    10     2     3    1
    11     2     5    1
    12     3     4    2
    13     8     9    1
    14     5     6    1
    15     5     7    1
    16    50    49    2
    17    49    48    1
    18    47    48    1
    19   116   115    1
    20   111   112    1
    21    48    51    1
    22   115   112    1
    23     9    12    1
    24     9    10    1
    25   110   108    1
    26    30    31    1
    27   112   113    1
    28    33    32    2
    29   108   109    1
    30   108   105    1
    31    12    13    1
    32    32    31    1
    33    31    34    1
    34    10    11    2
    35   114   113    2
    36   181   179   ar
    37    51    53    1
    38    51    52    1
    39   105   106    1
    40   105   104    1
    41    73    72    2
    42   106   107    2
    43    52    54    1
    44   179   180   ar
    45   179   178    1
    46    13    14    1
    47    13    15    1
    48    35    34    1
    49    35    36    1
    50    74    72   am
    51    72    71    1
    52   104    95   am
    53    96    95    2
    54    38    37    1
    55   187   186    1
    56   178   175    1
    57    95    94    1
    58    37    36    1
    59    65    64    1
    60   144   146   ar
    61   144   142   ar
    62    71    68    1
    63   141   142    1
    64   141   138    1
    65   140   139    2
    66   186   183    1
    67   177   176    2
    68   146   147   ar
    69   175   176    1
    70   175   174    1
    71    64    66    1
    72    64    61    1
    73   142   143   ar
    74    68    67    1
    75    68    69    1
    76   176   182   am
    77    94    93    1
    78    94    97    1
    79   182   183    1
    80   183   184    1
    81   139   138    1
    82    67    62   am
    83    93    91   am
    84    63    62    2
    85    62    61    1
    86   147   148    1
    87   147   145   ar
    88   138   137    1
    89    91    92    2
    90    91    90    1
    91    55    56    1
    92   143   145   ar
    93    24    25    2
    94    24    23    1
    95    70    69    2
    96    97    98    1
    97    27    29    1
    98    27    26    1
    99    27    28    1
   100    61    60    1
   101    90    89    1
   102    69    75   am
   103    26    23    1
   104   199   198    1
   105   165   164    2
   106    56    59    1
   107    56    57    1
   108    23    22    1
   109   184   185    2
   110   184   188   am
   111   197   198   ar
   112   197   195   ar
   113    89    83   am
   114   210   208   ar
   115   210   209   ar
   116   198   196   ar
   117    75    76    1
   118   164   163    1
   119    98    99   ar
   120    98   100   ar
   121   208   206   ar
   122    57    58    2
   123   188   189    1
   124   209   207   ar
   125   195   193   ar
   126    99   101   ar
   127   196   194   ar
   128   100   102   ar
   129    83    84    2
   130    83    82    1
   131    76    77    1
   132    76    79    1
   133   206   205   ar
   134   163   166    1
   135   163   162    1
   136   193   194   ar
   137   193   192    1
   138    81    77   am
   139    81    82    1
   140   207   205   ar
   141    77    78    2
   142   189   192    1
   143   189   190    1
   144   161   160    1
   145   159   158    2
   146   166   167    1
   147   101   103   ar
   148    82    85    1
   149   205   204    1
   150   200   190   am
   151   200   201    1
   152    79    80    1
   153   102   103   ar
   154   162   158   am
   155   158   157    1
   156    19    18    2
   157   190   191    2
   158   160   157    1
   159    85    86    1
   160   201   204    1
   161   201   202    1
   162   167   169   ar
   163   167   168   ar
   164   157   156    1
   165   169   171   ar
   166    18    17    1
   167   168   170   ar
   168    20    17    1
   169    20    21    1
   170    88    86   am
   171    17    16    1
   172    86    87    2
   173   202   203    2
   174   156   151   am
   175   171   172   ar
   176   154   153    1
   177   122   121    1
   178   170   172   ar
   179   128   125    1
   180   121   123    1
   181   121   118    1
   182   172   173    1
   183   151   152    2
   184   151   150    1
   185   155   153    1
   186   153   150    1
   187   125   124    1
   188   125   126    1
   189   124   119   am
   190   150   149    1
   191   119   118    1
   192   119   120    2
   193   118   117    1
   194   126   127    2
   195   136   135    1
   196   132   131    2
   197   131   130    1
   198   133   130    1
   199   133   134    1
   200   135   134    1
   201   129   130    1
