@<TRIPOS>MOLECULE
tmp/5kjmA01.pdb
 227 217 0 0 0
SMALL
GASTEIGER

@<TRIPOS>ATOM
      1  N        -57.1480    9.5780   -7.9350 N.3   100  GLU100     -0.1231
      2  CA       -56.0680    9.4750   -6.9500 C.3   100  GLU100      0.1699
      3  C        -56.6030    9.0400   -5.5740 C.2   100  GLU100      0.2592
      4  O        -55.9540    8.2510   -4.8950 O.2   100  GLU100     -0.2718
      5  CB       -55.3010   10.7950   -6.8490 C.3   100  GLU100      0.0402
      6  CG       -54.0250   10.6710   -6.0260 C.3   100  GLU100      0.1161
      7  CD       -52.8990   11.5470   -6.5180 C.2   100  GLU100      0.3649
      8  OE1      -52.6670   11.5840   -7.7450 O.co2 100  GLU100     -0.2457
      9  OE2      -52.2780   12.2330   -5.6800 O.co2 100  GLU100     -0.2457
     10  N        -57.7970    9.5270   -5.1960 N.am  101  THR101     -0.1953
     11  CA       -58.4910    9.1680   -3.9530 C.3   101  THR101      0.1897
     12  C        -58.7650    7.6570   -3.8920 C.2   101  THR101      0.2313
     13  O        -58.5570    7.0340   -2.8490 O.2   101  THR101     -0.2863
     14  CB       -59.7520   10.0280   -3.7780 C.3   101  THR101      0.1794
     15  OG1      -59.3450   11.3830   -3.6450 O.3   101  THR101     -0.2208
     16  CG2      -60.5750    9.6330   -2.5560 C.3   101  THR101      0.0378
     17  N        -55.4080    5.7260   -3.5660 N.3   104  LEU104     -0.1245
     18  CA       -54.9940    5.7680   -2.1580 C.3   104  LEU104      0.1561
     19  C        -55.8290    4.8280   -1.2540 C.2   104  LEU104      0.2260
     20  O        -55.2620    4.0670   -0.4640 O.2   104  LEU104     -0.2867
     21  CB       -55.0060    7.2170   -1.6190 C.3   104  LEU104      0.0270
     22  CG       -54.4800    7.4350   -0.1690 C.3   104  LEU104      0.0019
     23  CD1      -52.9990    7.0190   -0.0180 C.3   104  LEU104      0.0001
     24  CD2      -54.6520    8.8670    0.2690 C.3   104  LEU104      0.0001
     25  N        -65.0360   11.0540   10.2240 N.3   132  SER132     -0.1217
     26  CA       -65.5700   10.8950    8.8760 C.3   132  SER132      0.1889
     27  C        -66.5490   11.9750    8.4600 C.2   132  SER132      0.2288
     28  O        -66.6660   12.2360    7.2640 O.2   132  SER132     -0.2866
     29  CB       -66.2430    9.5290    8.7390 C.3   132  SER132      0.2089
     30  OG       -67.4520    9.4650    9.4800 O.3   132  SER132     -0.2183
     31  N        -72.8220   14.5230    5.5670 N.3   137  LEU137     -0.1245
     32  CA       -72.8100   14.3060    4.1200 C.3   137  LEU137      0.1561
     33  C        -74.1340   14.6760    3.4440 C.2   137  LEU137      0.2260
     34  O        -75.1930   14.1430    3.8170 O.2   137  LEU137     -0.2867
     35  CB       -72.4920   12.8210    3.8420 C.3   137  LEU137      0.0270
     36  CG       -71.0770   12.3540    3.5000 C.3   137  LEU137      0.0019
     37  CD1      -69.9810   13.2570    4.0490 C.3   137  LEU137      0.0001
     38  CD2      -70.8740   10.9260    3.9670 C.3   137  LEU137      0.0001
     39  N        -72.2510   15.0430   -1.9820 N.3   141  LYS141     -0.1245
     40  CA       -71.0820   14.3630   -1.4250 C.3   141  LYS141      0.1561
     41  C        -71.2420   12.8510   -1.3960 C.2   141  LYS141      0.2260
     42  O        -70.3130   12.1370   -1.7580 O.2   141  LYS141     -0.2867
     43  CB       -70.7160   14.9200   -0.0530 C.3   141  LYS141      0.0271
     44  CG       -69.9640   16.2320   -0.1560 C.3   141  LYS141      0.0035
     45  CD       -69.5480   16.7460    1.1980 C.3   141  LYS141      0.0206
     46  CE       -68.5720   17.8960    1.0830 C.3   141  LYS141      0.1093
     47  NZ       -69.2380   19.1880    0.7470 N.3   141  LYS141     -0.1314
     48  N        -70.6840   11.5930   -4.8400 N.3   144  LEU144     -0.1231
     49  CA       -69.2650   11.5940   -5.1530 C.3   144  LEU144      0.1693
     50  C        -68.6060   10.3630   -4.5480 C.2   144  LEU144      0.2591
     51  O        -67.8690    9.6780   -5.2410 O.2   144  LEU144     -0.2718
     52  CB       -68.5840   12.8750   -4.6420 C.3   144  LEU144      0.0284
     53  CG       -68.7620   14.1130   -5.5020 C.3   144  LEU144      0.0019
     54  CD1      -68.4250   15.3700   -4.6980 C.3   144  LEU144      0.0001
     55  CD2      -67.8920   14.0370   -6.7560 C.3   144  LEU144      0.0001
     56  N        -68.9090   10.0730   -3.2660 N.am  145  ILE145     -0.1980
     57  CA       -68.3840    8.9100   -2.5580 C.3   145  ILE145      0.1595
     58  C        -68.8380    7.6060   -3.2560 C.2   145  ILE145      0.2287
     59  O        -68.0170    6.6970   -3.4300 O.2   145  ILE145     -0.2864
     60  CB       -68.7030    8.9690   -1.0310 C.3   145  ILE145      0.0276
     61  CG1      -67.8480   10.0830   -0.3450 C.3   145  ILE145      0.0022
     62  CG2      -68.4590    7.6030   -0.3520 C.3   145  ILE145      0.0022
     63  CD1      -68.4500   10.6590    0.9190 C.3   145  ILE145      0.0001
     64  N        -66.7530    6.9780   -6.2250 N.3   148  ASP148     -0.1239
     65  CA       -65.4540    6.4610   -5.7710 C.3   148  ASP148      0.1674
     66  C        -65.5370    4.9640   -5.4140 C.2   148  ASP148      0.2266
     67  O        -64.6400    4.1920   -5.7810 O.2   148  ASP148     -0.2867
     68  CB       -64.9270    7.2780   -4.5810 C.3   148  ASP148      0.1410
     69  CG       -64.3280    8.6210   -4.9500 C.2   148  ASP148      0.3668
     70  OD1      -64.2080    8.9070   -6.1610 O.co2 148  ASP148     -0.2456
     71  OD2      -63.9660    9.3830   -4.0250 O.co2 148  ASP148     -0.2456
     72  N        -65.0620    8.9700    3.4000 N.3   173  ALA173     -0.1245
     73  CA       -65.3000   10.2410    4.0940 C.3   173  ALA173      0.1562
     74  C        -64.1320   10.5300    5.0610 C.2   173  ALA173      0.2260
     75  O        -63.7230   11.6790    5.1720 O.2   173  ALA173     -0.2867
     76  CB       -66.6400   10.2120    4.8210 C.3   173  ALA173      0.0290
     77  N        -60.9610    9.5190    4.5160 N.3   175  VAL175     -0.1231
     78  CA       -59.8750    9.8410    3.5900 C.3   175  VAL175      0.1692
     79  C        -60.0340   11.2980    3.1550 C.2   175  VAL175      0.2592
     80  O        -59.0530   12.0280    3.1550 O.2   175  VAL175     -0.2718
     81  CB       -59.8280    8.8420    2.3960 C.3   175  VAL175      0.0266
     82  CG1      -58.8120    9.2790    1.3460 C.3   175  VAL175      0.0020
     83  CG2      -59.5180    7.4250    2.8750 C.3   175  VAL175      0.0020
     84  N        -61.2720   11.7410    2.8510 N.am  176  ASN176     -0.1960
     85  CA       -61.5090   13.1630    2.5230 C.3   176  ASN176      0.1819
     86  C        -61.1290   14.1090    3.6750 C.2   176  ASN176      0.2621
     87  O        -60.5400   15.1680    3.4430 O.2   176  ASN176     -0.2715
     88  CB       -62.9590   13.3990    2.1210 C.3   176  ASN176      0.1195
     89  CG       -63.2010   13.0850    0.6670 C.2   176  ASN176      0.2630
     90  OD1      -62.8450   13.8540   -0.2300 O.2   176  ASN176     -0.2716
     91  ND2      -63.7800   11.9390    0.3980 N.am  176  ASN176     -0.0877
     92  N        -61.4700   13.7130    4.9030 N.am  177  CYS177     -0.1954
     93  CA       -61.2430   14.4780    6.1240 C.3   177  CYS177      0.1843
     94  C        -59.7930   14.4560    6.5570 C.2   177  CYS177      0.2625
     95  O        -59.3410   15.4190    7.1740 O.2   177  CYS177     -0.2714
     96  CB       -62.1630   13.9620    7.2400 C.3   177  CYS177      0.0997
     97  SG       -62.1490   14.9540    8.7680 S.3   177  CYS177     -0.0797
     98  N        -59.0730   13.3480    6.2980 N.am  178  ASN178     -0.1958
     99  CA       -57.7410   13.2030    6.8590 C.3   178  ASN178      0.1819
    100  C        -56.5630   13.0440    5.8830 C.2   178  ASN178      0.2622
    101  O        -55.4120   13.1000    6.3370 O.2   178  ASN178     -0.2715
    102  CB       -57.7530   12.0310    7.8460 C.3   178  ASN178      0.1195
    103  CG       -58.7100   12.2520    8.9960 C.2   178  ASN178      0.2630
    104  OD1      -58.3800   12.9080    9.9640 O.2   178  ASN178     -0.2716
    105  ND2      -59.9350   11.7480    8.8980 N.am  178  ASN178     -0.0877
    106  N        -56.8400   12.8810    4.5860 N.am  179  GLY179     -0.1940
    107  CA       -55.8070   12.6890    3.5690 C.3   179  GLY179      0.2014
    108  C        -54.9550   13.9050    3.2800 C.2   179  GLY179      0.2639
    109  O        -55.4230   15.0370    3.3940 O.2   179  GLY179     -0.2714
    110  N        -53.6990   13.6750    2.8910 N.am  180  PHE180     -0.1959
    111  CA       -52.7590   14.7610    2.5630 C.3   180  PHE180      0.1771
    112  C        -52.2940   14.6550    1.1170 C.2   180  PHE180      0.2620
    113  O        -52.0920   13.5580    0.6080 O.2   180  PHE180     -0.2715
    114  CB       -51.5010   14.6890    3.4480 C.3   180  PHE180      0.0574
    115  CG       -51.6510   15.0520    4.9080 C.ar  180  PHE180     -0.0200
    116  CD1      -51.2640   16.3020    5.3730 C.ar  180  PHE180     -0.0042
    117  CD2      -52.1510   14.1250    5.8290 C.ar  180  PHE180     -0.0042
    118  CE1      -51.3680   16.6220    6.7320 C.ar  180  PHE180     -0.0003
    119  CE2      -52.2670   14.4500    7.1820 C.ar  180  PHE180     -0.0003
    120  CZ       -51.8780   15.6990    7.6230 C.ar  180  PHE180     -0.0000
    121  N        -52.0750   15.7970    0.4680 N.am  181  THR181     -0.1951
    122  CA       -51.4130   15.8030   -0.8330 C.3   181  THR181      0.1897
    123  C        -49.9700   16.1240   -0.5010 C.2   181  THR181      0.2313
    124  O        -49.7040   16.8170    0.4850 O.2   181  THR181     -0.2863
    125  CB       -52.0140   16.8300   -1.8010 C.3   181  THR181      0.1794
    126  OG1      -52.0810   18.0840   -1.1460 O.3   181  THR181     -0.2208
    127  CG2      -53.4000   16.4170   -2.3310 C.3   181  THR181      0.0378
    128  N        -50.4930   11.6740   -3.0730 N.3   192  SER192     -0.1217
    129  CA       -51.4340   11.6870   -1.9580 C.3   192  SER192      0.1889
    130  C        -51.0370   10.6430   -0.9330 C.2   192  SER192      0.2288
    131  O        -50.4600    9.6130   -1.2900 O.2   192  SER192     -0.2866
    132  CB       -52.8430   11.4230   -2.4670 C.3   192  SER192      0.2089
    133  OG       -53.3050   12.5520   -3.1870 O.3   192  SER192     -0.2183
    134  N        -50.1640   13.0130   11.9530 N.3   198  VAL198     -0.1231
    135  CA       -50.1900   14.3850   11.4280 C.3   198  VAL198      0.1692
    136  C        -51.6570   14.8430   11.3010 C.2   198  VAL198      0.2591
    137  O        -51.9540   16.0100   11.5350 O.2   198  VAL198     -0.2718
    138  CB       -49.3690   14.5270   10.1110 C.3   198  VAL198      0.0266
    139  CG1      -49.2990   15.9800    9.6620 C.3   198  VAL198      0.0020
    140  CG2      -47.9510   13.9870   10.2900 C.3   198  VAL198      0.0020
    141  N        -52.5780   13.9080   11.0050 N.am  199  ALA199     -0.1980
    142  CA       -54.0170   14.2020   10.9100 C.3   199  ALA199      0.1597
    143  C        -54.6470   14.5080   12.2760 C.2   199  ALA199      0.2287
    144  O        -55.7500   15.0150   12.3110 O.2   199  ALA199     -0.2864
    145  CB       -54.7630   13.0630   10.2120 C.3   199  ALA199      0.0319
    146  N        -53.6300   16.8770   14.2670 N.3   201  MET201     -0.1245
    147  CA       -53.5910   18.3370   14.4570 C.3   201  MET201      0.1570
    148  C        -54.7830   19.0590   13.8620 C.2   201  MET201      0.2261
    149  O        -55.1680   18.7960   12.7280 O.2   201  MET201     -0.2867
    150  CB       -52.2940   18.9560   13.9490 C.3   201  MET201      0.0387
    151  CG       -51.0530   18.3290   14.5380 C.3   201  MET201      0.0595
    152  SD       -49.5500   19.1470   13.9600 S.3   201  MET201     -0.1393
    153  CE       -49.3860   18.4570   12.3000 C.3   201  MET201      0.0692
    154  N        -42.5060   17.6730    3.4940 N.3   213  TYR213     -0.1241
    155  CA       -42.2350   16.2860    3.1410 C.3   213  TYR213      0.1605
    156  C        -40.8010   16.0660    2.7520 C.2   213  TYR213      0.2264
    157  O        -40.2160   16.8860    2.0390 O.2   213  TYR213     -0.2867
    158  CB       -43.1880   15.8340    2.0130 C.3   213  TYR213      0.0534
    159  CG       -44.6280   16.1180    2.3580 C.ar  213  TYR213     -0.0201
    160  CD1      -45.3340   15.2860    3.2260 C.ar  213  TYR213     -0.0009
    161  CD2      -45.2600   17.2720    1.8990 C.ar  213  TYR213     -0.0009
    162  CE1      -46.6450   15.5790    3.6010 C.ar  213  TYR213      0.0417
    163  CE2      -46.5720   17.5730    2.2660 C.ar  213  TYR213      0.0417
    164  CZ       -47.2650   16.7150    3.1050 C.ar  213  TYR213      0.1957
    165  OH       -48.5600   17.0040    3.4620 O.3   213  TYR213     -0.2866
    166  N        -52.0460   23.5550   12.6260 N.3   234  THR234     -0.1203
    167  CA       -51.5090   23.6520   11.2760 C.3   234  THR234      0.1994
    168  C        -52.6320   24.3010   10.4260 C.2   234  THR234      0.2619
    169  O        -53.7780   24.3430   10.8740 O.2   234  THR234     -0.2717
    170  CB       -51.0310   22.2630   10.7880 C.3   234  THR234      0.1784
    171  OG1      -50.1580   22.4300    9.6830 O.3   234  THR234     -0.2211
    172  CG2      -52.1780   21.3180   10.4030 C.3   234  THR234      0.0376
    173  N        -52.3150   24.7990    9.2290 N.am  235  SER235     -0.1937
    174  CA       -53.3460   25.3480    8.3470 C.3   235  SER235      0.2055
    175  C        -53.7470   24.2620    7.3460 C.2   235  SER235      0.2643
    176  O        -52.8790   23.6030    6.7780 O.2   235  SER235     -0.2714
    177  CB       -52.8500   26.5960    7.6270 C.3   235  SER235      0.2130
    178  OG       -53.7770   26.9920    6.6330 O.3   235  SER235     -0.2179
    179  N        -55.0610   24.0650    7.1510 N.am  236  TYR236     -0.1973
    180  CA       -55.6140   23.0690    6.2430 C.3   236  TYR236      0.1639
    181  C        -55.7710   23.6520    4.8520 C.2   236  TYR236      0.2290
    182  O        -56.0280   22.9210    3.9030 O.2   236  TYR236     -0.2864
    183  CB       -57.0220   22.6380    6.7210 C.3   236  TYR236      0.0560
    184  CG       -57.1040   21.7720    7.9610 C.ar  236  TYR236     -0.0198
    185  CD1      -55.9710   21.5050    8.7350 C.ar  236  TYR236     -0.0009
    186  CD2      -58.3230   21.2520    8.3900 C.ar  236  TYR236     -0.0009
    187  CE1      -56.0520   20.7310    9.8890 C.ar  236  TYR236      0.0417
    188  CE2      -58.4050   20.4390    9.5140 C.ar  236  TYR236      0.0417
    189  CZ       -57.2700   20.1860   10.2640 C.ar  236  TYR236      0.1957
    190  OH       -57.3620   19.3730   11.3600 O.3   236  TYR236     -0.2866
    191  N        -67.0170   23.4840    3.6040 N.3   252  ASP252     -0.1225
    192  CA       -67.2500   22.5720    2.4980 C.3   252  ASP252      0.1805
    193  C        -66.3850   21.3140    2.5490 C.2   252  ASP252      0.2598
    194  O        -66.9230   20.2160    2.4180 O.2   252  ASP252     -0.2718
    195  CB       -67.1150   23.2790    1.1300 C.3   252  ASP252      0.1424
    196  CG       -67.5980   22.4170   -0.0260 C.2   252  ASP252      0.3668
    197  OD1      -68.7190   21.8820    0.0620 O.co2 252  ASP252     -0.2456
    198  OD2      -66.8340   22.2390   -0.9900 O.co2 252  ASP252     -0.2456
    199  N        -65.0740   21.4590    2.7310 N.am  253  SER253     -0.1938
    200  CA       -64.1940   20.2830    2.7330 C.3   253  SER253      0.2055
    201  C        -64.0130   19.6240    4.1050 C.2   253  SER253      0.2643
    202  O        -63.7280   18.4210    4.1520 O.2   253  SER253     -0.2714
    203  CB       -62.8200   20.6270    2.1540 C.3   253  SER253      0.2130
    204  OG       -62.8920   21.1370    0.8340 O.3   253  SER253     -0.2179
    205  N        -64.1390   20.4080    5.2060 N.am  254  TYR254     -0.1959
    206  CA       -63.8450   19.9100    6.5520 C.3   254  TYR254      0.1771
    207  C        -64.9720   20.0520    7.5640 C.2   254  TYR254      0.2619
    208  O        -64.7910   19.6710    8.7110 O.2   254  TYR254     -0.2715
    209  CB       -62.5400   20.5310    7.0870 C.3   254  TYR254      0.0574
    210  CG       -61.3510   20.1300    6.2450 C.ar  254  TYR254     -0.0198
    211  CD1      -60.8480   18.8330    6.2870 C.ar  254  TYR254     -0.0009
    212  CD2      -60.7760   21.0260    5.3430 C.ar  254  TYR254     -0.0009
    213  CE1      -59.8090   18.4350    5.4520 C.ar  254  TYR254      0.0417
    214  CE2      -59.7500   20.6310    4.4860 C.ar  254  TYR254      0.0417
    215  CZ       -59.2600   19.3390    4.5540 C.ar  254  TYR254      0.1957
    216  OH       -58.2280   18.9530    3.7290 O.3   254  TYR254     -0.2866
    217  N        -66.1420   20.5270    7.1380 N.am  255  PHE255     -0.1974
    218  CA       -67.3600   20.5840    7.9490 C.3   255  PHE255      0.1639
    219  C        -67.2550   21.3780    9.2550 C.2   255  PHE255      0.2290
    220  O        -67.9290   21.0520   10.2320 O.2   255  PHE255     -0.2864
    221  CB       -67.8730   19.1510    8.2230 C.3   255  PHE255      0.0560
    222  CG       -68.0670   18.3310    6.9710 C.ar  255  PHE255     -0.0200
    223  CD1      -69.2610   18.3830    6.2660 C.ar  255  PHE255     -0.0042
    224  CD2      -67.0560   17.5070    6.4970 C.ar  255  PHE255     -0.0042
    225  CE1      -69.4410   17.6230    5.1110 C.ar  255  PHE255     -0.0003
    226  CE2      -67.2260   16.7640    5.3280 C.ar  255  PHE255     -0.0003
    227  CZ       -68.4180   16.8240    4.6450 C.ar  255  PHE255     -0.0000
@<TRIPOS>BOND
     1     1     2    1
     2     8     7   ar
     3     2     5    1
     4     2     3    1
     5     5     6    1
     6    55    53    1
     7     7     6    1
     8     7     9   ar
     9    64    65    1
    10    70    69   ar
    11    67    66    2
    12    65    66    1
    13    65    68    1
    14     3    10   am
    15     3     4    2
    16    53    54    1
    17    53    52    1
    18    51    50    2
    19    10    11    1
    20    49    48    1
    21    49    52    1
    22    49    50    1
    23    69    68    1
    24    69    71   ar
    25    50    56   am
    26    11    12    1
    27    11    14    1
    28    12    13    2
    29    14    15    1
    30    14    16    1
    31    17    18    1
    32    59    58    2
    33    56    57    1
    34    58    57    1
    35   133   132    1
    36   128   129    1
    37    57    60    1
    38   132   129    1
    39   127   125    1
    40    18    21    1
    41    18    19    1
    42    39    40    1
    43   129   130    1
    44   125   126    1
    45   125   122    1
    46    42    41    2
    47    21    22    1
    48    40    41    1
    49    40    43    1
    50   131   130    2
    51    19    20    2
    52    60    62    1
    53    60    61    1
    54   198   196   ar
    55   122   123    1
    56   122   121    1
    57   123   124    2
    58    61    63    1
    59    90    89    2
    60    22    23    1
    61    22    24    1
    62    44    43    1
    63    44    45    1
    64   196   197   ar
    65   196   195    1
    66    91    89   am
    67   121   112   am
    68   113   112    2
    69    89    88    1
    70    47    46    1
    71   204   203    1
    72    46    45    1
    73   112   111    1
    74   195   192    1
    75    82    81    1
    76   161   163   ar
    77   161   159   ar
    78   158   159    1
    79   158   155    1
    80   157   156    2
    81    88    85    1
    82   203   200    1
    83   163   164   ar
    84   159   160   ar
    85    81    83    1
    86    81    78    1
    87   194   193    2
    88   192   193    1
    89   192   191    1
    90    85    84    1
    91    85    86    1
    92   193   199   am
    93   111   110    1
    94   111   114    1
    95   199   200    1
    96   200   201    1
    97   156   155    1
    98    84    79   am
    99   110   108   am
   100   164   165    1
   101   164   162   ar
   102   155   154    1
   103    79    80    2
   104    79    78    1
   105   160   162   ar
   106   108   109    2
   107   108   107    1
   108    72    73    1
   109    87    86    2
   110    33    34    2
   111    33    32    1
   112   114   115    1
   113    36    35    1
   114    36    38    1
   115    36    37    1
   116   107   106    1
   117    78    77    1
   118    86    92   am
   119   216   215    1
   120    35    32    1
   121   182   181    2
   122    73    76    1
   123    73    74    1
   124   201   202    2
   125   201   205   am
   126    32    31    1
   127   214   215   ar
   128   214   212   ar
   129   215   213   ar
   130   106   100   am
   131   227   225   ar
   132   227   226   ar
   133   181   180    1
   134    92    93    1
   135   115   116   ar
   136   115   117   ar
   137    74    75    2
   138   225   223   ar
   139   205   206    1
   140   226   224   ar
   141   212   210   ar
   142   116   118   ar
   143   213   211   ar
   144   117   119   ar
   145   100   101    2
   146   100    99    1
   147    93    94    1
   148    93    96    1
   149   180   183    1
   150   180   179    1
   151   210   211   ar
   152   210   209    1
   153   223   222   ar
   154    98    94   am
   155    98    99    1
   156   224   222   ar
   157   206   209    1
   158   206   207    1
   159    94    95    2
   160   178   177    1
   161   183   184    1
   162   118   120   ar
   163   176   175    2
   164    99   102    1
   165   222   221    1
   166   217   207   am
   167   217   218    1
   168   179   175   am
   169   119   120   ar
   170    96    97    1
   171    28    27    2
   172   175   174    1
   173   207   208    2
   174   177   174    1
   175   102   103    1
   176   218   221    1
   177   218   219    1
   178   184   186   ar
   179   184   185   ar
   180   174   173    1
   181   186   188   ar
   182    27    26    1
   183   185   187   ar
   184    29    26    1
   185    29    30    1
   186    26    25    1
   187   105   103   am
   188   103   104    2
   189   173   168   am
   190   219   220    2
   191   188   189   ar
   192   139   138    1
   193   171   170    1
   194   187   189   ar
   195   138   140    1
   196   138   135    1
   197   145   142    1
   198   189   190    1
   199   172   170    1
   200   168   169    2
   201   168   167    1
   202   170   167    1
   203   142   141    1
   204   142   143    1
   205   141   136   am
   206   167   166    1
   207   136   135    1
   208   136   137    2
   209   135   134    1
   210   143   144    2
   211   153   152    1
   212   149   148    2
   213   148   147    1
   214   150   147    1
   215   150   151    1
   216   152   151    1
   217   146   147    1
