@<TRIPOS>MOLECULE
tmp/5kjnA01.pdb
 196 187 0 0 0
SMALL
GASTEIGER

@<TRIPOS>ATOM
      1  N        -56.2380   -7.6430  -20.9330 N.3   101  THR101     -0.1218
      2  CA       -56.9090   -7.3760  -22.1960 C.3   101  THR101      0.1862
      3  C        -57.3270   -5.9030  -22.2230 C.2   101  THR101      0.2287
      4  O        -57.0500   -5.2150  -23.2200 O.2   101  THR101     -0.2866
      5  CB       -58.0780   -8.3310  -22.3690 C.3   101  THR101      0.1770
      6  OG1      -57.6320   -9.6360  -22.0280 O.3   101  THR101     -0.2211
      7  CG2      -58.6570   -8.3120  -23.7800 C.3   101  THR101      0.0375
      8  N        -54.3560   -3.7880  -22.6170 N.3   104  LEU104     -0.1245
      9  CA       -53.8890   -3.8210  -24.0040 C.3   104  LEU104      0.1561
     10  C        -54.7630   -2.9630  -24.9250 C.2   104  LEU104      0.2260
     11  O        -54.2260   -2.1370  -25.6580 O.2   104  LEU104     -0.2867
     12  CB       -53.7510   -5.2630  -24.5290 C.3   104  LEU104      0.0270
     13  CG       -53.1600   -5.4180  -25.9230 C.3   104  LEU104      0.0019
     14  CD1      -51.6870   -4.9360  -25.9770 C.3   104  LEU104      0.0001
     15  CD2      -53.3100   -6.8420  -26.3900 C.3   104  LEU104      0.0001
     16  N        -63.4230  -10.0130  -36.3150 N.3   132  SER132     -0.1217
     17  CA       -63.9730   -9.8800  -34.9690 C.3   132  SER132      0.1889
     18  C        -64.8620  -11.0300  -34.5230 C.2   132  SER132      0.2288
     19  O        -64.9700  -11.2870  -33.3130 O.2   132  SER132     -0.2866
     20  CB       -64.7150   -8.5520  -34.8300 C.3   132  SER132      0.2089
     21  OG       -65.9070   -8.5510  -35.5980 O.3   132  SER132     -0.2183
     22  N        -70.5990  -14.3330  -31.5670 N.3   137  LEU137     -0.1245
     23  CA       -70.4820  -14.2970  -30.1070 C.3   137  LEU137      0.1561
     24  C        -71.7060  -14.8190  -29.3610 C.2   137  LEU137      0.2260
     25  O        -72.8350  -14.4910  -29.7350 O.2   137  LEU137     -0.2867
     26  CB       -70.1820  -12.8590  -29.6450 C.3   137  LEU137      0.0270
     27  CG       -68.7320  -12.3830  -29.4180 C.3   137  LEU137      0.0019
     28  CD1      -67.6820  -13.3690  -29.8960 C.3   137  LEU137      0.0001
     29  CD2      -68.5080  -11.0510  -30.0700 C.3   137  LEU137      0.0001
     30  N        -69.6980  -14.5250  -23.7970 N.3   141  LYS141     -0.1245
     31  CA       -68.6980  -13.6830  -24.4660 C.3   141  LYS141      0.1561
     32  C        -69.1010  -12.2080  -24.5000 C.2   141  LYS141      0.2260
     33  O        -68.2970  -11.3580  -24.0880 O.2   141  LYS141     -0.2867
     34  CB       -68.3840  -14.1920  -25.8860 C.3   141  LYS141      0.0271
     35  CG       -67.4100  -15.3520  -25.8910 C.3   141  LYS141      0.0035
     36  CD       -67.1790  -15.9150  -27.2720 C.3   141  LYS141      0.0206
     37  CE       -66.0630  -16.9490  -27.2950 C.3   141  LYS141      0.1093
     38  NZ       -66.3040  -18.1210  -26.4010 N.3   141  LYS141     -0.1314
     39  N        -68.7490  -10.6400  -21.1890 N.3   144  LEU144     -0.1231
     40  CA       -67.3450  -10.4620  -20.8200 C.3   144  LEU144      0.1693
     41  C        -66.7960   -9.1950  -21.4550 C.2   144  LEU144      0.2591
     42  O        -66.0020   -8.5020  -20.8290 O.2   144  LEU144     -0.2718
     43  CB       -66.4810  -11.6790  -21.2070 C.3   144  LEU144      0.0284
     44  CG       -66.7570  -13.0090  -20.4500 C.3   144  LEU144      0.0019
     45  CD1      -66.3730  -14.2150  -21.2920 C.3   144  LEU144      0.0001
     46  CD2      -66.0430  -13.0700  -19.1070 C.3   144  LEU144      0.0001
     47  N        -67.2110   -8.8950  -22.6870 N.am  145  ILE145     -0.1980
     48  CA       -66.7990   -7.7010  -23.4140 C.3   145  ILE145      0.1595
     49  C        -67.4260   -6.4670  -22.7360 C.2   145  ILE145      0.2287
     50  O        -66.7710   -5.4260  -22.6220 O.2   145  ILE145     -0.2864
     51  CB       -67.1500   -7.8220  -24.9360 C.3   145  ILE145      0.0276
     52  CG1      -66.2720   -8.9010  -25.6360 C.3   145  ILE145      0.0022
     53  CG2      -67.0800   -6.4610  -25.6490 C.3   145  ILE145      0.0022
     54  CD1      -66.4830   -9.0750  -27.1540 C.3   145  ILE145      0.0001
     55  N        -63.6100   -7.7300  -29.4450 N.3   173  ALA173     -0.1245
     56  CA       -63.7910   -8.9710  -30.2070 C.3   173  ALA173      0.1562
     57  C        -62.5750   -9.2280  -31.0980 C.2   173  ALA173      0.2260
     58  O        -62.2070  -10.3830  -31.3070 O.2   173  ALA173     -0.2867
     59  CB       -65.0670   -8.9040  -31.0430 C.3   173  ALA173      0.0290
     60  N        -59.3670   -7.9450  -30.4060 N.3   175  VAL175     -0.1231
     61  CA       -58.2640   -8.2300  -29.4720 C.3   175  VAL175      0.1692
     62  C        -58.3060   -9.6990  -29.0280 C.2   175  VAL175      0.2592
     63  O        -57.2860  -10.3770  -29.0690 O.2   175  VAL175     -0.2718
     64  CB       -58.2510   -7.2350  -28.2720 C.3   175  VAL175      0.0266
     65  CG1      -57.1420   -7.5610  -27.2760 C.3   175  VAL175      0.0020
     66  CG2      -58.1290   -5.7980  -28.7540 C.3   175  VAL175      0.0020
     67  N        -59.5110  -10.2030  -28.6820 N.am  176  ASN176     -0.1960
     68  CA       -59.7530  -11.5830  -28.2280 C.3   176  ASN176      0.1819
     69  C        -59.5920  -12.6590  -29.3110 C.2   176  ASN176      0.2621
     70  O        -59.5150  -13.8420  -28.9970 O.2   176  ASN176     -0.2715
     71  CB       -61.1260  -11.6630  -27.6010 C.3   176  ASN176      0.1195
     72  CG       -61.2090  -11.0570  -26.2320 C.2   176  ASN176      0.2630
     73  OD1      -60.2190  -10.8670  -25.5310 O.2   176  ASN176     -0.2716
     74  ND2      -62.4060  -10.7900  -25.7870 N.am  176  ASN176     -0.0877
     75  N        -59.5510  -12.2430  -30.5770 N.am  177  CYS177     -0.1954
     76  CA       -59.4610  -13.0900  -31.7390 C.3   177  CYS177      0.1843
     77  C        -58.0790  -12.9710  -32.4050 C.2   177  CYS177      0.2625
     78  O        -57.6510  -13.9070  -33.1000 O.2   177  CYS177     -0.2714
     79  CB       -60.5720  -12.6860  -32.6940 C.3   177  CYS177      0.0997
     80  SG       -60.8440  -13.8370  -34.0460 S.3   177  CYS177     -0.0797
     81  N        -57.3690  -11.8380  -32.1920 N.am  178  ASN178     -0.1958
     82  CA       -56.0830  -11.5990  -32.8480 C.3   178  ASN178      0.1819
     83  C        -54.8740  -11.2950  -31.9190 C.2   178  ASN178      0.2622
     84  O        -53.7640  -11.0480  -32.4200 O.2   178  ASN178     -0.2715
     85  CB       -56.2490  -10.4810  -33.8830 C.3   178  ASN178      0.1195
     86  CG       -57.2230  -10.7980  -34.9880 C.2   178  ASN178      0.2630
     87  OD1      -56.8510  -11.2880  -36.0540 O.2   178  ASN178     -0.2716
     88  ND2      -58.4860  -10.4920  -34.7740 N.am  178  ASN178     -0.0877
     89  N        -55.1030  -11.3280  -30.6010 N.am  179  GLY179     -0.1940
     90  CA       -54.1130  -11.0270  -29.5720 C.3   179  GLY179      0.2014
     91  C        -53.1210  -12.1320  -29.3010 C.2   179  GLY179      0.2639
     92  O        -53.4400  -13.3220  -29.3480 O.2   179  GLY179     -0.2714
     93  N        -51.9150  -11.7260  -28.9830 N.am  180  PHE180     -0.1959
     94  CA       -50.7890  -12.5890  -28.7120 C.3   180  PHE180      0.1771
     95  C        -50.3210  -12.4750  -27.2480 C.2   180  PHE180      0.2620
     96  O        -50.2500  -11.3710  -26.6950 O.2   180  PHE180     -0.2715
     97  CB       -49.6290  -12.1570  -29.6290 C.3   180  PHE180      0.0574
     98  CG       -49.7690  -12.5650  -31.0810 C.ar  180  PHE180     -0.0200
     99  CD1      -49.1850  -13.7420  -31.5520 C.ar  180  PHE180     -0.0042
    100  CD2      -50.4440  -11.7510  -31.9890 C.ar  180  PHE180     -0.0042
    101  CE1      -49.3180  -14.1210  -32.8910 C.ar  180  PHE180     -0.0003
    102  CE2      -50.5790  -12.1340  -33.3250 C.ar  180  PHE180     -0.0003
    103  CZ       -50.0160  -13.3180  -33.7670 C.ar  180  PHE180     -0.0000
    104  N        -49.9690  -13.6110  -26.6350 N.am  181  THR181     -0.1951
    105  CA       -49.3520  -13.6020  -25.3270 C.3   181  THR181      0.1897
    106  C        -47.8910  -13.7750  -25.6410 C.2   181  THR181      0.2313
    107  O        -47.5670  -14.4830  -26.6060 O.2   181  THR181     -0.2863
    108  CB       -49.9340  -14.6390  -24.3380 C.3   181  THR181      0.1794
    109  OG1      -50.0250  -15.8940  -24.9710 O.3   181  THR181     -0.2208
    110  CG2      -51.3200  -14.2540  -23.8100 C.3   181  THR181      0.0378
    111  N        -48.7920   -9.2960  -23.0890 N.3   192  SER192     -0.1217
    112  CA       -49.7180   -9.4170  -24.2070 C.3   192  SER192      0.1889
    113  C        -49.4110   -8.3190  -25.2220 C.2   192  SER192      0.2288
    114  O        -48.9270   -7.2490  -24.8270 O.2   192  SER192     -0.2866
    115  CB       -51.1570   -9.3130  -23.7150 C.3   192  SER192      0.2089
    116  OG       -51.4510  -10.5120  -23.0270 O.3   192  SER192     -0.2183
    117  N        -50.7080  -11.9110  -37.2180 N.3   199  ALA199     -0.1245
    118  CA       -52.1030  -12.3510  -37.1070 C.3   199  ALA199      0.1562
    119  C        -52.7590  -12.6170  -38.4730 C.2   199  ALA199      0.2260
    120  O        -53.8840  -13.0970  -38.5030 O.2   199  ALA199     -0.2867
    121  CB       -52.9180  -11.3620  -36.3100 C.3   199  ALA199      0.0290
    122  N        -51.5870  -14.8800  -40.5290 N.3   201  MET201     -0.1245
    123  CA       -51.3770  -16.3290  -40.7080 C.3   201  MET201      0.1570
    124  C        -52.4900  -17.1180  -40.0690 C.2   201  MET201      0.2261
    125  O        -52.9250  -16.8180  -38.9390 O.2   201  MET201     -0.2867
    126  CB       -50.0310  -16.8120  -40.1370 C.3   201  MET201      0.0387
    127  CG       -48.8510  -16.3480  -40.9220 C.3   201  MET201      0.0595
    128  SD       -47.2600  -16.7930  -40.2140 S.3   201  MET201     -0.1393
    129  CE       -47.2580  -15.8370  -38.7570 C.3   201  MET201      0.0692
    130  N        -40.3460  -14.5580  -29.7720 N.3   213  TYR213     -0.1241
    131  CA       -40.2390  -13.1510  -29.4270 C.3   213  TYR213      0.1605
    132  C        -38.7910  -12.8090  -29.0250 C.2   213  TYR213      0.2264
    133  O        -38.1050  -13.6290  -28.4090 O.2   213  TYR213     -0.2867
    134  CB       -41.2690  -12.8060  -28.3350 C.3   213  TYR213      0.0534
    135  CG       -42.6790  -13.2660  -28.6680 C.ar  213  TYR213     -0.0201
    136  CD1      -43.4960  -12.5280  -29.5320 C.ar  213  TYR213     -0.0009
    137  CD2      -43.1780  -14.4630  -28.1680 C.ar  213  TYR213     -0.0009
    138  CE1      -44.7770  -12.9740  -29.8790 C.ar  213  TYR213      0.0417
    139  CE2      -44.4720  -14.8970  -28.4760 C.ar  213  TYR213      0.0417
    140  CZ       -45.2620  -14.1590  -29.3440 C.ar  213  TYR213      0.1957
    141  OH       -46.5130  -14.6330  -29.6820 O.3   213  TYR213     -0.2866
    142  N        -49.3560  -22.6590  -35.5140 N.3   235  SER235     -0.1202
    143  CA       -50.3530  -23.1990  -34.5730 C.3   235  SER235      0.2020
    144  C        -50.8610  -22.1110  -33.5700 C.2   235  SER235      0.2618
    145  O        -50.0810  -21.2760  -33.1150 O.2   235  SER235     -0.2717
    146  CB       -49.8060  -24.3990  -33.8230 C.3   235  SER235      0.2103
    147  OG       -50.9060  -25.0600  -33.2260 O.3   235  SER235     -0.2182
    148  N        -52.1630  -22.1320  -33.2400 N.am  236  TYR236     -0.1975
    149  CA       -52.8950  -21.2060  -32.3460 C.3   236  TYR236      0.1639
    150  C        -53.0480  -21.7610  -30.9370 C.2   236  TYR236      0.2290
    151  O        -53.3320  -21.0070  -30.0180 O.2   236  TYR236     -0.2864
    152  CB       -54.3370  -21.0320  -32.8890 C.3   236  TYR236      0.0560
    153  CG       -54.4920  -20.1690  -34.1300 C.ar  236  TYR236     -0.0198
    154  CD1      -53.3810  -19.6660  -34.8050 C.ar  236  TYR236     -0.0009
    155  CD2      -55.7480  -19.8210  -34.6060 C.ar  236  TYR236     -0.0009
    156  CE1      -53.5200  -18.8610  -35.9290 C.ar  236  TYR236      0.0417
    157  CE2      -55.8960  -18.9880  -35.7100 C.ar  236  TYR236      0.0417
    158  CZ       -54.7780  -18.5240  -36.3780 C.ar  236  TYR236      0.1957
    159  OH       -54.9080  -17.7390  -37.4960 O.3   236  TYR236     -0.2866
    160  N        -64.0170  -22.6070  -29.5970 N.3   252  ASP252     -0.1225
    161  CA       -64.3400  -21.7370  -28.4610 C.3   252  ASP252      0.1805
    162  C        -63.5880  -20.4270  -28.5370 C.2   252  ASP252      0.2598
    163  O        -64.1610  -19.3810  -28.2510 O.2   252  ASP252     -0.2718
    164  CB       -64.0540  -22.4190  -27.1130 C.3   252  ASP252      0.1424
    165  CG       -64.6540  -21.6690  -25.9320 C.2   252  ASP252      0.3668
    166  OD1      -65.9100  -21.6210  -25.8290 O.co2 252  ASP252     -0.2456
    167  OD2      -63.8710  -21.1140  -25.1150 O.co2 252  ASP252     -0.2456
    168  N        -62.3160  -20.4770  -28.8980 N.am  253  SER253     -0.1938
    169  CA       -61.4530  -19.3120  -28.9470 C.3   253  SER253      0.2055
    170  C        -61.4560  -18.5760  -30.2940 C.2   253  SER253      0.2643
    171  O        -61.3510  -17.3450  -30.2880 O.2   253  SER253     -0.2714
    172  CB       -60.0140  -19.6880  -28.5590 C.3   253  SER253      0.2130
    173  OG       -59.8690  -20.2420  -27.2580 O.3   253  SER253     -0.2179
    174  N        -61.5000  -19.3170  -31.4390 N.am  254  TYR254     -0.1959
    175  CA       -61.3410  -18.7370  -32.7710 C.3   254  TYR254      0.1771
    176  C        -62.4550  -19.0670  -33.7710 C.2   254  TYR254      0.2619
    177  O        -62.3350  -18.6850  -34.9340 O.2   254  TYR254     -0.2715
    178  CB       -59.9590  -19.0800  -33.3510 C.3   254  TYR254      0.0574
    179  CG       -58.8090  -18.7180  -32.4300 C.ar  254  TYR254     -0.0198
    180  CD1      -58.4040  -17.3960  -32.2700 C.ar  254  TYR254     -0.0009
    181  CD2      -58.1420  -19.6960  -31.7000 C.ar  254  TYR254     -0.0009
    182  CE1      -57.3730  -17.0550  -31.3930 C.ar  254  TYR254      0.0417
    183  CE2      -57.1070  -19.3680  -30.8250 C.ar  254  TYR254      0.0417
    184  CZ       -56.7170  -18.0450  -30.6780 C.ar  254  TYR254      0.1957
    185  OH       -55.6910  -17.7380  -29.8010 O.3   254  TYR254     -0.2866
    186  N        -63.5750  -19.6680  -33.3090 N.am  255  PHE255     -0.1974
    187  CA       -64.8100  -19.8760  -34.0810 C.3   255  PHE255      0.1639
    188  C        -64.6440  -20.5710  -35.4120 C.2   255  PHE255      0.2290
    189  O        -65.2980  -20.1890  -36.3870 O.2   255  PHE255     -0.2864
    190  CB       -65.5620  -18.5340  -34.2950 C.3   255  PHE255      0.0560
    191  CG       -65.6610  -17.6780  -33.0580 C.ar  255  PHE255     -0.0200
    192  CD1      -66.6890  -17.8610  -32.1470 C.ar  255  PHE255     -0.0042
    193  CD2      -64.6870  -16.7320  -32.7690 C.ar  255  PHE255     -0.0042
    194  CE1      -66.7640  -17.0830  -30.9830 C.ar  255  PHE255     -0.0003
    195  CE2      -64.7430  -15.9850  -31.5970 C.ar  255  PHE255     -0.0003
    196  CZ       -65.7870  -16.1580  -30.7160 C.ar  255  PHE255     -0.0000
@<TRIPOS>BOND
     1   127   128    1
     2   127   126    1
     3   123   122    1
     4   123   126    1
     5   123   124    1
     6   128   129    1
     7   124   125    2
     8   120   119    2
     9   119   118    1
    10   159   158    1
    11   117   118    1
    12   118   121    1
    13   189   188    2
    14   158   156   ar
    15   158   157   ar
    16    16    17    1
    17    87    86    2
    18   156   154   ar
    19   157   155   ar
    20    21    20    1
    21   142   143    1
    22   188   187    1
    23    86    88   am
    24    86    85    1
    25    17    20    1
    26    17    18    1
    27   177   176    2
    28   154   153   ar
    29   155   153   ar
    30   143   146    1
    31   143   144    1
    32    18    19    2
    33   190   187    1
    34   190   191    1
    35   153   152    1
    36   187   186    1
    37    80    79    1
    38    85    82    1
    39   146   147    1
    40   176   186   am
    41   176   175    1
    42   103   102   ar
    43   103   101   ar
    44   144   148   am
    45   144   145    2
    46   178   175    1
    47   178   179    1
    48   102   100   ar
    49   148   149    1
    50    78    77    2
    51   191   193   ar
    52   191   192   ar
    53   101    99   ar
    54   152   149    1
    55    82    81    1
    56    82    83    1
    57   175   174    1
    58   193   195   ar
    59    79    76    1
    60   179   180   ar
    61   179   181   ar
    62    84    83    2
    63    77    81   am
    64    77    76    1
    65   149   150    1
    66   180   182   ar
    67   192   194   ar
    68   100    98   ar
    69    83    89   am
    70    76    75    1
    71   181   183   ar
    72   195   196   ar
    73    22    23    1
    74    99    98   ar
    75   174   170   am
    76   182   184   ar
    77    58    57    2
    78    57    56    1
    79    98    97    1
    80    59    56    1
    81   194   196   ar
    82   150   151    2
    83   183   184   ar
    84   184   185    1
    85    89    90    1
    86    75    69   am
    87    60    61    1
    88   170   171    2
    89   170   169    1
    90    56    55    1
    91    23    26    1
    92    23    24    1
    93    29    27    1
    94    28    27    1
    95   138   136   ar
    96   138   140   ar
    97   130   131    1
    98    25    24    2
    99   141   140    1
   100    26    27    1
   101    97    94    1
   102   160   161    1
   103    90    91    1
   104   136   135   ar
   105    61    62    1
   106    61    64    1
   107   131   132    1
   108   131   134    1
   109    92    91    2
   110   140   139   ar
   111    69    70    2
   112    69    68    1
   113    91    93   am
   114    63    62    2
   115    62    67   am
   116   132   133    2
   117    93    94    1
   118   169   168    1
   119   169   172    1
   120   168   162   am
   121    66    64    1
   122    94    95    1
   123    67    68    1
   124   135   134    1
   125   135   137   ar
   126   172   173    1
   127   162   161    1
   128   162   163    2
   129   139   137   ar
   130   161   164    1
   131    64    65    1
   132    68    71    1
   133    71    72    1
   134    37    36    1
   135    37    38    1
   136    36    35    1
   137    95    96    2
   138    95   104   am
   139    54    52    1
   140   164   165    1
   141   104   105    1
   142   107   106    2
   143    15    13    1
   144    72    74   am
   145    72    73    2
   146    14    13    1
   147   165   166   ar
   148   165   167   ar
   149    13    12    1
   150    35    34    1
   151    34    31    1
   152    11    10    2
   153    53    51    1
   154   106   105    1
   155    52    51    1
   156   105   108    1
   157   113   114    2
   158   113   112    1
   159   109   108    1
   160    51    48    1
   161    10     9    1
   162    12     9    1
   163    32    31    1
   164    32    33    2
   165    31    30    1
   166   108   110    1
   167   112   115    1
   168   112   111    1
   169     9     8    1
   170     7     5    1
   171   115   116    1
   172    48    49    1
   173    48    47    1
   174     4     3    2
   175    49    50    2
   176    47    41   am
   177     5     2    1
   178     5     6    1
   179     3     2    1
   180     2     1    1
   181    41    42    2
   182    41    40    1
   183    45    44    1
   184    43    40    1
   185    43    44    1
   186    39    40    1
   187    44    46    1
