@<TRIPOS>MOLECULE
tmp/5kjqA00.pdb
 110 106 0 0 0
SMALL
GASTEIGER

@<TRIPOS>ATOM
      1  N         13.3410  -17.1120  -14.7760 N.3    16  THR16      -0.1203
      2  CA        14.7450  -17.3310  -15.0980 C.3    16  THR16       0.1994
      3  C         15.5970  -16.9440  -13.8980 C.2    16  THR16       0.2618
      4  O         15.0780  -16.6030  -12.8280 O.2    16  THR16      -0.2717
      5  CB        15.1860  -16.5160  -16.3110 C.3    16  THR16       0.1784
      6  OG1       14.8050  -15.1410  -16.1280 O.3    16  THR16      -0.2211
      7  CG2       14.5670  -17.0670  -17.6220 C.3    16  THR16       0.0376
      8  N         16.9010  -16.9550  -14.0880 N.am   17  MET17      -0.1965
      9  CA        17.8610  -16.5500  -13.0790 C.3    17  MET17       0.1736
     10  C         18.8660  -15.5960  -13.7150 C.2    17  MET17       0.2616
     11  O         19.1440  -15.6750  -14.9170 O.2    17  MET17      -0.2715
     12  CB        18.4820  -17.8290  -12.4880 C.3    17  MET17       0.0427
     13  CG        19.4070  -18.5650  -13.4550 C.3    17  MET17       0.0599
     14  SD        20.3650  -19.8740  -12.6630 S.3    17  MET17      -0.1393
     15  CE        19.1150  -21.0880  -12.3310 C.3    17  MET17       0.0692
     16  N         19.3660  -14.6480  -12.9210 N.am   18  TYR18      -0.1960
     17  CA        20.3510  -13.6950  -13.4150 C.3    18  TYR18       0.1771
     18  C         21.3850  -13.3910  -12.3420 C.2    18  TYR18       0.2620
     19  O         21.1940  -13.6640  -11.1510 O.2    18  TYR18      -0.2715
     20  CB        19.7120  -12.3810  -13.9030 C.3    18  TYR18       0.0574
     21  CG        19.2570  -11.3850  -12.8470 C.ar   18  TYR18      -0.0198
     22  CD1       18.1160  -11.6140  -12.0820 C.ar   18  TYR18      -0.0009
     23  CD2       19.9190  -10.1830  -12.6740 C.ar   18  TYR18      -0.0009
     24  CE1       17.6720  -10.6880  -11.1350 C.ar   18  TYR18       0.0417
     25  CE2       19.4750   -9.2320  -11.7290 C.ar   18  TYR18       0.0417
     26  CZ        18.3580   -9.5040  -10.9580 C.ar   18  TYR18       0.1957
     27  OH        17.9030   -8.5780  -10.0440 O.3    18  TYR18      -0.2866
     28  N         22.4900  -12.8110  -12.7910 N.am   19  SER19      -0.1950
     29  CA        23.6130  -12.4970  -11.9280 C.3    19  SER19       0.1924
     30  C         23.7700  -10.9970  -11.7830 C.2    19  SER19       0.2314
     31  O         23.5690  -10.2430  -12.7380 O.2    19  SER19      -0.2863
     32  CB        24.9080  -13.0910  -12.4870 C.3    19  SER19       0.2116
     33  OG        24.9280  -14.4920  -12.2980 O.3    19  SER19      -0.2180
     34  N         11.3610  -25.6660  -22.0450 N.3    67  TYR67      -0.1241
     35  CA        12.3900  -26.1290  -22.9670 C.3    67  TYR67       0.1605
     36  C         12.5070  -27.6430  -22.9910 C.2    67  TYR67       0.2264
     37  O         13.0300  -28.2050  -23.9620 O.2    67  TYR67      -0.2867
     38  CB        13.7580  -25.5540  -22.5810 C.3    67  TYR67       0.0534
     39  CG        13.8750  -24.0600  -22.7240 C.ar   67  TYR67      -0.0201
     40  CD1       13.2670  -23.3890  -23.7760 C.ar   67  TYR67      -0.0009
     41  CD2       14.5990  -23.3210  -21.8010 C.ar   67  TYR67      -0.0009
     42  CE1       13.3780  -22.0080  -23.9020 C.ar   67  TYR67       0.0417
     43  CE2       14.7190  -21.9500  -21.9170 C.ar   67  TYR67       0.0417
     44  CZ        14.1020  -21.2990  -22.9620 C.ar   67  TYR67       0.1957
     45  OH        14.2280  -19.9380  -23.0580 O.3    67  TYR67      -0.2866
     46  N         12.9970   -6.2880  -14.9480 N.3    87  CYS87      -0.1235
     47  CA        13.3380   -7.0060  -16.1640 C.3    87  CYS87       0.1677
     48  C         12.7090   -6.2320  -17.3210 C.2    87  CYS87       0.2270
     49  O         11.4980   -6.3540  -17.5530 O.2    87  CYS87      -0.2867
     50  CB        12.8030   -8.4400  -16.1050 C.3    87  CYS87       0.0956
     51  SG        13.3390   -9.4500  -17.4960 S.3    87  CYS87      -0.0801
     52  N         15.5870   -5.8470  -24.7710 N.3    91  GLY91      -0.1210
     53  CA        16.6050   -6.8570  -24.5750 C.3    91  GLY91       0.1956
     54  C         16.1390   -8.1290  -23.8960 C.2    91  GLY91       0.2611
     55  O         16.9580   -9.0340  -23.6860 O.2    91  GLY91      -0.2717
     56  N         14.8610   -8.2250  -23.5360 N.am   92  ASN92      -0.1974
     57  CA        14.3150   -9.4150  -22.8850 C.3    92  ASN92       0.1688
     58  C         12.9600   -9.7560  -23.4950 C.2    92  ASN92       0.2292
     59  O         11.9620   -9.9380  -22.7960 O.2    92  ASN92      -0.2864
     60  CB        14.1910   -9.2090  -21.3720 C.3    92  ASN92       0.1181
     61  CG        15.5240   -8.8910  -20.7080 C.2    92  ASN92       0.2629
     62  OD1       16.3060   -9.7980  -20.3940 O.2    92  ASN92      -0.2716
     63  ND2       15.7800   -7.6060  -20.4700 N.am   92  ASN92      -0.0877
     64  N         11.8270  -12.4860  -25.0710 N.3    94  GLU94      -0.1231
     65  CA        11.3040  -13.8280  -24.8110 C.3    94  GLU94       0.1699
     66  C         10.5400  -13.8800  -23.4970 C.2    94  GLU94       0.2592
     67  O          9.4230  -14.4100  -23.4360 O.2    94  GLU94      -0.2718
     68  CB        12.4420  -14.8640  -24.8130 C.3    94  GLU94       0.0402
     69  CG        11.9580  -16.2890  -24.5370 C.3    94  GLU94       0.1161
     70  CD        13.0690  -17.3330  -24.5810 C.2    94  GLU94       0.3649
     71  OE1       14.2460  -16.9770  -24.8130 O.co2  94  GLU94      -0.2457
     72  OE2       12.7710  -18.5250  -24.3580 O.co2  94  GLU94      -0.2457
     73  N         11.1170  -13.3200  -22.4310 N.am   95  PHE95      -0.1976
     74  CA        10.5610  -13.4880  -21.0980 C.3    95  PHE95       0.1639
     75  C          9.9110  -12.2390  -20.5190 C.2    95  PHE95       0.2290
     76  O          8.9530  -12.3680  -19.7620 O.2    95  PHE95      -0.2864
     77  CB        11.6440  -13.9980  -20.1290 C.3    95  PHE95       0.0560
     78  CG        12.0320  -15.4310  -20.3760 C.ar   95  PHE95      -0.0200
     79  CD1       11.1470  -16.4620  -20.0790 C.ar   95  PHE95      -0.0042
     80  CD2       13.2600  -15.7520  -20.9400 C.ar   95  PHE95      -0.0042
     81  CE1       11.4890  -17.7920  -20.3190 C.ar   95  PHE95      -0.0003
     82  CE2       13.6070  -17.0770  -21.1840 C.ar   95  PHE95      -0.0003
     83  CZ        12.7170  -18.1010  -20.8660 C.ar   95  PHE95      -0.0000
     84  N          6.7430  -12.3210  -15.3620 N.3   112  HIS112     -0.1241
     85  CA         8.0210  -13.0120  -15.3450 C.3   112  HIS112      0.1621
     86  C          8.8060  -12.5870  -14.1200 C.2   112  HIS112      0.2264
     87  O          8.8800  -11.3950  -13.8090 O.2   112  HIS112     -0.2867
     88  CB         8.8780  -12.7200  -16.5730 C.3   112  HIS112      0.0745
     89  CG        10.1390  -13.5270  -16.6080 C.ar  112  HIS112      0.0817
     90  ND1       10.1710  -14.8350  -17.0460 N.ar  112  HIS112     -0.2268
     91  CD2       11.4000  -13.2290  -16.2190 C.ar  112  HIS112      0.1154
     92  CE1       11.4040  -15.2990  -16.9430 C.ar  112  HIS112      0.1986
     93  NE2       12.1680  -14.3460  -16.4420 N.ar  112  HIS112     -0.2212
     94  N         12.6660  -12.8440  -12.7260 N.3   114  ASP114     -0.1239
     95  CA        14.0760  -13.1280  -12.9630 C.3   114  ASP114      0.1674
     96  C         14.7220  -13.1980  -11.5790 C.2   114  ASP114      0.2266
     97  O         14.9000  -12.1670  -10.9240 O.2   114  ASP114     -0.2867
     98  CB        14.6720  -12.0180  -13.8270 C.3   114  ASP114      0.1410
     99  CG        15.9360  -12.4370  -14.5720 C.2   114  ASP114      0.3668
    100  OD1       16.3050  -13.6330  -14.5520 O.co2 114  ASP114     -0.2456
    101  OD2       16.5670  -11.5390  -15.1780 O.co2 114  ASP114     -0.2456
    102  N         17.2770  -24.0580  -16.4060 N.3   131  GLY131     -0.1210
    103  CA        17.4500  -22.6320  -16.1800 C.3   131  GLY131      0.1956
    104  C         16.2220  -21.7740  -16.3770 C.2   131  GLY131      0.2611
    105  O         16.2330  -20.6120  -15.9670 O.2   131  GLY131     -0.2717
    106  N         15.1710  -22.3030  -16.9980 N.am  132  ALA132     -0.1979
    107  CA        13.9400  -21.5520  -17.1860 C.3   132  ALA132      0.1597
    108  C         12.7570  -22.4540  -16.8790 C.2   132  ALA132      0.2287
    109  O         12.7430  -23.6280  -17.2580 O.2   132  ALA132     -0.2864
    110  CB        13.8380  -21.0050  -18.6090 C.3   132  ALA132      0.0319
@<TRIPOS>BOND
     1    64    65    1
     2    68    65    1
     3    68    69    1
     4    71    70   ar
     5    65    66    1
     6    52    53    1
     7    70    69    1
     8    70    72   ar
     9    53    54    1
    10    37    36    2
    11    42    40   ar
    12    42    44   ar
    13    54    55    2
    14    54    56   am
    15    40    39   ar
    16    56    57    1
    17    66    67    2
    18    66    73   am
    19    58    57    1
    20    58    59    2
    21    45    44    1
    22    36    35    1
    23    35    38    1
    24    35    34    1
    25    44    43   ar
    26    57    60    1
    27    39    38    1
    28    39    41   ar
    29    73    74    1
    30    43    41   ar
    31    60    61    1
    32    82    80   ar
    33    82    83   ar
    34    74    75    1
    35    74    77    1
    36    80    78   ar
    37    83    81   ar
    38    61    63   am
    39    61    62    2
    40    75    76    2
    41    78    77    1
    42    78    79   ar
    43    81    79   ar
    44   110   107    1
    45     7     5    1
    46    49    48    2
    47    51    50    1
    48    48    47    1
    49   109   108    2
    50   107   106    1
    51   107   108    1
    52    90    92   ar
    53    90    89   ar
    54   106   104   am
    55    92    93   ar
    56    89    88    1
    57    89    91   ar
    58    88    85    1
    59    93    91   ar
    60   102   103    1
    61   104   103    1
    62   104   105    2
    63     5     6    1
    64     5     2    1
    65    47    50    1
    66    47    46    1
    67    84    85    1
    68    85    86    1
    69   101    99   ar
    70     2     1    1
    71     2     3    1
    72    11    10    2
    73    99   100   ar
    74    99    98    1
    75    86    87    2
    76     8     3   am
    77     8     9    1
    78    20    17    1
    79    20    21    1
    80     3     4    2
    81    98    95    1
    82    10     9    1
    83    10    16   am
    84    13    14    1
    85    13    12    1
    86    17    16    1
    87    17    18    1
    88     9    12    1
    89    95    94    1
    90    95    96    1
    91    21    23   ar
    92    21    22   ar
    93    28    18   am
    94    28    29    1
    95    31    30    2
    96    23    25   ar
    97    14    15    1
    98    32    33    1
    99    32    29    1
   100    18    19    2
   101    22    24   ar
   102    29    30    1
   103    25    26   ar
   104    96    97    2
   105    24    26   ar
   106    26    27    1
