@<TRIPOS>MOLECULE
tmp/5kjrA08.pdb
 73 67 0 0 0
SMALL
GASTEIGER

@<TRIPOS>ATOM
      1  N         26.2860   11.0190   74.5570 N.3   154  THR154     -0.1218
      2  CA        27.0990   11.8510   75.4150 C.3   154  THR154      0.1862
      3  C         27.5090   13.1800   74.7410 C.2   154  THR154      0.2287
      4  O         28.0050   14.0770   75.3990 O.2   154  THR154     -0.2866
      5  CB        28.3870   11.1370   75.7830 C.3   154  THR154      0.1770
      6  OG1       29.1930   11.1230   74.6130 O.3   154  THR154     -0.2211
      7  CG2       28.1150    9.7130   76.3030 C.3   154  THR154      0.0375
      8  N         26.0130   16.1390   73.2940 N.3   156  ASN156     -0.1240
      9  CA        24.9240   17.1010   73.0960 C.3   156  ASN156      0.1653
     10  C         24.8450   17.6600   71.6690 C.2   156  ASN156      0.2266
     11  O         23.7850   18.1030   71.2590 O.2   156  ASN156     -0.2867
     12  CB        25.0600   18.2700   74.0910 C.3   156  ASN156      0.1155
     13  CG        26.2420   19.1800   73.7750 C.2   156  ASN156      0.2627
     14  OD1       27.3580   18.9780   74.2610 O.2   156  ASN156     -0.2716
     15  ND2       26.0020   20.1810   72.9320 N.am  156  ASN156     -0.0877
     16  N         17.5440   10.8330   85.5390 N.3   208  LYS208     -0.1245
     17  CA        17.6820   12.3080   85.5330 C.3   208  LYS208      0.1561
     18  C         16.3330   12.8920   85.1320 C.2   208  LYS208      0.2260
     19  O         15.5660   12.2300   84.4560 O.2   208  LYS208     -0.2867
     20  CB        18.7590   12.7470   84.5450 C.3   208  LYS208      0.0271
     21  CG        19.8530   13.6290   85.1070 C.3   208  LYS208      0.0035
     22  CD        21.1880   13.2540   84.4950 C.3   208  LYS208      0.0206
     23  CE        22.3340   14.0250   85.1230 C.3   208  LYS208      0.1093
     24  NZ        23.6090   13.7500   84.3930 N.3   208  LYS208     -0.1314
     25  N         19.8430   17.9760   72.5530 N.3   296  ARG296     -0.1245
     26  CA        19.9740   17.9940   73.9890 C.3   296  ARG296      0.1563
     27  C         20.8220   19.1960   74.3980 C.2   296  ARG296      0.2260
     28  O         21.9510   19.3370   73.9130 O.2   296  ARG296     -0.2867
     29  CB        20.6190   16.6760   74.4440 C.3   296  ARG296      0.0307
     30  CG        20.3680   16.3380   75.9110 C.3   296  ARG296      0.0489
     31  CD        20.6940   14.8970   76.3000 C.3   296  ARG296      0.2205
     32  NE        22.1090   14.5330   76.1840 N.pl3 296  ARG296     -0.0865
     33  CZ        23.1170   15.1190   76.8370 C.cat 296  ARG296      0.5346
     34  NH1       22.9310   16.1580   77.6250 N.pl3 296  ARG296      0.1354
     35  NH2       24.3580   14.6860   76.6710 N.pl3 296  ARG296      0.1354
     36  N         22.2630   19.6840   77.2980 N.3   298  GLY298     -0.1209
     37  CA        23.4250   19.0150   77.9210 C.3   298  GLY298      0.1959
     38  C         24.5030   19.8800   78.5620 C.2   298  GLY298      0.2652
     39  O         24.8920   19.6550   79.7240 O.2   298  GLY298     -0.2714
     40  N         25.0220   20.8170   77.7610 N.am  299  GLY299     -0.1718
     41  CA        25.7000   22.0410   78.2170 C.2   299  GLY299      0.1480
     42  C         26.0270   22.2330   79.6880 C.2   299  GLY299      0.2820
     43  O         27.1280   22.6720   80.0090 O.2   299  GLY299     -0.2669
     44  N         25.0910   21.9510   80.5920 N.am  300  ALA300     -0.1929
     45  CA        25.4590   21.8190   82.0030 C.3   300  ALA300      0.1731
     46  C         26.2650   20.5180   82.1600 C.2   300  ALA300      0.2616
     47  O         27.3170   20.4090   81.5280 O.2   300  ALA300     -0.2715
     48  CB        24.2380   21.8470   82.8740 C.3   300  ALA300      0.0334
     49  N         25.8280   19.5370   82.9570 N.am  301  ASN301     -0.1958
     50  CA        26.4080   18.1960   82.8020 C.3   301  ASN301      0.1819
     51  C         25.8040   16.8660   83.2950 C.2   301  ASN301      0.2621
     52  O         25.6760   15.9580   82.4640 O.2   301  ASN301     -0.2715
     53  CB        27.9020   18.1920   83.1650 C.3   301  ASN301      0.1195
     54  CG        28.7300   17.7540   82.0150 C.2   301  ASN301      0.2630
     55  OD1       28.2380   17.7270   80.8900 O.2   301  ASN301     -0.2716
     56  ND2       29.9700   17.4030   82.2590 N.am  301  ASN301     -0.0877
     57  N         25.4740   16.6530   84.5740 N.am  302  ASN302     -0.1972
     58  CA        25.2600   17.6310   85.6560 C.3   302  ASN302      0.1688
     59  C         24.1170   18.5810   85.2980 C.2   302  ASN302      0.2292
     60  O         23.4200   18.3290   84.2980 O.2   302  ASN302     -0.2864
     61  CB        26.5650   18.3180   86.1340 C.3   302  ASN302      0.1181
     62  CG        26.3720   19.1700   87.3580 C.2   302  ASN302      0.2629
     63  OD1       26.9740   20.2170   87.4650 O.2   302  ASN302     -0.2716
     64  ND2       25.5000   18.7570   88.2540 N.am  302  ASN302     -0.0877
     65  N         18.5040   17.0100   82.4450 N.3   306  GLU306     -0.1245
     66  CA        18.7850   17.2020   81.0140 C.3   306  GLU306      0.1567
     67  C         17.6250   17.8910   80.2890 C.2   306  GLU306      0.2260
     68  O         16.4460   17.6770   80.6020 O.2   306  GLU306     -0.2867
     69  CB        19.1190   15.8660   80.3250 C.3   306  GLU306      0.0388
     70  CG        20.2320   15.0380   80.9700 C.3   306  GLU306      0.1160
     71  CD        21.6310   15.6320   80.8270 C.2   306  GLU306      0.3649
     72  OE1       21.7670   16.8560   80.6050 O.co2 306  GLU306     -0.2457
     73  OE2       22.6170   14.8620   80.9270 O.co2 306  GLU306     -0.2457
@<TRIPOS>BOND
     1    11    10    2
     2    10     9    1
     3    25    26    1
     4    15    13   am
     5     9     8    1
     6     9    12    1
     7    13    12    1
     8    13    14    2
     9    28    27    2
    10    26    27    1
    11    26    29    1
    12    29    30    1
    13     1     2    1
    14     6     5    1
    15     3     4    2
    16     3     2    1
    17     2     5    1
    18     5     7    1
    19    30    31    1
    20    32    31    1
    21    32    33    2
    22    35    33    1
    23    33    34    1
    24    36    37    1
    25    40    41    2
    26    40    38    1
    27    37    38    1
    28    41    42    1
    29    38    39    2
    30    42    43    2
    31    42    44   am
    32    67    68    2
    33    67    66    1
    34    69    70    1
    35    69    66    1
    36    44    45    1
    37    72    71   ar
    38    71    73   ar
    39    71    70    1
    40    55    54    2
    41    66    65    1
    42    47    46    2
    43    45    46    1
    44    45    48    1
    45    54    56   am
    46    54    53    1
    47    46    49   am
    48    52    51    2
    49    50    49    1
    50    50    53    1
    51    50    51    1
    52    51    57   am
    53    60    59    2
    54    24    23    1
    55    19    18    2
    56    22    21    1
    57    22    23    1
    58    20    21    1
    59    20    17    1
    60    57    58    1
    61    18    17    1
    62    59    58    1
    63    17    16    1
    64    58    61    1
    65    61    62    1
    66    62    63    2
    67    62    64   am
