@<TRIPOS>MOLECULE
tmp/5kjuA00.pdb
 232 220 0 0 0
SMALL
GASTEIGER

@<TRIPOS>ATOM
      1  N        -48.7670   14.5490  -10.8730 N.3    31  ILE31      -0.1231
      2  CA       -48.5060   13.2440  -10.2950 C.3    31  ILE31       0.1678
      3  C        -48.5190   13.2870   -8.7420 C.2    31  ILE31       0.2434
      4  O        -48.2100   14.3300   -8.1490 O.2    31  ILE31      -0.2733
      5  CB       -47.1240   12.7520  -10.8290 C.3    31  ILE31       0.0265
      6  CG1      -47.0950   11.2420  -10.9590 C.3    31  ILE31       0.0019
      7  CG2      -45.9480   13.3500  -10.0320 C.3    31  ILE31       0.0020
      8  CD1      -48.1110   10.7800  -11.9440 C.3    31  ILE31       0.0001
      9  N        -48.8790   12.1680   -8.0750 N.am   32  PRO32      -0.2729
     10  CA       -48.8640   12.1290   -6.5940 C.3    32  PRO32       0.1401
     11  C        -47.5500   12.5760   -5.9490 C.2    32  PRO32       0.2269
     12  O        -46.5070   12.6040   -6.5990 O.2    32  PRO32      -0.2865
     13  CB       -49.1350   10.6540   -6.2810 C.3    32  PRO32       0.0296
     14  CG       -50.0220   10.2110   -7.3960 C.3    32  PRO32       0.0237
     15  CD       -49.6020   11.0140   -8.6380 C.3    32  PRO32       0.0939
     16  N        -43.2660    6.4230   -5.0480 N.3    36  THR36      -0.1204
     17  CA       -44.1120    5.2940   -5.3660 C.3    36  THR36       0.1979
     18  C        -43.4500    4.0370   -4.7960 C.2    36  THR36       0.2460
     19  O        -42.2710    3.7730   -5.0340 O.2    36  THR36      -0.2732
     20  CB       -44.4040    5.1860   -6.8970 C.3    36  THR36       0.1783
     21  OG1      -44.9950    3.9120   -7.1970 O.3    36  THR36      -0.2211
     22  CG2      -43.1650    5.3700   -7.7180 C.3    36  THR36       0.0376
     23  N        -44.2060    3.2920   -3.9810 N.am   37  PRO37      -0.2717
     24  CA       -43.7220    2.0950   -3.2870 C.3    37  PRO37       0.1535
     25  C        -44.0070    0.7920   -4.0550 C.2    37  PRO37       0.2599
     26  O        -45.1410    0.5220   -4.4430 O.2    37  PRO37      -0.2715
     27  CB       -44.5110    2.1340   -1.9750 C.3    37  PRO37       0.0310
     28  CG       -45.8790    2.7210   -2.4010 C.3    37  PRO37       0.0237
     29  CD       -45.6030    3.6140   -3.6160 C.3    37  PRO37       0.0939
     30  N        -42.9890   -0.0150   -4.2770 N.am   38  SER38      -0.1950
     31  CA       -43.2140   -1.3390   -4.8420 C.3    38  SER38       0.1924
     32  C        -42.3320   -2.3730   -4.1500 C.2    38  SER38       0.2314
     33  O        -41.2500   -2.0580   -3.6360 O.2    38  SER38      -0.2863
     34  CB       -42.9510   -1.3480   -6.3450 C.3    38  SER38       0.2116
     35  OG       -41.5800   -1.1390   -6.6060 O.3    38  SER38      -0.2180
     36  N        -40.7780   -6.5350   -4.3620 N.3    40  TYR40      -0.1241
     37  CA       -40.4810   -7.7910   -5.0550 C.3    40  TYR40       0.1605
     38  C        -40.1200   -8.8760   -4.0460 C.2    40  TYR40       0.2264
     39  O        -39.3600   -8.6050   -3.1200 O.2    40  TYR40      -0.2867
     40  CB       -39.2800   -7.6370   -5.9940 C.3    40  TYR40       0.0534
     41  CG       -39.3700   -6.6090   -7.0820 C.ar   40  TYR40      -0.0201
     42  CD1      -39.2270   -5.2540   -6.8070 C.ar   40  TYR40      -0.0009
     43  CD2      -39.5490   -7.0020   -8.4020 C.ar   40  TYR40      -0.0009
     44  CE1      -39.2900   -4.3190   -7.8180 C.ar   40  TYR40       0.0417
     45  CE2      -39.5970   -6.0900   -9.4150 C.ar   40  TYR40       0.0417
     46  CZ       -39.4700   -4.7490   -9.1290 C.ar   40  TYR40       0.1957
     47  OH       -39.5300   -3.8450  -10.1610 O.3    40  TYR40      -0.2866
     48  N        -38.7430   -0.9570   -3.2460 N.3   149  VAL149     -0.1245
     49  CA       -38.4100    0.1910   -4.0800 C.3   149  VAL149      0.1561
     50  C        -39.3080    1.3890   -3.7260 C.2   149  VAL149      0.2260
     51  O        -40.5250    1.2450   -3.5560 O.2   149  VAL149     -0.2867
     52  CB       -38.5590   -0.1660   -5.5870 C.3   149  VAL149      0.0252
     53  CG1      -38.1800    1.0150   -6.4810 C.3   149  VAL149      0.0019
     54  CG2      -37.7500   -1.4420   -5.9350 C.3   149  VAL149      0.0019
     55  N        -39.6350    5.1720   -5.3370 N.3   151  MET151     -0.1245
     56  CA       -39.1390    6.0530   -6.3860 C.3   151  MET151      0.1570
     57  C        -39.9780    7.3200   -6.4530 C.2   151  MET151      0.2261
     58  O        -41.2070    7.2660   -6.6190 O.2   151  MET151     -0.2867
     59  CB       -39.1390    5.3280   -7.7310 C.3   151  MET151      0.0387
     60  CG       -38.5290    6.1050   -8.8790 C.3   151  MET151      0.0595
     61  SD       -38.5530    5.1200  -10.4040 S.3   151  MET151     -0.1393
     62  CE       -37.7020    3.6340   -9.8510 C.3   151  MET151      0.0692
     63  N        -42.0010   10.2900   -7.4640 N.3   153  HIS153     -0.1241
     64  CA       -42.9250   10.3250   -8.5810 C.3   153  HIS153      0.1621
     65  C        -42.5640   11.2740   -9.7330 C.2   153  HIS153      0.2264
     66  O        -42.9240   10.9990  -10.8800 O.2   153  HIS153     -0.2867
     67  CB       -44.3170   10.6710   -8.0580 C.3   153  HIS153      0.0745
     68  CG       -45.1830    9.4770   -7.8180 C.ar  153  HIS153      0.0817
     69  ND1      -45.6810    9.1530   -6.5710 N.ar  153  HIS153     -0.2268
     70  CD2      -45.6520    8.5340   -8.6650 C.ar  153  HIS153      0.1154
     71  CE1      -46.4240    8.0650   -6.6620 C.ar  153  HIS153      0.1986
     72  NE2      -46.4230    7.6690   -7.9220 N.ar  153  HIS153     -0.2212
     73  N        -40.1490    9.4510  -12.6580 N.3   156  ALA156     -0.1231
     74  CA       -40.5430    8.3650  -13.5490 C.3   156  ALA156      0.1694
     75  C        -41.9210    7.8250  -13.2200 C.2   156  ALA156      0.2592
     76  O        -42.2500    7.6550  -12.0460 O.2   156  ALA156     -0.2718
     77  CB       -39.5220    7.2290  -13.4800 C.3   156  ALA156      0.0304
     78  N        -42.7200    7.5390  -14.2470 N.am  157  ASP157     -0.1960
     79  CA       -43.8730    6.6540  -14.0450 C.3   157  ASP157      0.1840
     80  C        -43.4200    5.1840  -14.0630 C.2   157  ASP157      0.2622
     81  O        -42.2210    4.8910  -14.0050 O.2   157  ASP157     -0.2715
     82  CB       -44.9740    6.9020  -15.0930 C.3   157  ASP157      0.1450
     83  CG       -44.5230    6.6450  -16.5290 C.2   157  ASP157      0.3671
     84  OD1      -43.5830    5.8560  -16.7770 O.co2 157  ASP157     -0.2456
     85  OD2      -45.1420    7.2300  -17.4280 O.co2 157  ASP157     -0.2456
     86  N        -44.3830    4.2720  -14.1620 N.am  158  GLY158     -0.1954
     87  CA       -44.1060    2.8520  -14.0850 C.3   158  GLY158      0.1869
     88  C        -43.2390    2.3520  -15.2260 C.2   158  GLY158      0.2309
     89  O        -42.3510    1.5390  -15.0180 O.2   158  GLY158     -0.2863
     90  N        -39.6660    3.9450  -14.6250 N.3   161  GLY161     -0.1210
     91  CA       -39.0710    3.4020  -13.4180 C.3   161  GLY161      0.1956
     92  C        -38.5770    1.9640  -13.5960 C.2   161  GLY161      0.2611
     93  O        -37.4180    1.6380  -13.2720 O.2   161  GLY161     -0.2717
     94  N        -39.4520    1.1040  -14.1200 N.am  162  LEU162     -0.1979
     95  CA       -39.1010   -0.2890  -14.3810 C.3   162  LEU162      0.1596
     96  C        -38.0480   -0.4080  -15.5000 C.2   162  LEU162      0.2287
     97  O        -37.3040   -1.3920  -15.5620 O.2   162  LEU162     -0.2864
     98  CB       -40.3510   -1.0930  -14.7410 C.3   162  LEU162      0.0297
     99  CG       -41.3780   -1.2650  -13.6230 C.3   162  LEU162      0.0022
    100  CD1      -42.5780   -2.0570  -14.0820 C.3   162  LEU162      0.0001
    101  CD2      -40.7160   -1.9470  -12.4350 C.3   162  LEU162      0.0001
    102  N        -35.1270   -0.1670  -13.0950 N.3   165  ILE165     -0.1245
    103  CA       -35.0000   -1.3250  -12.2070 C.3   165  ILE165      0.1561
    104  C        -34.6000   -2.5770  -13.0040 C.2   165  ILE165      0.2260
    105  O        -33.7250   -3.3380  -12.5810 O.2   165  ILE165     -0.2867
    106  CB       -36.3130   -1.6130  -11.4220 C.3   165  ILE165      0.0252
    107  CG1      -36.6710   -0.4630  -10.4540 C.3   165  ILE165      0.0019
    108  CG2      -36.2280   -2.9530  -10.6610 C.3   165  ILE165      0.0019
    109  CD1      -35.7450   -0.3220   -9.2420 C.3   165  ILE165      0.0001
    110  N        -60.8250    7.3970  -10.8500 N.3   280  TYR280     -0.1241
    111  CA       -59.5600    7.8890  -11.4070 C.3   280  TYR280      0.1605
    112  C        -58.6750    6.7980  -12.0220 C.2   280  TYR280      0.2264
    113  O        -58.2100    5.8830  -11.3270 O.2   280  TYR280     -0.2867
    114  CB       -58.7670    8.6360  -10.3370 C.3   280  TYR280      0.0534
    115  CG       -59.3190   10.0110  -10.0390 C.ar  280  TYR280     -0.0201
    116  CD1      -60.4300   10.1650   -9.2310 C.ar  280  TYR280     -0.0009
    117  CD2      -58.7350   11.1580  -10.5880 C.ar  280  TYR280     -0.0009
    118  CE1      -60.9430   11.4090   -8.9580 C.ar  280  TYR280      0.0417
    119  CE2      -59.2420   12.4220  -10.3190 C.ar  280  TYR280      0.0417
    120  CZ       -60.3490   12.5400   -9.4990 C.ar  280  TYR280      0.1957
    121  OH       -60.8770   13.7800   -9.2090 O.3   280  TYR280     -0.2866
    122  N        -55.2960    6.0890  -14.0660 N.3   282  ALA282     -0.1245
    123  CA       -53.9720    6.4420  -14.5770 C.3   282  ALA282      0.1562
    124  C        -53.8050    5.8110  -15.9610 C.2   282  ALA282      0.2260
    125  O        -53.9670    4.6110  -16.1250 O.2   282  ALA282     -0.2867
    126  CB       -52.8770    5.9870  -13.6300 C.3   282  ALA282      0.0290
    127  N        -48.2000    9.8950  -17.7040 N.3   302  ILE302     -0.1245
    128  CA       -49.4850    9.5810  -17.1080 C.3   302  ILE302      0.1561
    129  C        -50.5060   10.6870  -17.3420 C.2   302  ILE302      0.2260
    130  O        -50.3350   11.8260  -16.9000 O.2   302  ILE302     -0.2867
    131  CB       -49.3400    9.3310  -15.6040 C.3   302  ILE302      0.0252
    132  CG1      -48.4290    8.1240  -15.3660 C.3   302  ILE302      0.0019
    133  CG2      -50.7160    9.1730  -14.9290 C.3   302  ILE302      0.0019
    134  CD1      -48.0720    7.8990  -13.9120 C.3   302  ILE302      0.0001
    135  N        -55.0110   11.1930  -17.3580 N.3   304  THR304     -0.1218
    136  CA       -55.9920   10.7630  -16.3760 C.3   304  THR304      0.1862
    137  C        -57.4230   10.7460  -16.9200 C.2   304  THR304      0.2287
    138  O        -57.9330   11.7430  -17.4140 O.2   304  THR304     -0.2866
    139  CB       -55.8880   11.6470  -15.1030 C.3   304  THR304      0.1770
    140  OG1      -54.5460   11.5880  -14.5850 O.3   304  THR304     -0.2211
    141  CG2      -56.8450   11.1750  -14.0450 C.3   304  THR304      0.0375
    142  N        -52.7340   14.9940   -7.3660 N.3   356  ARG356     -0.1245
    143  CA       -53.6200   13.9700   -6.8260 C.3   356  ARG356      0.1563
    144  C        -53.0550   13.3840   -5.5240 C.2   356  ARG356      0.2260
    145  O        -51.8380   13.2610   -5.3490 O.2   356  ARG356     -0.2867
    146  CB       -53.8530   12.8870   -7.8740 C.3   356  ARG356      0.0307
    147  CG       -54.5750   13.4040   -9.1170 C.3   356  ARG356      0.0489
    148  CD       -54.7250   12.3350  -10.2170 C.3   356  ARG356      0.2205
    149  NE       -53.4330   11.9330  -10.7680 N.pl3 356  ARG356     -0.0865
    150  CZ       -52.7720   12.5620  -11.7440 C.cat 356  ARG356      0.5346
    151  NH1      -53.2780   13.6380  -12.3320 N.pl3 356  ARG356      0.1354
    152  NH2      -51.6020   12.0860  -12.1480 N.pl3 356  ARG356      0.1354
    153  N        -58.7210   10.1400   -3.9550 N.3   361  TYR361     -0.1241
    154  CA       -59.2370    8.7680   -4.0900 C.3   361  TYR361      0.1605
    155  C        -60.2170    8.3760   -2.9970 C.2   361  TYR361      0.2264
    156  O        -60.9100    7.3700   -3.1310 O.2   361  TYR361     -0.2867
    157  CB       -58.0950    7.7440   -4.0970 C.3   361  TYR361      0.0534
    158  CG       -56.8780    8.1780   -4.8890 C.ar  361  TYR361     -0.0201
    159  CD1      -56.9010    8.2220   -6.2880 C.ar  361  TYR361     -0.0009
    160  CD2      -55.7070    8.5440   -4.2360 C.ar  361  TYR361     -0.0009
    161  CE1      -55.7860    8.6220   -7.0100 C.ar  361  TYR361      0.0417
    162  CE2      -54.5900    8.9560   -4.9360 C.ar  361  TYR361      0.0417
    163  CZ       -54.6210    8.9990   -6.3270 C.ar  361  TYR361      0.1957
    164  OH       -53.4760    9.4040   -7.0150 O.3   361  TYR361     -0.2866
    165  N        -55.4160    1.8860  -10.5850 N.3   369  THR369     -0.1218
    166  CA       -54.2900    1.9910  -11.4960 C.3   369  THR369      0.1862
    167  C        -53.8360    0.5910  -11.8830 C.2   369  THR369      0.2287
    168  O        -53.5920   -0.2520  -11.0100 O.2   369  THR369     -0.2866
    169  CB       -53.1070    2.8100  -10.8950 C.3   369  THR369      0.1770
    170  OG1      -52.2880    1.9630  -10.0940 O.3   369  THR369     -0.2211
    171  CG2      -53.6090    3.9000  -10.0330 C.3   369  THR369      0.0375
    172  N        -51.2900   -2.1720  -13.2950 N.3   371  TRP371     -0.1241
    173  CA       -49.8880   -2.5030  -13.5170 C.3   371  TRP371      0.1605
    174  C        -49.7770   -3.7100  -14.4400 C.2   371  TRP371      0.2264
    175  O        -48.6850   -4.2560  -14.6580 O.2   371  TRP371     -0.2867
    176  CB       -49.1700   -2.7690  -12.1890 C.3   371  TRP371      0.0550
    177  CG       -48.8150   -1.5110  -11.4830 C.ar  371  TRP371      0.0003
    178  CD1      -49.1830   -0.2390  -11.8400 C.ar  371  TRP371      0.0946
    179  CD2      -48.0230   -1.3810  -10.3020 C.ar  371  TRP371      0.0152
    180  NE1      -48.6580    0.6670  -10.9610 N.ar  371  TRP371     -0.2442
    181  CE2      -47.9470   -0.0030  -10.0020 C.ar  371  TRP371      0.0810
    182  CE3      -47.3670   -2.2900   -9.4660 C.ar  371  TRP371      0.0012
    183  CZ2      -47.2410    0.4840   -8.9010 C.ar  371  TRP371      0.0191
    184  CZ3      -46.6580   -1.8000   -8.3790 C.ar  371  TRP371      0.0001
    185  CH2      -46.6030   -0.4310   -8.1060 C.ar  371  TRP371      0.0015
    186  N        -47.4190   -3.4870  -17.1330 N.3   374  LEU374     -0.1245
    187  CA       -46.0370   -3.1490  -16.7550 C.3   374  LEU374      0.1561
    188  C        -45.1750   -4.4180  -16.6100 C.2   374  LEU374      0.2260
    189  O        -45.6460   -5.4490  -16.1250 O.2   374  LEU374     -0.2867
    190  CB       -45.9960   -2.3470  -15.4470 C.3   374  LEU374      0.0270
    191  CG       -46.5460   -0.9220  -15.2980 C.3   374  LEU374      0.0019
    192  CD1      -46.2730   -0.4100  -13.8890 C.3   374  LEU374      0.0001
    193  CD2      -45.9390    0.0220  -16.3090 C.3   374  LEU374      0.0001
    194  N        -44.6340   -9.3310   -7.2000 N.3   389  MET389     -0.1245
    195  CA       -44.3290   -7.9040   -7.2390 C.3   389  MET389      0.1570
    196  C        -45.6430   -7.1340   -7.2300 C.2   389  MET389      0.2261
    197  O        -46.5660   -7.4200   -8.0000 O.2   389  MET389     -0.2867
    198  CB       -43.4240   -7.6100   -8.4480 C.3   389  MET389      0.0387
    199  CG       -43.3690   -6.2320   -9.1290 C.3   389  MET389      0.0595
    200  SD       -43.8270   -4.6790   -8.3520 S.3   389  MET389     -0.1393
    201  CE       -44.0590   -3.5910   -9.7270 C.3   389  MET389      0.0692
    202  N        -53.4020    5.6440    0.7080 N.3   396  TYR396     -0.1241
    203  CA       -54.6310    6.4360    0.5220 C.3   396  TYR396      0.1605
    204  C        -55.8670    5.5610    0.4650 C.2   396  TYR396      0.2264
    205  O        -55.9770    4.7010   -0.4040 O.2   396  TYR396     -0.2867
    206  CB       -54.5730    7.2670   -0.7680 C.3   396  TYR396      0.0534
    207  CG       -53.3400    8.1160   -0.9320 C.ar  396  TYR396     -0.0201
    208  CD1      -52.8500    8.8890    0.1180 C.ar  396  TYR396     -0.0009
    209  CD2      -52.6570    8.1330   -2.1290 C.ar  396  TYR396     -0.0009
    210  CE1      -51.7050    9.6610   -0.0330 C.ar  396  TYR396      0.0417
    211  CE2      -51.5250    8.8880   -2.2900 C.ar  396  TYR396      0.0417
    212  CZ       -51.0450    9.6570   -1.2430 C.ar  396  TYR396      0.1957
    213  OH       -49.9100   10.4160   -1.4310 O.3   396  TYR396     -0.2866
    214  N        -57.6570    4.0600   -2.9510 N.3   399  LEU399     -0.1245
    215  CA       -56.7530    3.7580   -4.0560 C.3   399  LEU399      0.1561
    216  C        -56.6000    2.2330   -4.2270 C.2   399  LEU399      0.2260
    217  O        -56.5980    1.4780   -3.2440 O.2   399  LEU399     -0.2867
    218  CB       -55.4000    4.4270   -3.8320 C.3   399  LEU399      0.0270
    219  CG       -54.3300    4.2000   -4.9030 C.3   399  LEU399      0.0019
    220  CD1      -54.7340    4.8650   -6.2150 C.3   399  LEU399      0.0001
    221  CD2      -52.9530    4.6830   -4.4260 C.3   399  LEU399      0.0001
    222  N        -54.8820   -1.1550   -6.9560 N.3   401  PHE401     -0.1241
    223  CA       -54.0220   -1.5850   -8.0610 C.3   401  PHE401      0.1605
    224  C        -54.4540   -2.9200   -8.6660 C.2   401  PHE401      0.2264
    225  O        -54.8670   -3.8340   -7.9460 O.2   401  PHE401     -0.2867
    226  CB       -52.5700   -1.7170   -7.6000 C.3   401  PHE401      0.0534
    227  CG       -51.9600   -0.4440   -7.0860 C.ar  401  PHE401     -0.0203
    228  CD1      -52.1920   -0.0190   -5.7770 C.ar  401  PHE401     -0.0042
    229  CD2      -51.1020    0.2970   -7.8830 C.ar  401  PHE401     -0.0042
    230  CE1      -51.6020    1.1240   -5.2860 C.ar  401  PHE401     -0.0003
    231  CE2      -50.5090    1.4410   -7.3990 C.ar  401  PHE401     -0.0003
    232  CZ       -50.7660    1.8600   -6.0980 C.ar  401  PHE401     -0.0000
@<TRIPOS>BOND
     1   127   128    1
     2    85    83   ar
     3   138   137    2
     4   135   136    1
     5   129   128    1
     6   129   130    2
     7   186   187    1
     8   128   131    1
     9   137   136    1
    10    84    83   ar
    11   187   188    1
    12   187   190    1
    13   188   189    2
    14    83    82    1
    15   136   139    1
    16   193   191    1
    17   125   124    2
    18   124   123    1
    19   131   132    1
    20   131   133    1
    21    97    96    2
    22    96    95    1
    23   190   191    1
    24   132   134    1
    25   191   192    1
    26    88    89    2
    27    88    87    1
    28   139   140    1
    29   139   141    1
    30    82    79    1
    31    98    95    1
    32    98    99    1
    33   175   174    2
    34    90    91    1
    35   123   122    1
    36   123   126    1
    37   174   173    1
    38    95    94    1
    39    78    79    1
    40    78    75   am
    41    86    87    1
    42    86    80   am
    43    94    92   am
    44   100    99    1
    45    80    79    1
    46    80    81    2
    47    99   101    1
    48    92    91    1
    49    92    93    2
    50    74    77    1
    51    74    75    1
    52    74    73    1
    53   173   172    1
    54   173   176    1
    55    75    76    2
    56   102   103    1
    57   104   105    2
    58   104   103    1
    59   151   150    1
    60   103   106    1
    61   176   177    1
    62   152   150    1
    63   112   111    1
    64   112   113    2
    65     8     6    1
    66   167   166    1
    67   167   168    2
    68   178   177   ar
    69   178   180   ar
    70   150   149    2
    71   166   169    1
    72   166   165    1
    73   177   179   ar
    74   106   108    1
    75   106   107    1
    76   111   110    1
    77   111   114    1
    78   180   181   ar
    79     6     5    1
    80   169   170    1
    81   169   171    1
    82    66    65    2
    83     1     2    1
    84     5     2    1
    85     5     7    1
    86   149   148    1
    87   117   119   ar
    88   117   115   ar
    89   107   109    1
    90    61    62    1
    91    61    60    1
    92   114   115    1
    93   119   120   ar
    94   179   181   ar
    95   179   182   ar
    96     2     3    1
    97   148   147    1
    98    47    46    1
    99   115   116   ar
   100   181   183   ar
   101    65    64    1
   102   201   200    1
   103   120   121    1
   104   120   118   ar
   105   182   184   ar
   106    45    46   ar
   107    45    43   ar
   108   116   118   ar
   109    46    44   ar
   110   199   198    1
   111   199   200    1
   112   147   146    1
   113   183   185   ar
   114    60    59    1
   115     3     4    2
   116     3     9   am
   117   224   223    1
   118   224   225    2
   119    70    72   ar
   120    70    68   ar
   121    15     9    1
   122    15    14    1
   123    64    67    1
   124    64    63    1
   125   198   195    1
   126    43    41   ar
   127   184   185   ar
   128     9    10    1
   129   223   226    1
   130   223   222    1
   131    67    68    1
   132   197   196    2
   133    72    71   ar
   134   229   231   ar
   135   229   227   ar
   136   146   143    1
   137    68    69   ar
   138    44    42   ar
   139    59    56    1
   140    22    20    1
   141   226   227    1
   142   231   232   ar
   143    14    13    1
   144   142   143    1
   145   195   196    1
   146   195   194    1
   147    21    20    1
   148   227   228   ar
   149    41    42   ar
   150    41    40    1
   151   164   163    1
   152   161   163   ar
   153   161   159   ar
   154    20    17    1
   155   143   144    1
   156    71    69   ar
   157    58    57    2
   158    35    34    1
   159    12    11    2
   160    10    13    1
   161    10    11    1
   162    53    52    1
   163    57    56    1
   164    56    55    1
   165    34    31    1
   166   163   162   ar
   167   159   158   ar
   168   220   219    1
   169   232   230   ar
   170    40    37    1
   171    54    52    1
   172   228   230   ar
   173    52    49    1
   174   144   145    2
   175    17    16    1
   176    17    18    1
   177    37    36    1
   178    37    38    1
   179    19    18    2
   180   162   160   ar
   181   219   221    1
   182   219   218    1
   183   158   160   ar
   184   158   157    1
   185    31    30    1
   186    31    32    1
   187    18    23   am
   188    26    25    2
   189    30    25   am
   190   216   215    1
   191   216   217    2
   192    32    33    2
   193   157   154    1
   194   154   153    1
   195   154   155    1
   196    49    50    1
   197    49    48    1
   198   215   218    1
   199   215   214    1
   200    25    24    1
   201    38    39    2
   202    23    29    1
   203    23    24    1
   204    50    51    2
   205    29    28    1
   206    24    27    1
   207   156   155    2
   208    28    27    1
   209   211   209   ar
   210   211   212   ar
   211   209   207   ar
   212   213   212    1
   213   212   210   ar
   214   207   206    1
   215   207   208   ar
   216   206   203    1
   217   205   204    2
   218   210   208   ar
   219   204   203    1
   220   203   202    1
