@<TRIPOS>MOLECULE
tmp/5kjwA00.pdb
 104 101 0 0 0
SMALL
GASTEIGER

@<TRIPOS>ATOM
      1  N         42.6080   19.1770   19.0640 N.3   272  TYR272     -0.1241
      2  CA        41.8430   18.0140   19.4980 C.3   272  TYR272      0.1605
      3  C         40.7310   18.4410   20.4430 C.2   272  TYR272      0.2264
      4  O         40.9890   18.9910   21.5130 O.2   272  TYR272     -0.2867
      5  CB        42.7550   16.9850   20.1680 C.3   272  TYR272      0.0534
      6  CG        43.7370   16.3440   19.2160 C.ar  272  TYR272     -0.0201
      7  CD1       44.9380   16.9650   18.9050 C.ar  272  TYR272     -0.0009
      8  CD2       43.4620   15.1180   18.6250 C.ar  272  TYR272     -0.0009
      9  CE1       45.8370   16.3850   18.0320 C.ar  272  TYR272      0.0417
     10  CE2       44.3550   14.5300   17.7490 C.ar  272  TYR272      0.0417
     11  CZ        45.5420   15.1670   17.4580 C.ar  272  TYR272      0.1957
     12  OH        46.4390   14.5870   16.5890 O.3   272  TYR272     -0.2866
     13  N         37.4020   17.3410   22.6150 N.3   274  ALA274     -0.1245
     14  CA        36.5520   16.3210   23.2130 C.3   274  ALA274      0.1562
     15  C         35.0840   16.6530   22.9700 C.2   274  ALA274      0.2260
     16  O         34.6170   17.7330   23.3280 O.2   274  ALA274     -0.2867
     17  CB        36.8340   16.1960   24.7030 C.3   274  ALA274      0.0290
     18  N         36.4750   12.6760   19.4520 N.3   296  THR296     -0.1218
     19  CA        37.3130   13.8530   19.2500 C.3   296  THR296      0.1862
     20  C         37.2040   14.4430   17.8480 C.2   296  THR296      0.2287
     21  O         37.4480   13.7600   16.8530 O.2   296  THR296     -0.2866
     22  CB        38.7990   13.5340   19.5270 C.3   296  THR296      0.1770
     23  OG1       38.9220   12.8620   20.7860 O.3   296  THR296     -0.2211
     24  CG2       39.6240   14.8110   19.5540 C.3   296  THR296      0.0375
     25  N         45.9980    9.0740   23.1060 N.3   348  ARG348     -0.1245
     26  CA        46.8540   10.2380   22.9170 C.3   348  ARG348      0.1563
     27  C         47.6360   10.5880   24.1790 C.2   348  ARG348      0.2260
     28  O         47.1390   10.4390   25.2950 O.2   348  ARG348     -0.2867
     29  CB        46.0140   11.4310   22.4630 C.3   348  ARG348      0.0307
     30  CG        45.2360   11.1550   21.1910 C.3   348  ARG348      0.0489
     31  CD        44.2940   12.2910   20.8370 C.3   348  ARG348      0.2205
     32  NE        43.5870   12.0180   19.5890 N.pl3 348  ARG348     -0.0865
     33  CZ        42.3950   11.4360   19.5120 C.cat 348  ARG348      0.5346
     34  NH1       41.7610   11.0670   20.6170 N.pl3 348  ARG348      0.1354
     35  NH2       41.8340   11.2270   18.3300 N.pl3 348  ARG348      0.1354
     36  N         49.8380   16.4870   22.1810 N.3   353  PHE353     -0.1241
     37  CA        49.4540   17.8440   22.5440 C.3   353  PHE353      0.1605
     38  C         50.6550   18.7690   22.7120 C.2   353  PHE353      0.2264
     39  O         50.5110   19.9060   23.1600 O.2   353  PHE353     -0.2867
     40  CB        48.6180   17.8230   23.8230 C.3   353  PHE353      0.0534
     41  CG        47.4480   16.8820   23.7580 C.ar  353  PHE353     -0.0203
     42  CD1       46.3370   17.1880   22.9890 C.ar  353  PHE353     -0.0042
     43  CD2       47.4610   15.6900   24.4630 C.ar  353  PHE353     -0.0042
     44  CE1       45.2590   16.3240   22.9250 C.ar  353  PHE353     -0.0003
     45  CE2       46.3870   14.8220   24.4040 C.ar  353  PHE353     -0.0003
     46  CZ        45.2840   15.1390   23.6330 C.ar  353  PHE353     -0.0000
     47  N         44.9370   20.2930   22.8250 N.3   359  GLY359     -0.1210
     48  CA        43.7240   19.5790   23.1710 C.3   359  GLY359      0.1956
     49  C         42.8530   20.4380   24.0640 C.2   359  GLY359      0.2612
     50  O         43.3490   21.0660   24.9980 O.2   359  GLY359     -0.2717
     51  N         41.5560   20.4800   23.7780 N.am  360  ILE360     -0.1965
     52  CA        40.6420   21.3070   24.5580 C.3   360  ILE360      0.1727
     53  C         39.3420   20.5730   24.8810 C.2   360  ILE360      0.2616
     54  O         38.8200   19.8130   24.0670 O.2   360  ILE360     -0.2715
     55  CB        40.3210   22.6350   23.8270 C.3   360  ILE360      0.0290
     56  CG1       39.5050   23.5660   24.7280 C.3   360  ILE360      0.0022
     57  CG2       39.6010   22.3770   22.5100 C.3   360  ILE360      0.0023
     58  CD1       39.3360   24.9590   24.1750 C.3   360  ILE360      0.0001
     59  N         38.8460   20.7850   26.0960 N.am  361  THR361     -0.1951
     60  CA        37.5510   20.2620   26.5070 C.3   361  THR361      0.1897
     61  C         36.8260   21.3120   27.3430 C.2   361  THR361      0.2313
     62  O         37.4550   22.0850   28.0670 O.2   361  THR361     -0.2863
     63  CB        37.6860   18.9520   27.3080 C.3   361  THR361      0.1794
     64  OG1       36.3860   18.4860   27.6920 O.3   361  THR361     -0.2208
     65  CG2       38.5300   19.1650   28.5540 C.3   361  THR361      0.0378
     66  N         33.8760   22.0050   30.1760 N.3   363  TRP363     -0.1241
     67  CA        33.0920   21.3960   31.2470 C.3   363  TRP363      0.1605
     68  C         31.9470   22.2860   31.7210 C.2   363  TRP363      0.2264
     69  O         31.2940   21.9880   32.7210 O.2   363  TRP363     -0.2867
     70  CB        33.9940   21.0330   32.4290 C.3   363  TRP363      0.0550
     71  CG        34.8620   19.8390   32.1760 C.ar  363  TRP363      0.0003
     72  CD1       34.9540   19.1230   31.0180 C.ar  363  TRP363      0.0946
     73  CD2       35.7620   19.2200   33.1030 C.ar  363  TRP363      0.0152
     74  NE1       35.8550   18.0960   31.1660 N.ar  363  TRP363     -0.2442
     75  CE2       36.3660   18.1340   32.4370 C.ar  363  TRP363      0.0810
     76  CE3       36.1170   19.4780   34.4300 C.ar  363  TRP363      0.0012
     77  CZ2       37.3030   17.3080   33.0530 C.ar  363  TRP363      0.0191
     78  CZ3       37.0480   18.6560   35.0410 C.ar  363  TRP363      0.0001
     79  CH2       37.6300   17.5850   34.3520 C.ar  363  TRP363      0.0015
     80  N         47.2530   21.1270   26.9590 N.3   391  LEU391     -0.1231
     81  CA        45.9060   20.7570   27.3760 C.3   391  LEU391      0.1693
     82  C         45.2000   21.9570   27.9820 C.2   391  LEU391      0.2593
     83  O         45.7850   22.6880   28.7770 O.2   391  LEU391     -0.2718
     84  CB        45.9380   19.6040   28.3820 C.3   391  LEU391      0.0284
     85  CG        46.2400   18.2040   27.8460 C.3   391  LEU391      0.0019
     86  CD1       46.0830   17.1750   28.9540 C.3   391  LEU391      0.0001
     87  CD2       45.3370   17.8680   26.6690 C.3   391  LEU391      0.0001
     88  N         43.9430   22.1600   27.6040 N.am  392  SER392     -0.1938
     89  CA        43.1640   23.2620   28.1530 C.3   392  SER392      0.2055
     90  C         41.7820   22.8080   28.6060 C.2   392  SER392      0.2643
     91  O         41.1260   22.0070   27.9420 O.2   392  SER392     -0.2714
     92  CB        43.0330   24.3920   27.1330 C.3   392  SER392      0.2130
     93  OG        42.4050   23.9360   25.9520 O.3   392  SER392     -0.2179
     94  N         41.3550   23.3290   29.7500 N.am  393  PHE393     -0.1973
     95  CA        40.0520   23.0140   30.3160 C.3   393  PHE393      0.1639
     96  C         39.2570   24.2950   30.5160 C.2   393  PHE393      0.2290
     97  O         39.7160   25.2150   31.1970 O.2   393  PHE393     -0.2864
     98  CB        40.1980   22.2790   31.6510 C.3   393  PHE393      0.0560
     99  CG        40.8030   20.9080   31.5360 C.ar  393  PHE393     -0.0200
    100  CD1       42.1630   20.7480   31.3230 C.ar  393  PHE393     -0.0042
    101  CD2       40.0140   19.7770   31.6670 C.ar  393  PHE393     -0.0042
    102  CE1       42.7190   19.4870   31.2220 C.ar  393  PHE393     -0.0003
    103  CE2       40.5660   18.5140   31.5670 C.ar  393  PHE393     -0.0003
    104  CZ        41.9200   18.3680   31.3470 C.ar  393  PHE393     -0.0000
@<TRIPOS>BOND
     1    12    11    1
     2    21    20    2
     3    11    10   ar
     4    11     9   ar
     5    10     8   ar
     6    20    19    1
     7     9     7   ar
     8    35    33    1
     9     8     6   ar
    10     7     6   ar
    11     1     2    1
    12     6     5    1
    13    19    18    1
    14    19    22    1
    15     2     5    1
    16     2     3    1
    17    33    32    2
    18    33    34    1
    19    22    24    1
    20    22    23    1
    21    32    31    1
    22     3     4    2
    23    31    30    1
    24    30    29    1
    25    36    37    1
    26    29    26    1
    27    57    55    1
    28    37    38    1
    29    37    40    1
    30    13    14    1
    31    38    39    2
    32    47    48    1
    33    26    25    1
    34    26    27    1
    35    44    42   ar
    36    44    46   ar
    37    15    14    1
    38    15    16    2
    39    42    41   ar
    40    48    49    1
    41    14    17    1
    42    46    45   ar
    43    41    40    1
    44    41    43   ar
    45    51    49   am
    46    51    52    1
    47    55    52    1
    48    55    56    1
    49    49    50    2
    50    54    53    2
    51    58    56    1
    52    27    28    2
    53    45    43   ar
    54    52    53    1
    55    53    59   am
    56    93    92    1
    57    59    60    1
    58    60    63    1
    59    60    61    1
    60    87    85    1
    61    80    81    1
    62    92    89    1
    63    63    64    1
    64    63    65    1
    65    61    62    2
    66    81    82    1
    67    81    84    1
    68    88    82   am
    69    88    89    1
    70    85    84    1
    71    85    86    1
    72    91    90    2
    73    82    83    2
    74    89    90    1
    75    90    94   am
    76    94    95    1
    77    66    67    1
    78    95    96    1
    79    95    98    1
    80    96    97    2
    81    72    74   ar
    82    72    71   ar
    83    74    75   ar
    84   102   100   ar
    85   102   104   ar
    86    67    68    1
    87    67    70    1
    88   100    99   ar
    89   104   103   ar
    90    99    98    1
    91    99   101   ar
    92   103   101   ar
    93    68    69    2
    94    71    70    1
    95    71    73   ar
    96    75    77   ar
    97    75    73   ar
    98    77    79   ar
    99    73    76   ar
   100    79    78   ar
   101    76    78   ar
