@<TRIPOS>MOLECULE
tmp/5kk7A00.pdb
 177 167 0 0 0
SMALL
GASTEIGER

@<TRIPOS>ATOM
      1  N         -6.2240  -10.8910    1.8450 N.3    85  PHE85      -0.1227
      2  CA        -5.8520   -9.5800    1.3090 C.3    85  PHE85       0.1736
      3  C         -4.3720   -9.2880    1.5360 C.2    85  PHE85       0.2595
      4  O         -3.6520   -8.8800    0.6140 O.2    85  PHE85      -0.2718
      5  CB        -6.7640   -8.5100    1.9490 C.3    85  PHE85       0.0547
      6  CG        -6.2270   -7.1130    1.8960 C.ar   85  PHE85      -0.0202
      7  CD1       -6.2670   -6.3940    0.7300 C.ar   85  PHE85      -0.0042
      8  CD2       -5.7300   -6.5150    3.0400 C.ar   85  PHE85      -0.0042
      9  CE1       -5.7890   -5.1230    0.6800 C.ar   85  PHE85      -0.0003
     10  CE2       -5.2430   -5.2400    3.0090 C.ar   85  PHE85      -0.0003
     11  CZ        -5.2770   -4.5310    1.8280 C.ar   85  PHE85      -0.0000
     12  N         -3.8970   -9.4630    2.7630 N.am   86  GLU86      -0.1979
     13  CA        -2.5000   -9.1550    3.0310 C.3    86  GLU86       0.1602
     14  C         -1.5770  -10.0800    2.2400 C.2    86  GLU86       0.2287
     15  O         -0.5630   -9.6330    1.6810 O.2    86  GLU86      -0.2864
     16  CB        -2.2240   -9.2390    4.5340 C.3    86  GLU86       0.0415
     17  CG        -2.9790   -8.2180    5.3820 C.3    86  GLU86       0.1163
     18  CD        -2.3370   -6.8400    5.3920 C.2    86  GLU86       0.3649
     19  OE1       -2.8390   -5.9770    6.1420 O.co2  86  GLU86      -0.2457
     20  OE2       -1.3260   -6.6080    4.6910 O.co2  86  GLU86      -0.2457
     21  N         -1.6610   -8.8030   -1.5450 N.3    89  ILE89      -0.1231
     22  CA        -1.0130   -7.5560   -1.9480 C.3    89  ILE89       0.1692
     23  C          0.4820   -7.6070   -1.6950 C.2    89  ILE89       0.2591
     24  O          1.2570   -7.0140   -2.4520 O.2    89  ILE89      -0.2718
     25  CB        -1.6560   -6.3280   -1.2800 C.3    89  ILE89       0.0266
     26  CG1       -1.4950   -6.2950    0.2400 C.3    89  ILE89       0.0019
     27  CG2       -3.1330   -6.2980   -1.6290 C.3    89  ILE89       0.0020
     28  CD1       -1.7890   -4.8690    0.8120 C.3    89  ILE89       0.0001
     29  N          0.9100   -8.2580   -0.6150 N.am   90  ARG90      -0.1980
     30  CA         2.3240   -8.3050   -0.2590 C.3    90  ARG90       0.1597
     31  C          3.0600   -9.4410   -0.9740 C.2    90  ARG90       0.2287
     32  O          4.0010   -9.1940   -1.7340 O.2    90  ARG90      -0.2864
     33  CB         2.4910   -8.4280    1.2590 C.3    90  ARG90       0.0334
     34  CG         1.7330   -7.3600    2.0630 C.3    90  ARG90       0.0492
     35  CD         2.4290   -7.0400    3.3750 C.3    90  ARG90       0.2205
     36  NE         1.5140   -6.4500    4.3280 N.pl3  90  ARG90      -0.0865
     37  CZ         1.8730   -5.9490    5.5020 C.cat  90  ARG90       0.5346
     38  NH1        3.1530   -5.9120    5.8470 N.pl3  90  ARG90       0.1354
     39  NH2        0.9500   -5.4900    6.3360 N.pl3  90  ARG90       0.1354
     40  N        -14.2010   -7.9470    4.9720 N.3   150  THR150     -0.1218
     41  CA       -13.9490   -6.5160    4.8680 C.3   150  THR150      0.1862
     42  C        -14.0020   -6.1080    3.3950 C.2   150  THR150      0.2287
     43  O        -13.3930   -6.7520    2.5380 O.2   150  THR150     -0.2866
     44  CB       -12.5940   -6.1650    5.5030 C.3   150  THR150      0.1770
     45  OG1      -12.6250   -6.4290    6.9170 O.3   150  THR150     -0.2211
     46  CG2      -12.2250   -4.7110    5.2920 C.3   150  THR150      0.0375
     47  N        -12.7860   -3.5860    1.5990 N.3   152  ALA152     -0.1231
     48  CA       -11.5150   -3.3020    0.9450 C.3   152  ALA152      0.1694
     49  C        -10.7280   -4.5900    0.6880 C.2   152  ALA152      0.2591
     50  O        -10.0260   -4.7100   -0.3190 O.2   152  ALA152     -0.2718
     51  CB       -10.6890   -2.3330    1.7860 C.3   152  ALA152      0.0304
     52  N        -10.8280   -5.5600    1.5950 N.am  153  GLU153     -0.1979
     53  CA       -10.0360   -6.7800    1.4640 C.3   153  GLU153      0.1602
     54  C        -10.5030   -7.6200    0.2850 C.2   153  GLU153      0.2287
     55  O         -9.6810   -8.2070   -0.4160 O.2   153  GLU153     -0.2864
     56  CB       -10.0730   -7.5750    2.7700 C.3   153  GLU153      0.0415
     57  CG        -9.3220   -6.8300    3.8590 C.3   153  GLU153      0.1163
     58  CD        -9.1090   -7.6510    5.1200 C.2   153  GLU153      0.3649
     59  OE1       -9.4250   -8.8550    5.1230 O.co2 153  GLU153     -0.2457
     60  OE2       -8.6090   -7.0500    6.0930 O.co2 153  GLU153     -0.2457
     61  N         -9.5380    2.9630    6.7170 N.3   216  ALA216     -0.1231
     62  CA        -9.4090    1.5140    6.8420 C.3   216  ALA216      0.1694
     63  C        -10.7350    0.8100    6.5600 C.2   216  ALA216      0.2591
     64  O        -11.7860    1.2420    7.0170 O.2   216  ALA216     -0.2718
     65  CB        -8.9160    1.1680    8.2460 C.3   216  ALA216      0.0304
     66  N        -10.6640   -0.2830    5.7930 N.am  217  ARG217     -0.1980
     67  CA       -11.7250   -1.2170    5.4260 C.3   217  ARG217      0.1597
     68  C        -12.4580   -0.8160    4.1510 C.2   217  ARG217      0.2287
     69  O        -13.2270   -1.6280    3.6290 O.2   217  ARG217     -0.2864
     70  CB       -12.7670   -1.4500    6.5380 C.3   217  ARG217      0.0334
     71  CG       -12.1660   -1.8620    7.8950 C.3   217  ARG217      0.0492
     72  CD       -13.2140   -2.4680    8.8230 C.3   217  ARG217      0.2205
     73  NE       -12.6720   -2.6750   10.1540 N.pl3 217  ARG217     -0.0865
     74  CZ       -13.0110   -1.9880   11.2470 C.cat 217  ARG217      0.5346
     75  NH1      -13.9150   -1.0110   11.2080 N.pl3 217  ARG217      0.1354
     76  NH2      -12.4260   -2.2910   12.4050 N.pl3 217  ARG217      0.1354
     77  N        -10.9230    2.1260    1.8900 N.3   219  ASP219     -0.1225
     78  CA       -10.0260    2.9110    1.0450 C.3   219  ASP219      0.1805
     79  C         -9.6530    2.2530   -0.2890 C.2   219  ASP219      0.2598
     80  O         -9.8650    2.8430   -1.3560 O.2   219  ASP219     -0.2718
     81  CB        -8.7550    3.2500    1.8390 C.3   219  ASP219      0.1424
     82  CG        -8.0990    2.0190    2.4780 C.2   219  ASP219      0.3668
     83  OD1       -7.1300    2.2420    3.1970 O.co2 219  ASP219     -0.2456
     84  OD2       -8.5570    0.8500    2.2920 O.co2 219  ASP219     -0.2456
     85  N         -9.0760    1.0440   -0.2740 N.am  220  SER220     -0.1952
     86  CA        -8.5030    0.5570   -1.5220 C.3   220  SER220      0.1924
     87  C         -9.5410   -0.0120   -2.4890 C.2   220  SER220      0.2314
     88  O         -9.2070   -0.2760   -3.6430 O.2   220  SER220     -0.2863
     89  CB        -7.3780   -0.4740   -1.2550 C.3   220  SER220      0.2116
     90  OG        -7.7310   -1.4780   -0.3030 O.3   220  SER220     -0.2180
     91  N         -9.3020    2.8240   -4.8850 N.3   223  GLU223     -0.1245
     92  CA        -8.0070    2.7390   -5.5530 C.3   223  GLU223      0.1567
     93  C         -8.0130    1.6440   -6.6160 C.2   223  GLU223      0.2260
     94  O         -7.5460    1.8580   -7.7400 O.2   223  GLU223     -0.2867
     95  CB        -6.9210    2.5020   -4.4830 C.3   223  GLU223      0.0388
     96  CG        -5.5270    2.2100   -4.9760 C.3   223  GLU223      0.1160
     97  CD        -4.6360    1.7210   -3.8520 C.2   223  GLU223      0.3649
     98  OE1       -3.4830    1.3790   -4.1470 O.co2 223  GLU223     -0.2457
     99  OE2       -5.1200    1.7070   -2.6730 O.co2 223  GLU223     -0.2457
    100  N         -4.2750    6.5330    6.2530 N.3   281  LEU281     -0.1245
    101  CA        -4.5880    5.7250    5.0740 C.3   281  LEU281      0.1561
    102  C         -5.2740    6.5360    3.9870 C.2   281  LEU281      0.2260
    103  O         -5.1030    6.2540    2.7960 O.2   281  LEU281     -0.2867
    104  CB        -5.4900    4.5540    5.4720 C.3   281  LEU281      0.0270
    105  CG        -4.9310    3.5080    6.4410 C.3   281  LEU281      0.0019
    106  CD1       -6.0520    2.5750    6.8660 C.3   281  LEU281      0.0001
    107  CD2       -3.7980    2.7630    5.7660 C.3   281  LEU281      0.0001
    108  N          4.4200    4.4010    7.5590 N.3   353  ARG353     -0.1231
    109  CA         3.4750    4.1700    6.4760 C.3   353  ARG353      0.1679
    110  C          3.7790    5.0380    5.2460 C.2   353  ARG353      0.2434
    111  O          4.3000    6.1480    5.3600 O.2   353  ARG353     -0.2733
    112  CB         2.0470    4.4450    6.9360 C.3   353  ARG353      0.0321
    113  CG         1.4540    3.3700    7.8680 C.3   353  ARG353      0.0489
    114  CD        -0.0510    3.5300    8.0200 C.3   353  ARG353      0.2205
    115  NE        -0.6270    2.7950    9.1460 N.pl3 353  ARG353     -0.0865
    116  CZ        -1.1040    1.5460    9.0980 C.cat 353  ARG353      0.5346
    117  NH1       -1.0730    0.8280    7.9770 N.pl3 353  ARG353      0.1354
    118  NH2       -1.6220    1.0110   10.1980 N.pl3 353  ARG353      0.1354
    119  N          3.3980    4.5520    4.0530 N.am  354  PRO354     -0.2718
    120  CA         3.8280    5.1640    2.7930 C.3   354  PRO354      0.1535
    121  C          2.8740    6.1640    2.1560 C.2   354  PRO354      0.2598
    122  O          3.2500    6.7730    1.1560 O.2   354  PRO354     -0.2715
    123  CB         3.9370    3.9400    1.8780 C.3   354  PRO354      0.0310
    124  CG         2.7820    3.1250    2.3150 C.3   354  PRO354      0.0237
    125  CD         2.7700    3.2410    3.8130 C.3   354  PRO354      0.0939
    126  N          1.6480    6.3220    2.6550 N.am  355  GLU355     -0.1978
    127  CA         0.5970    6.9100    1.8100 C.3   355  GLU355      0.1602
    128  C          0.9030    8.3550    1.4020 C.2   355  GLU355      0.2287
    129  O          0.5760    8.7660    0.2830 O.2   355  GLU355     -0.2864
    130  CB        -0.7600    6.8440    2.5080 C.3   355  GLU355      0.0415
    131  CG        -1.4130    5.4470    2.5410 C.3   355  GLU355      0.1163
    132  CD        -0.8710    4.5720    3.6600 C.2   355  GLU355      0.3649
    133  OE1       -1.1830    3.3550    3.6750 O.co2 355  GLU355     -0.2457
    134  OE2       -0.1280    5.0930    4.5050 O.co2 355  GLU355     -0.2457
    135  N          3.6920    8.0450   -1.2560 N.3   358  GLU358     -0.1245
    136  CA         3.0030    7.4730   -2.4110 C.3   358  GLU358      0.1567
    137  C          2.3320    8.5540   -3.2450 C.2   358  GLU358      0.2260
    138  O          2.5130    8.6310   -4.4670 O.2   358  GLU358     -0.2867
    139  CB         1.9630    6.4630   -1.9200 C.3   358  GLU358      0.0388
    140  CG         1.0740    5.8640   -3.0050 C.3   358  GLU358      0.1160
    141  CD         0.0400    4.9080   -2.4280 C.2   358  GLU358      0.3649
    142  OE1       -0.7840    4.3720   -3.1910 O.co2 358  GLU358     -0.2457
    143  OE2        0.0560    4.7060   -1.1940 O.co2 358  GLU358     -0.2457
    144  N          6.2290   -2.8390    4.7000 N.3   415  PHE415     -0.1241
    145  CA         5.9330   -1.8000    3.7280 C.3   415  PHE415      0.1605
    146  C          6.8590   -0.5950    3.8250 C.2   415  PHE415      0.2264
    147  O          6.8600    0.2230    2.9070 O.2   415  PHE415     -0.2867
    148  CB         4.4570   -1.3510    3.8160 C.3   415  PHE415      0.0534
    149  CG         3.9640   -1.0530    5.1920 C.ar  415  PHE415     -0.0203
    150  CD1        4.3670    0.0870    5.8480 C.ar  415  PHE415     -0.0042
    151  CD2        3.0220   -1.8800    5.7900 C.ar  415  PHE415     -0.0042
    152  CE1        3.8830    0.4040    7.1050 C.ar  415  PHE415     -0.0003
    153  CE2        2.5300   -1.6010    7.0580 C.ar  415  PHE415     -0.0003
    154  CZ         2.9600   -0.4470    7.7200 C.ar  415  PHE415     -0.0000
    155  N          7.3220   -0.1820    0.1720 N.3   419  GLU419     -0.1245
    156  CA         6.5890    0.9790   -0.3290 C.3   419  GLU419      0.1567
    157  C          7.2810    2.3050   -0.0610 C.2   419  GLU419      0.2260
    158  O          7.5290    3.0580   -0.9960 O.2   419  GLU419     -0.2867
    159  CB         5.1960    1.0350    0.3000 C.3   419  GLU419      0.0388
    160  CG         4.3720   -0.1900    0.1060 C.3   419  GLU419      0.1160
    161  CD         2.8940    0.1050    0.2950 C.2   419  GLU419      0.3649
    162  OE1        2.3830    1.0000   -0.4330 O.co2 419  GLU419     -0.2457
    163  OE2        2.2750   -0.5560    1.1460 O.co2 419  GLU419     -0.2457
    164  N         -1.5640   -2.3860   -4.2610 N.3   444  ALA444     -0.1231
    165  CA        -1.7830   -1.7340   -2.9670 C.3   444  ALA444      0.1694
    166  C         -0.5310   -1.6780   -2.0970 C.2   444  ALA444      0.2591
    167  O         -0.5350   -0.9630   -1.0920 O.2   444  ALA444     -0.2718
    168  CB        -2.8790   -2.4470   -2.2010 C.3   444  ALA444      0.0304
    169  N          0.5120   -2.4380   -2.4370 N.am  445  GLU445     -0.1979
    170  CA         1.7670   -2.4990   -1.6870 C.3   445  GLU445      0.1602
    171  C          2.9440   -2.1210   -2.5950 C.2   445  GLU445      0.2287
    172  O          4.0490   -2.6520   -2.4680 O.2   445  GLU445     -0.2864
    173  CB         1.9550   -3.8980   -1.0780 C.3   445  GLU445      0.0415
    174  CG         3.0840   -4.0280   -0.0610 C.3   445  GLU445      0.1163
    175  CD         2.6390   -4.0210    1.3970 C.2   445  GLU445      0.3649
    176  OE1        1.4470   -3.8340    1.6450 O.co2 445  GLU445     -0.2457
    177  OE2        3.4940   -4.2150    2.3040 O.co2 445  GLU445     -0.2457
@<TRIPOS>BOND
     1    94    93    2
     2    93    92    1
     3    92    91    1
     4    92    95    1
     5    96    95    1
     6    96    97    1
     7   138   137    2
     8   164   165    1
     9    98    97   ar
    10    97    99   ar
    11    88    87    2
    12   137   136    1
    13   142   141   ar
    14   140   141    1
    15   140   139    1
    16   165   168    1
    17   165   166    1
    18   171   172    2
    19   171   170    1
    20    87    86    1
    21    24    23    2
    22   169   166   am
    23   169   170    1
    24   141   143   ar
    25   136   139    1
    26   136   135    1
    27   166   167    2
    28    22    23    1
    29    22    21    1
    30    22    25    1
    31    32    31    2
    32    23    29   am
    33   170   173    1
    34    27    25    1
    35    86    89    1
    36    86    85    1
    37    80    79    2
    38    25    26    1
    39    89    90    1
    40   173   174    1
    41   158   157    2
    42    31    30    1
    43    29    30    1
    44   162   161   ar
    45    55    54    2
    46   156   157    1
    47   156   155    1
    48   156   159    1
    49    50    49    2
    50    79    85   am
    51    79    78    1
    52    30    33    1
    53   174   175    1
    54   160   161    1
    55   160   159    1
    56    26    28    1
    57   129   128    2
    58    54    53    1
    59   161   163   ar
    60     4     3    2
    61     9     7   ar
    62     9    11   ar
    63    49    48    1
    64    49    52   am
    65     7     6   ar
    66    48    47    1
    67    48    51    1
    68    78    81    1
    69    78    77    1
    70   122   121    2
    71    33    34    1
    72     2     3    1
    73     2     1    1
    74     2     5    1
    75   175   176   ar
    76   175   177   ar
    77   128   127    1
    78    53    52    1
    79    53    56    1
    80     3    12   am
    81    15    14    2
    82   127   130    1
    83   127   126    1
    84    11    10   ar
    85    81    82    1
    86   123   124    1
    87   123   120    1
    88     6     5    1
    89     6     8   ar
    90    34    35    1
    91   121   126   am
    92   121   120    1
    93    14    13    1
    94    84    82   ar
    95   124   125    1
    96    82    83   ar
    97   130   131    1
    98    43    42    2
    99   131   132    1
   100    12    13    1
   101    56    57    1
   102   120   119    1
   103   103   102    2
   104   147   146    2
   105    10     8   ar
   106    13    16    1
   107    35    36    1
   108    42    41    1
   109    69    68    2
   110   132   133   ar
   111   132   134   ar
   112   145   148    1
   113   145   146    1
   114   145   144    1
   115   125   119    1
   116   148   149    1
   117    57    58    1
   118   102   101    1
   119   119   110   am
   120    68    67    1
   121    36    37    2
   122    16    17    1
   123    20    18   ar
   124    41    40    1
   125    41    44    1
   126   101   104    1
   127   101   100    1
   128    58    59   ar
   129    58    60   ar
   130   149   151   ar
   131   149   150   ar
   132   110   111    2
   133   110   109    1
   134    46    44    1
   135    17    18    1
   136    18    19   ar
   137    67    66    1
   138    67    70    1
   139   104   105    1
   140    37    38    1
   141    37    39    1
   142    44    45    1
   143   107   105    1
   144   151   153   ar
   145    66    63   am
   146   150   152   ar
   147   105   106    1
   148   109   112    1
   149   109   108    1
   150    70    71    1
   151    63    62    1
   152    63    64    2
   153    61    62    1
   154    62    65    1
   155   112   113    1
   156   153   154   ar
   157   152   154   ar
   158   113   114    1
   159    71    72    1
   160   117   116    1
   161   114   115    1
   162    72    73    1
   163   116   115    2
   164   116   118    1
   165    73    74    2
   166    75    74    1
   167    74    76    1
