@<TRIPOS>MOLECULE
tmp/5kk8B00.pdb
 136 127 0 0 0
SMALL
GASTEIGER

@<TRIPOS>ATOM
      1  N         73.7050  103.4540    8.4670 N.3     9  LYS9       -0.1245
      2  CA        72.8880  102.2940    8.7830 C.3     9  LYS9        0.1561
      3  C         71.9250  102.0160    7.6420 C.2     9  LYS9        0.2260
      4  O         71.6950  102.8780    6.7960 O.2     9  LYS9       -0.2867
      5  CB        72.1190  102.5390   10.0810 C.3     9  LYS9        0.0271
      6  CG        73.0200  102.8730   11.2790 C.3     9  LYS9        0.0035
      7  CD        72.1900  103.2880   12.4990 C.3     9  LYS9        0.0206
      8  CE        72.8670  102.9000   13.7990 C.3     9  LYS9        0.1093
      9  NZ        72.0030  103.2050   14.9790 N.3     9  LYS9       -0.1314
     10  N         78.7020   95.5980   18.4460 N.3    49  TYR49      -0.1241
     11  CA        77.8260   96.0120   19.5360 C.3    49  TYR49       0.1605
     12  C         78.0480   95.1960   20.8090 C.2    49  TYR49       0.2264
     13  O         77.1070   94.9900   21.5810 O.2    49  TYR49      -0.2867
     14  CB        76.3640   95.9180   19.1010 C.3    49  TYR49       0.0534
     15  CG        75.9440   96.9760   18.1100 C.ar   49  TYR49      -0.0201
     16  CD1       75.9750   98.3210   18.4540 C.ar   49  TYR49      -0.0009
     17  CD2       75.5100   96.6310   16.8330 C.ar   49  TYR49      -0.0009
     18  CE1       75.5830   99.2820   17.5750 C.ar   49  TYR49       0.0417
     19  CE2       75.1170   97.5950   15.9310 C.ar   49  TYR49       0.0417
     20  CZ        75.1560   98.9180   16.3090 C.ar   49  TYR49       0.1957
     21  OH        74.7720   99.8910   15.4320 O.3    49  TYR49      -0.2866
     22  N         76.5680   95.9950   24.2380 N.3    52  LEU52      -0.1245
     23  CA        75.1250   95.9080   24.4080 C.3    52  LEU52       0.1561
     24  C         74.6220   94.4680   24.4440 C.2    52  LEU52       0.2260
     25  O         73.4050   94.2490   24.4140 O.2    52  LEU52      -0.2867
     26  CB        74.4200   96.6740   23.2800 C.3    52  LEU52       0.0270
     27  CG        74.8230   98.1340   23.0550 C.3    52  LEU52       0.0019
     28  CD1       74.1330   98.6820   21.8200 C.3    52  LEU52       0.0001
     29  CD2       74.4790   98.9730   24.2950 C.3    52  LEU52       0.0001
     30  N         67.1590   94.5130   23.6230 N.3    57  PHE57      -0.1241
     31  CA        66.9910   94.8000   22.1990 C.3    57  PHE57       0.1605
     32  C         68.1730   94.3450   21.3530 C.2    57  PHE57       0.2264
     33  O         68.1700   94.5700   20.1370 O.2    57  PHE57      -0.2867
     34  CB        66.7650   96.3000   21.9760 C.3    57  PHE57       0.0534
     35  CG        67.8650   97.1750   22.5370 C.ar   57  PHE57      -0.0203
     36  CD1       68.9850   97.4740   21.7820 C.ar   57  PHE57      -0.0042
     37  CD2       67.7680   97.7040   23.8160 C.ar   57  PHE57      -0.0042
     38  CE1       69.9880   98.2720   22.2910 C.ar   57  PHE57      -0.0003
     39  CE2       68.7660   98.5080   24.3260 C.ar   57  PHE57      -0.0003
     40  CZ        69.8780   98.7900   23.5650 C.ar   57  PHE57      -0.0000
     41  N         67.3270   92.0370   18.2500 N.3    60  LYS60      -0.1231
     42  CA        66.5710   92.7970   17.2620 C.3    60  LYS60       0.1693
     43  C         67.4640   93.7930   16.5200 C.2    60  LYS60       0.2591
     44  O         67.3700   93.9340   15.2920 O.2    60  LYS60      -0.2718
     45  CB        65.4140   93.5030   17.9640 C.3    60  LYS60       0.0285
     46  CG        64.3920   94.1430   17.0630 C.3    60  LYS60       0.0035
     47  CD        63.4580   95.0160   17.8900 C.3    60  LYS60       0.0206
     48  CE        64.2520   96.0160   18.7410 C.3    60  LYS60       0.1093
     49  NZ        63.3850   97.0110   19.4470 N.3    60  LYS60      -0.1314
     50  N         68.3350   94.4950   17.2460 N.am   61  LEU61      -0.1980
     51  CA        69.2560   95.4330   16.6120 C.3    61  LEU61       0.1596
     52  C         70.1960   94.7150   15.6530 C.2    61  LEU61       0.2287
     53  O         70.4330   95.1760   14.5280 O.2    61  LEU61      -0.2864
     54  CB        70.0520   96.1810   17.6860 C.3    61  LEU61       0.0297
     55  CG        71.3160   96.9580   17.2920 C.3    61  LEU61       0.0022
     56  CD1       70.9640   98.1560   16.4170 C.3    61  LEU61       0.0001
     57  CD2       72.0750   97.3900   18.5550 C.3    61  LEU61       0.0001
     58  N         80.3380  113.1200   17.4120 N.3    85  ARG85      -0.1245
     59  CA        79.1590  112.8970   18.2410 C.3    85  ARG85       0.1563
     60  C         78.2350  114.1050   18.2060 C.2    85  ARG85       0.2260
     61  O         77.0100  113.9570   18.1270 O.2    85  ARG85      -0.2867
     62  CB        79.5660  112.5880   19.6820 C.3    85  ARG85       0.0307
     63  CG        80.3890  111.3250   19.8430 C.3    85  ARG85       0.0489
     64  CD        79.5550  110.0710   19.5750 C.3    85  ARG85       0.2205
     65  NE        78.6290  109.7650   20.6670 N.pl3  85  ARG85      -0.0865
     66  CZ        77.9080  108.6510   20.7440 C.cat  85  ARG85       0.5346
     67  NH1       78.0060  107.7330   19.7930 N.pl3  85  ARG85       0.1354
     68  NH2       77.0940  108.4500   21.7730 N.pl3  85  ARG85       0.1354
     69  N         71.2880  110.2580   20.5400 N.3    91  THR91      -0.1203
     70  CA        70.8540  108.9440   20.0760 C.3    91  THR91       0.1994
     71  C         69.3520  108.9070   19.8430 C.2    91  THR91       0.2617
     72  O         68.8830  108.3720   18.8320 O.2    91  THR91      -0.2717
     73  CB        71.2450  107.8790   21.0980 C.3    91  THR91       0.1784
     74  OG1       72.6640  107.9140   21.3100 O.3    91  THR91      -0.2211
     75  CG2       70.8090  106.4990   20.6120 C.3    91  THR91       0.0376
     76  N         68.5820  109.4450   20.7870 N.am   92  LYS92      -0.1979
     77  CA        67.1450  109.6040   20.6000 C.3    92  LYS92       0.1596
     78  C         66.8850  110.8610   19.7790 C.2    92  LYS92       0.2287
     79  O         67.2000  111.9640   20.2420 O.2    92  LYS92      -0.2864
     80  CB        66.4310  109.7000   21.9420 C.3    92  LYS92       0.0298
     81  CG        66.6090  108.4810   22.8350 C.3    92  LYS92       0.0038
     82  CD        65.7520  108.5910   24.0880 C.3    92  LYS92       0.0206
     83  CE        65.5960  107.2340   24.7760 C.3    92  LYS92       0.1093
     84  NZ        66.9050  106.5350   24.9570 N.3    92  LYS92      -0.1314
     85  N         70.5970  113.6480   13.2530 N.3   102  ARG102     -0.1245
     86  CA        69.3790  113.0240   13.7510 C.3   102  ARG102      0.1563
     87  C         68.2730  114.0480   13.9760 C.2   102  ARG102      0.2260
     88  O         67.0950  113.7300   13.7890 O.2   102  ARG102     -0.2867
     89  CB        69.6890  112.2290   15.0150 C.3   102  ARG102      0.0307
     90  CG        70.4590  110.9630   14.6780 C.3   102  ARG102      0.0489
     91  CD        71.2140  110.4560   15.8510 C.3   102  ARG102      0.2205
     92  NE        71.9040  109.2150   15.5500 N.pl3 102  ARG102     -0.0865
     93  CZ        72.7590  108.6480   16.3890 C.cat 102  ARG102      0.5346
     94  NH1       73.0050  109.2330   17.5530 N.pl3 102  ARG102      0.1354
     95  NH2       73.3580  107.5050   16.0780 N.pl3 102  ARG102      0.1354
     96  N         64.5700  106.3030   17.5250 N.3   109  VAL109     -0.1231
     97  CA        65.8720  105.8000   17.9630 C.3   109  VAL109      0.1692
     98  C         66.2500  104.5310   17.2100 C.2   109  VAL109      0.2592
     99  O         67.4300  104.2930   16.9300 O.2   109  VAL109     -0.2718
    100  CB        65.8670  105.5720   19.4930 C.3   109  VAL109      0.0266
    101  CG1       64.8000  104.5560   19.8870 C.3   109  VAL109      0.0020
    102  CG2       67.2200  105.0990   19.9580 C.3   109  VAL109      0.0020
    103  N         65.2710  103.6990   16.8630 N.am  110  GLY110     -0.1957
    104  CA        65.5870  102.4860   16.1290 C.3   110  GLY110      0.1869
    105  C         65.8710  102.6880   14.6560 C.2   110  GLY110      0.2309
    106  O         66.2570  101.7340   13.9770 O.2   110  GLY110     -0.2863
    107  N         67.8080  105.6730   13.2410 N.3   112  ASN112     -0.1240
    108  CA        68.5130  106.9390   13.4200 C.3   112  ASN112      0.1653
    109  C         69.7290  107.0720   12.5030 C.2   112  ASN112      0.2266
    110  O         70.6930  107.7630   12.8360 O.2   112  ASN112     -0.2867
    111  CB        68.8960  107.1430   14.8920 C.3   112  ASN112      0.1155
    112  CG        69.9390  106.1580   15.3910 C.2   112  ASN112      0.2627
    113  OD1       70.2600  105.1640   14.7370 O.2   112  ASN112     -0.2716
    114  ND2       70.4770  106.4390   16.5770 N.am  112  ASN112     -0.0877
    115  N         75.7750  105.6400   12.7070 N.3   115  HIS115     -0.1226
    116  CA        76.5070  105.3260   13.9260 C.3   115  HIS115      0.1752
    117  C         77.7960  106.1390   13.9740 C.2   115  HIS115      0.2596
    118  O         78.3940  106.4420   12.9370 O.2   115  HIS115     -0.2718
    119  CB        76.8530  103.8340   14.0060 C.3   115  HIS115      0.0759
    120  CG        77.9170  103.5190   15.0100 C.ar  115  HIS115      0.0818
    121  ND1       77.6290  103.1400   16.3030 N.ar  115  HIS115     -0.2268
    122  CD2       79.2700  103.5470   14.9180 C.ar  115  HIS115      0.1154
    123  CE1       78.7580  102.9480   16.9640 C.ar  115  HIS115      0.1986
    124  NE2       79.7690  103.1850   16.1460 N.ar  115  HIS115     -0.2212
    125  N         78.2240  106.4910   15.1860 N.am  116  GLY116     -0.1957
    126  CA        79.4900  107.1790   15.3700 C.3   116  GLY116      0.1869
    127  C         80.2070  106.7300   16.6310 C.2   116  GLY116      0.2309
    128  O         79.5690  106.4710   17.6540 O.2   116  GLY116     -0.2863
    129  N         81.9890  106.7200   20.1230 N.3   118  ASP118     -0.1239
    130  CA        81.7070  107.5790   21.2670 C.3   118  ASP118      0.1674
    131  C         82.9420  107.9270   22.0920 C.2   118  ASP118      0.2266
    132  O         82.8390  108.7650   22.9950 O.2   118  ASP118     -0.2867
    133  CB        80.6380  106.9350   22.1680 C.3   118  ASP118      0.1410
    134  CG        81.1670  105.7660   22.9730 C.2   118  ASP118      0.3668
    135  OD1       82.3100  105.3290   22.7300 O.co2 118  ASP118     -0.2456
    136  OD2       80.4270  105.2690   23.8530 O.co2 118  ASP118     -0.2456
@<TRIPOS>BOND
     1     4     3    2
     2     3     2    1
     3     1     2    1
     4     2     5    1
     5     5     6    1
     6     6     7    1
     7     7     8    1
     8   109   110    2
     9   109   108    1
    10   115   116    1
    11   118   117    2
    12   107   108    1
    13    85    86    1
    14   108   111    1
    15    86    87    1
    16    86    89    1
    17    88    87    2
    18     8     9    1
    19   116   117    1
    20   116   119    1
    21   117   125   am
    22   106   105    2
    23   119   120    1
    24    53    52    2
    25   105   104    1
    26    90    89    1
    27    90    91    1
    28   113   112    2
    29   111   112    1
    30   122   120   ar
    31   122   124   ar
    32   120   121   ar
    33   125   126    1
    34    44    43    2
    35   126   127    1
    36   112   114   am
    37    21    20    1
    38    92    91    1
    39    92    93    2
    40    52    51    1
    41    19    20   ar
    42    19    17   ar
    43    95    93    1
    44   104   103    1
    45   124   123   ar
    46   121   123   ar
    47    20    18   ar
    48    93    94    1
    49    56    55    1
    50    43    50   am
    51    43    42    1
    52    51    50    1
    53    51    54    1
    54   127   128    2
    55    17    15   ar
    56   103    98   am
    57    99    98    2
    58    46    47    1
    59    46    45    1
    60    98    97    1
    61    42    45    1
    62    42    41    1
    63    55    54    1
    64    55    57    1
    65    58    59    1
    66    96    97    1
    67    18    16   ar
    68    47    48    1
    69    97   100    1
    70    15    16   ar
    71    15    14    1
    72    61    60    2
    73    60    59    1
    74    59    62    1
    75    10    11    1
    76    48    49    1
    77    72    71    2
    78    14    11    1
    79   100   101    1
    80   100   102    1
    81    11    12    1
    82    64    63    1
    83    64    65    1
    84    62    63    1
    85    78    79    2
    86    78    77    1
    87    67    66    1
    88    71    70    1
    89    71    76   am
    90    70    69    1
    91    70    73    1
    92   129   130    1
    93    33    32    2
    94    77    76    1
    95    77    80    1
    96    75    73    1
    97    65    66    2
    98    66    68    1
    99    12    13    2
   100    73    74    1
   101   130   131    1
   102   130   133    1
   103    32    31    1
   104    36    38   ar
   105    36    35   ar
   106    28    27    1
   107    80    81    1
   108    34    31    1
   109    34    35    1
   110   131   132    2
   111   133   134    1
   112    31    30    1
   113    38    40   ar
   114    35    37   ar
   115   135   134   ar
   116    81    82    1
   117   134   136   ar
   118    27    26    1
   119    27    29    1
   120    26    23    1
   121    40    39   ar
   122    37    39   ar
   123    82    83    1
   124    22    23    1
   125    23    24    1
   126    25    24    2
   127    83    84    1
