@<TRIPOS>MOLECULE
tmp/5kkbA04.pdb
 108 101 0 0 0
SMALL
GASTEIGER

@<TRIPOS>ATOM
      1  N         49.9190   20.0540    2.1350 N.3    59  LEU59      -0.1245
      2  CA        51.0190   20.5360    2.9700 C.3    59  LEU59       0.1561
      3  C         51.1300   22.0590    2.9470 C.2    59  LEU59       0.2260
      4  O         51.6380   22.6670    3.8970 O.2    59  LEU59      -0.2867
      5  CB        52.3400   19.9090    2.5080 C.3    59  LEU59       0.0270
      6  CG        52.4480   18.3760    2.5950 C.3    59  LEU59       0.0019
      7  CD1       53.7620   17.8650    1.9890 C.3    59  LEU59       0.0001
      8  CD2       52.2900   17.8760    4.0330 C.3    59  LEU59       0.0001
      9  N         56.8910   22.5260    8.8890 N.3   106  PHE106     -0.1227
     10  CA        58.1680   22.0890    8.3260 C.3   106  PHE106      0.1736
     11  C         58.2700   22.4390    6.8420 C.2   106  PHE106      0.2595
     12  O         59.2430   23.0640    6.3980 O.2   106  PHE106     -0.2718
     13  CB        58.3160   20.5730    8.5470 C.3   106  PHE106      0.0547
     14  CG        59.3700   19.9020    7.6840 C.ar  106  PHE106     -0.0202
     15  CD1       60.7270   20.0470    7.9700 C.ar  106  PHE106     -0.0042
     16  CD2       59.0010   19.0830    6.6160 C.ar  106  PHE106     -0.0042
     17  CE1       61.6950   19.4090    7.1890 C.ar  106  PHE106     -0.0003
     18  CE2       59.9650   18.4430    5.8290 C.ar  106  PHE106     -0.0003
     19  CZ        61.3130   18.6080    6.1040 C.ar  106  PHE106     -0.0000
     20  N         57.2640   22.0580    6.0660 N.am  107  GLU107     -0.1979
     21  CA        57.3270   22.2900    4.6250 C.3   107  GLU107      0.1602
     22  C         57.3400   23.7750    4.2950 C.2   107  GLU107      0.2287
     23  O         58.1100   24.2150    3.4320 O.2   107  GLU107     -0.2864
     24  CB        56.1570   21.5790    3.9470 C.3   107  GLU107      0.0415
     25  CG        56.2280   20.0510    4.0580 C.3   107  GLU107      0.1163
     26  CD        57.2520   19.4230    3.1130 C.2   107  GLU107      0.3649
     27  OE1       57.8410   20.1580    2.2880 O.co2 107  GLU107     -0.2457
     28  OE2       57.4480   18.1830    3.1890 O.co2 107  GLU107     -0.2457
     29  N         60.8390   17.2740   11.4840 N.3   176  GLU176     -0.1245
     30  CA        60.0280   18.4650   11.2420 C.3   176  GLU176      0.1567
     31  C         60.3890   19.5880   12.2060 C.2   176  GLU176      0.2260
     32  O         60.6820   20.7090   11.7680 O.2   176  GLU176     -0.2867
     33  CB        58.5420   18.1150   11.3070 C.3   176  GLU176      0.0388
     34  CG        58.1920   17.0950   10.1990 C.3   176  GLU176      0.1160
     35  CD        56.7110   16.9440    9.9580 C.2   176  GLU176      0.3649
     36  OE1       56.3380   16.2650    8.9730 O.co2 176  GLU176     -0.2457
     37  OE2       55.9120   17.4850   10.7480 O.co2 176  GLU176     -0.2457
     38  N         63.7590    9.3000    6.1950 N.3   237  GLY237     -0.1210
     39  CA        62.5620   10.0930    6.4400 C.3   237  GLY237      0.1956
     40  C         62.1820   10.1140    7.9060 C.2   237  GLY237      0.2611
     41  O         62.3650    9.1100    8.6050 O.2   237  GLY237     -0.2717
     42  N         61.6880   11.2560    8.3820 N.am  238  LEU238     -0.1979
     43  CA        61.2590   11.5490    9.7540 C.3   238  LEU238      0.1596
     44  C         62.4220   11.9050   10.6840 C.2   238  LEU238      0.2287
     45  O         62.1710   12.4380   11.7800 O.2   238  LEU238     -0.2864
     46  CB        60.4450   10.4090   10.3970 C.3   238  LEU238      0.0297
     47  CG        59.2310    9.9110    9.5970 C.3   238  LEU238      0.0022
     48  CD1       58.4180    8.8810   10.4010 C.3   238  LEU238      0.0001
     49  CD2       58.3560   11.0670    9.1450 C.3   238  LEU238      0.0001
     50  N         65.9230    8.7650    0.8640 N.3   301  LEU301     -0.1245
     51  CA        66.1020    9.9250    1.7450 C.3   301  LEU301      0.1561
     52  C         67.3830    9.8190    2.5580 C.2   301  LEU301      0.2260
     53  O         68.0660   10.8250    2.7860 O.2   301  LEU301     -0.2867
     54  CB        64.9010   10.0660    2.6820 C.3   301  LEU301      0.0270
     55  CG        63.6220   10.5070    1.9700 C.3   301  LEU301      0.0019
     56  CD1       62.4080   10.3280    2.8670 C.3   301  LEU301      0.0001
     57  CD2       63.7510   11.9690    1.5110 C.3   301  LEU301      0.0001
     58  N         62.5570    4.2150   -3.6870 N.3   349  GLU349     -0.1245
     59  CA        62.3730    4.9490   -2.4380 C.3   349  GLU349      0.1567
     60  C         63.0490    4.2530   -1.2620 C.2   349  GLU349      0.2260
     61  O         63.5100    4.9230   -0.3300 O.2   349  GLU349     -0.2867
     62  CB        60.8800    5.1470   -2.1660 C.3   349  GLU349      0.0388
     63  CG        60.5730    5.9160   -0.8870 C.3   349  GLU349      0.1160
     64  CD        61.0120    7.3710   -0.9370 C.2   349  GLU349      0.3649
     65  OE1       61.2900    7.9000   -2.0470 O.co2 349  GLU349     -0.2457
     66  OE2       61.0750    7.9990    0.1530 O.co2 349  GLU349     -0.2457
     67  N         59.1020    3.4150   -6.2340 N.3   368  TYR368     -0.1241
     68  CA        58.8550    4.6580   -6.9480 C.3   368  TYR368      0.1605
     69  C         60.0320    5.6280   -6.8210 C.2   368  TYR368      0.2264
     70  O         60.9090    5.4810   -5.9650 O.2   368  TYR368     -0.2867
     71  CB        57.5600    5.3140   -6.4550 C.3   368  TYR368      0.0534
     72  CG        57.5540    5.7880   -5.0080 C.ar  368  TYR368     -0.0201
     73  CD1       58.0790    7.0280   -4.6660 C.ar  368  TYR368     -0.0009
     74  CD2       56.9700    5.0220   -4.0090 C.ar  368  TYR368     -0.0009
     75  CE1       58.0580    7.4910   -3.3470 C.ar  368  TYR368      0.0417
     76  CE2       56.9410    5.4750   -2.6870 C.ar  368  TYR368      0.0417
     77  CZ        57.4840    6.7070   -2.3760 C.ar  368  TYR368      0.1957
     78  OH        57.4560    7.1690   -1.0720 O.3   368  TYR368     -0.2866
     79  N         60.2130    9.9050   -6.9800 N.3   370  ILE370     -0.1245
     80  CA        59.4480   11.1370   -7.1640 C.3   370  ILE370      0.1561
     81  C         60.3900   12.3280   -7.3110 C.2   370  ILE370      0.2260
     82  O         60.2300   13.3510   -6.6290 O.2   370  ILE370     -0.2867
     83  CB        58.4190   11.3620   -6.0320 C.3   370  ILE370      0.0252
     84  CG1       59.0450   11.2550   -4.6370 C.3   370  ILE370      0.0019
     85  CG2       57.2600   10.3790   -6.1570 C.3   370  ILE370      0.0019
     86  CD1       58.1530   11.8780   -3.5340 C.3   370  ILE370      0.0001
     87  N         63.4510   12.8980   -6.5640 N.3   372  ARG372     -0.1245
     88  CA        64.1100   13.3260   -5.3370 C.3   372  ARG372      0.1563
     89  C         65.5760   13.6870   -5.5730 C.2   372  ARG372      0.2260
     90  O         66.2140   13.1680   -6.4950 O.2   372  ARG372     -0.2867
     91  CB        64.0410   12.2250   -4.2940 C.3   372  ARG372      0.0307
     92  CG        62.7010   12.0410   -3.6340 C.3   372  ARG372      0.0489
     93  CD        62.9650   11.3580   -2.2880 C.3   372  ARG372      0.2205
     94  NE        61.7980   10.7150   -1.6990 N.pl3 372  ARG372     -0.0865
     95  CZ        60.8670   11.3610   -1.0010 C.cat 372  ARG372      0.5346
     96  NH1       60.9370   12.6850   -0.8520 N.pl3 372  ARG372      0.1354
     97  NH2       59.8600   10.6840   -0.4670 N.pl3 372  ARG372      0.1354
     98  N         60.5750   20.5300   -5.4150 N.3   432  PHE432     -0.1241
     99  CA        61.9830   20.3250   -5.0840 C.3   432  PHE432      0.1605
    100  C         62.8020   19.8130   -6.2740 C.2   432  PHE432      0.2264
    101  O         64.0350   19.8330   -6.2130 O.2   432  PHE432     -0.2867
    102  CB        62.1440   19.4050   -3.8440 C.3   432  PHE432      0.0534
    103  CG        61.4360   18.0520   -3.9340 C.ar  432  PHE432     -0.0203
    104  CD1       61.8860   17.0560   -4.8010 C.ar  432  PHE432     -0.0042
    105  CD2       60.3660   17.7630   -3.0900 C.ar  432  PHE432     -0.0042
    106  CE1       61.2580   15.8100   -4.8630 C.ar  432  PHE432     -0.0003
    107  CE2       59.7300   16.5230   -3.1250 C.ar  432  PHE432     -0.0003
    108  CZ        60.1750   15.5330   -4.0150 C.ar  432  PHE432     -0.0000
@<TRIPOS>BOND
     1    81    80    1
     2    81    82    2
     3    80    79    1
     4    80    83    1
     5    68    69    1
     6    68    71    1
     7    68    67    1
     8    69    70    2
     9    87    88    1
    10    90    89    2
    11    71    72    1
    12   100   101    2
    13   100    99    1
    14    85    83    1
    15    83    84    1
    16    89    88    1
    17    98    99    1
    18    88    91    1
    19    99   102    1
    20    72    73   ar
    21    72    74   ar
    22   106   104   ar
    23   106   108   ar
    24   104   103   ar
    25    73    75   ar
    26    84    86    1
    27    91    92    1
    28   108   107   ar
    29    74    76   ar
    30   103   102    1
    31   103   105   ar
    32    58    59    1
    33    92    93    1
    34    75    77   ar
    35   107   105   ar
    36    76    77   ar
    37    59    62    1
    38    59    60    1
    39    77    78    1
    40    93    94    1
    41    62    63    1
    42    65    64   ar
    43    94    95    2
    44    60    61    2
    45    95    96    1
    46    95    97    1
    47    64    63    1
    48    64    66   ar
    49    50    51    1
    50    57    55    1
    51    51    52    1
    52    51    54    1
    53    55    54    1
    54    55    56    1
    55     7     6    1
    56     1     2    1
    57    27    26   ar
    58     5     6    1
    59     5     2    1
    60    52    53    2
    61     6     8    1
    62     3     2    1
    63     3     4    2
    64    26    28   ar
    65    26    25    1
    66    23    22    2
    67    24    25    1
    68    24    21    1
    69    22    21    1
    70    21    20    1
    71    18    19   ar
    72    18    16   ar
    73    20    11   am
    74    19    17   ar
    75    38    39    1
    76    12    11    2
    77    39    40    1
    78    16    14   ar
    79    11    10    1
    80    17    15   ar
    81    14    15   ar
    82    14    13    1
    83    40    42   am
    84    40    41    2
    85    10    13    1
    86    10     9    1
    87    42    43    1
    88    36    35   ar
    89    49    47    1
    90    47    46    1
    91    47    48    1
    92    43    46    1
    93    43    44    1
    94    35    34    1
    95    35    37   ar
    96    34    33    1
    97    44    45    2
    98    30    33    1
    99    30    29    1
   100    30    31    1
   101    32    31    2
