@<TRIPOS>MOLECULE
tmp/5kkbA05.pdb
 111 102 0 0 0
SMALL
GASTEIGER

@<TRIPOS>ATOM
      1  N         56.8910   22.5260    8.8890 N.3   106  PHE106     -0.1227
      2  CA        58.1680   22.0890    8.3260 C.3   106  PHE106      0.1736
      3  C         58.2700   22.4390    6.8420 C.2   106  PHE106      0.2595
      4  O         59.2430   23.0640    6.3980 O.2   106  PHE106     -0.2718
      5  CB        58.3160   20.5730    8.5470 C.3   106  PHE106      0.0547
      6  CG        59.3700   19.9020    7.6840 C.ar  106  PHE106     -0.0202
      7  CD1       60.7270   20.0470    7.9700 C.ar  106  PHE106     -0.0042
      8  CD2       59.0010   19.0830    6.6160 C.ar  106  PHE106     -0.0042
      9  CE1       61.6950   19.4090    7.1890 C.ar  106  PHE106     -0.0003
     10  CE2       59.9650   18.4430    5.8290 C.ar  106  PHE106     -0.0003
     11  CZ        61.3130   18.6080    6.1040 C.ar  106  PHE106     -0.0000
     12  N         57.2640   22.0580    6.0660 N.am  107  GLU107     -0.1979
     13  CA        57.3270   22.2900    4.6250 C.3   107  GLU107      0.1602
     14  C         57.3400   23.7750    4.2950 C.2   107  GLU107      0.2287
     15  O         58.1100   24.2150    3.4320 O.2   107  GLU107     -0.2864
     16  CB        56.1570   21.5790    3.9470 C.3   107  GLU107      0.0415
     17  CG        56.2280   20.0510    4.0580 C.3   107  GLU107      0.1163
     18  CD        57.2520   19.4230    3.1130 C.2   107  GLU107      0.3649
     19  OE1       57.8410   20.1580    2.2880 O.co2 107  GLU107     -0.2457
     20  OE2       57.4480   18.1830    3.1890 O.co2 107  GLU107     -0.2457
     21  N         60.9100   25.1930    5.1870 N.3   110  ILE110     -0.1245
     22  CA        62.0720   24.8750    4.3510 C.3   110  ILE110      0.1561
     23  C         61.8900   25.3780    2.9280 C.2   110  ILE110      0.2260
     24  O         62.8790   25.6930    2.2630 O.2   110  ILE110     -0.2867
     25  CB        62.4080   23.3690    4.3500 C.3   110  ILE110      0.0252
     26  CG1       61.3140   22.5310    3.6780 C.3   110  ILE110      0.0019
     27  CG2       62.6650   22.9010    5.8050 C.3   110  ILE110      0.0019
     28  CD1       61.7210   21.0630    3.4330 C.3   110  ILE110      0.0001
     29  N         57.3530   15.2920   15.0520 N.3   173  ILE173     -0.1245
     30  CA        58.3150   14.4940   14.2950 C.3   173  ILE173      0.1561
     31  C         59.6700   15.1920   14.3000 C.2   173  ILE173      0.2260
     32  O         59.7630   16.3930   14.0010 O.2   173  ILE173     -0.2867
     33  CB        57.8170   14.2620   12.8570 C.3   173  ILE173      0.0252
     34  CG1       56.5480   13.3970   12.8680 C.3   173  ILE173      0.0019
     35  CG2       58.9100   13.6170   11.9970 C.3   173  ILE173      0.0019
     36  CD1       55.7670   13.4500   11.5370 C.3   173  ILE173      0.0001
     37  N         62.4830   15.2280   12.4260 N.3   175  ALA175     -0.1231
     38  CA        62.9390   16.0080   11.2740 C.3   175  ALA175      0.1694
     39  C         62.1090   17.2760   11.0770 C.2   175  ALA175      0.2591
     40  O         62.6120   18.2630   10.5290 O.2   175  ALA175     -0.2718
     41  CB        62.9020   15.1630    9.9920 C.3   175  ALA175      0.0304
     42  N         60.8390   17.2740   11.4840 N.am  176  GLU176     -0.1979
     43  CA        60.0280   18.4650   11.2420 C.3   176  GLU176      0.1602
     44  C         60.3890   19.5880   12.2060 C.2   176  GLU176      0.2287
     45  O         60.6820   20.7090   11.7680 O.2   176  GLU176     -0.2864
     46  CB        58.5420   18.1150   11.3070 C.3   176  GLU176      0.0415
     47  CG        58.1920   17.0950   10.1990 C.3   176  GLU176      0.1163
     48  CD        56.7110   16.9440    9.9580 C.2   176  GLU176      0.3649
     49  OE1       56.3380   16.2650    8.9730 O.co2 176  GLU176     -0.2457
     50  OE2       55.9120   17.4850   10.7480 O.co2 176  GLU176     -0.2457
     51  N         63.7590    9.3000    6.1950 N.3   237  GLY237     -0.1210
     52  CA        62.5620   10.0930    6.4400 C.3   237  GLY237      0.1956
     53  C         62.1820   10.1140    7.9060 C.2   237  GLY237      0.2611
     54  O         62.3650    9.1100    8.6050 O.2   237  GLY237     -0.2717
     55  N         61.6880   11.2560    8.3820 N.am  238  LEU238     -0.1979
     56  CA        61.2590   11.5490    9.7540 C.3   238  LEU238      0.1596
     57  C         62.4220   11.9050   10.6840 C.2   238  LEU238      0.2287
     58  O         62.1710   12.4380   11.7800 O.2   238  LEU238     -0.2864
     59  CB        60.4450   10.4090   10.3970 C.3   238  LEU238      0.0297
     60  CG        59.2310    9.9110    9.5970 C.3   238  LEU238      0.0022
     61  CD1       58.4180    8.8810   10.4010 C.3   238  LEU238      0.0001
     62  CD2       58.3560   11.0670    9.1450 C.3   238  LEU238      0.0001
     63  N         66.1180   12.4610    9.2420 N.3   240  ASP240     -0.1225
     64  CA        67.3190   12.8820    8.5640 C.3   240  ASP240      0.1805
     65  C         67.7550   14.3420    8.7150 C.2   240  ASP240      0.2598
     66  O         68.8330   14.5710    9.1820 O.2   240  ASP240     -0.2718
     67  CB        67.0790   12.7050    7.0440 C.3   240  ASP240      0.1424
     68  CG        65.6360   13.0600    6.5850 C.2   240  ASP240      0.3668
     69  OD1       65.2160   12.6340    5.5240 O.co2 240  ASP240     -0.2456
     70  OD2       64.9530   13.7820    7.2480 O.co2 240  ASP240     -0.2456
     71  N         66.9080   15.3170    8.3960 N.am  241  SER241     -0.1952
     72  CA        67.4030   16.6940    8.3770 C.3   241  SER241      0.1924
     73  C         67.5730   17.3010    9.7710 C.2   241  SER241      0.2314
     74  O         68.1370   18.3980    9.8980 O.2   241  SER241     -0.2863
     75  CB        66.4920   17.5650    7.5140 C.3   241  SER241      0.2116
     76  OG        65.1340   17.4170    7.8670 O.3   241  SER241     -0.2180
     77  N         65.9230    8.7650    0.8640 N.3   301  LEU301     -0.1245
     78  CA        66.1020    9.9250    1.7450 C.3   301  LEU301      0.1561
     79  C         67.3830    9.8190    2.5580 C.2   301  LEU301      0.2260
     80  O         68.0660   10.8250    2.7860 O.2   301  LEU301     -0.2867
     81  CB        64.9010   10.0660    2.6820 C.3   301  LEU301      0.0270
     82  CG        63.6220   10.5070    1.9700 C.3   301  LEU301      0.0019
     83  CD1       62.4080   10.3280    2.8670 C.3   301  LEU301      0.0001
     84  CD2       63.7510   11.9690    1.5110 C.3   301  LEU301      0.0001
     85  N         63.4510   12.8980   -6.5640 N.3   372  ARG372     -0.1245
     86  CA        64.1100   13.3260   -5.3370 C.3   372  ARG372      0.1563
     87  C         65.5760   13.6870   -5.5730 C.2   372  ARG372      0.2260
     88  O         66.2140   13.1680   -6.4950 O.2   372  ARG372     -0.2867
     89  CB        64.0410   12.2250   -4.2940 C.3   372  ARG372      0.0307
     90  CG        62.7010   12.0410   -3.6340 C.3   372  ARG372      0.0489
     91  CD        62.9650   11.3580   -2.2880 C.3   372  ARG372      0.2205
     92  NE        61.7980   10.7150   -1.6990 N.pl3 372  ARG372     -0.0865
     93  CZ        60.8670   11.3610   -1.0010 C.cat 372  ARG372      0.5346
     94  NH1       60.9370   12.6850   -0.8520 N.pl3 372  ARG372      0.1354
     95  NH2       59.8600   10.6840   -0.4670 N.pl3 372  ARG372      0.1354
     96  N         68.3570   13.5430   -3.2180 N.3   374  GLU374     -0.1245
     97  CA        69.3440   13.2810   -2.1630 C.3   374  GLU374      0.1567
     98  C         70.6000   12.5960   -2.6820 C.2   374  GLU374      0.2260
     99  O         71.6780   12.7720   -2.1050 O.2   374  GLU374     -0.2867
    100  CB        68.7460   12.4300   -1.0410 C.3   374  GLU374      0.0388
    101  CG        67.6920   13.1350   -0.2140 C.3   374  GLU374      0.1160
    102  CD        66.3400   13.1640   -0.9110 C.2   374  GLU374      0.3649
    103  OE1       65.4860   13.9870   -0.5130 O.co2 374  GLU374     -0.2457
    104  OE2       66.1380   12.3480   -1.8480 O.co2 374  GLU374     -0.2457
    105  N         67.7960   22.5800    3.7700 N.3   460  THR460     -0.1218
    106  CA        67.4750   21.2190    3.3570 C.3   460  THR460      0.1862
    107  C         66.6450   21.1800    2.0810 C.2   460  THR460      0.2287
    108  O         66.3820   20.0950    1.5750 O.2   460  THR460     -0.2866
    109  CB        66.7550   20.4580    4.4790 C.3   460  THR460      0.1770
    110  OG1       66.8910   19.0490    4.2730 O.3   460  THR460     -0.2211
    111  CG2       65.2850   20.8110    4.5380 C.3   460  THR460      0.0375
@<TRIPOS>BOND
     1    85    86    1
     2    88    87    2
     3    87    86    1
     4    86    89    1
     5    89    90    1
     6    90    91    1
     7    96    97    1
     8    98    97    1
     9    98    99    2
    10    91    92    1
    11    97   100    1
    12   104   102   ar
    13    92    93    2
    14   100   101    1
    15    93    94    1
    16    93    95    1
    17   102   103   ar
    18   102   101    1
    19    77    78    1
    20    84    82    1
    21   108   107    2
    22    78    79    1
    23    78    81    1
    24    82    81    1
    25    82    83    1
    26   107   106    1
    27    24    23    2
    28    19    18   ar
    29    79    80    2
    30    23    22    1
    31    18    20   ar
    32    18    17    1
    33   106   105    1
    34   106   109    1
    35    15    14    2
    36    28    26    1
    37    26    25    1
    38    16    17    1
    39    16    13    1
    40   110   109    1
    41    14    13    1
    42    25    22    1
    43    25    27    1
    44    22    21    1
    45   109   111    1
    46    13    12    1
    47    69    68   ar
    48    10    11   ar
    49    10     8   ar
    50    12     3   am
    51    11     9   ar
    52    51    52    1
    53     4     3    2
    54    52    53    1
    55    68    67    1
    56    68    70   ar
    57     8     6   ar
    58     3     2    1
    59    67    64    1
    60     9     7   ar
    61    75    76    1
    62    75    72    1
    63     6     7   ar
    64     6     5    1
    65    53    55   am
    66    53    54    2
    67     2     5    1
    68     2     1    1
    69    72    71    1
    70    72    73    1
    71    55    56    1
    72    71    65   am
    73    64    65    1
    74    64    63    1
    75    65    66    2
    76    49    48   ar
    77    62    60    1
    78    60    59    1
    79    60    61    1
    80    56    59    1
    81    56    57    1
    82    73    74    2
    83    48    47    1
    84    48    50   ar
    85    41    38    1
    86    47    46    1
    87    40    39    2
    88    57    58    2
    89    39    38    1
    90    39    42   am
    91    43    46    1
    92    43    42    1
    93    43    44    1
    94    38    37    1
    95    36    34    1
    96    45    44    2
    97    35    33    1
    98    33    34    1
    99    33    30    1
   100    32    31    2
   101    30    31    1
   102    30    29    1
