@<TRIPOS>MOLECULE
tmp/5kkbA06.pdb
 133 127 0 0 0
SMALL
GASTEIGER

@<TRIPOS>ATOM
      1  N         56.8910   22.5260    8.8890 N.3   106  PHE106     -0.1227
      2  CA        58.1680   22.0890    8.3260 C.3   106  PHE106      0.1736
      3  C         58.2700   22.4390    6.8420 C.2   106  PHE106      0.2595
      4  O         59.2430   23.0640    6.3980 O.2   106  PHE106     -0.2718
      5  CB        58.3160   20.5730    8.5470 C.3   106  PHE106      0.0547
      6  CG        59.3700   19.9020    7.6840 C.ar  106  PHE106     -0.0202
      7  CD1       60.7270   20.0470    7.9700 C.ar  106  PHE106     -0.0042
      8  CD2       59.0010   19.0830    6.6160 C.ar  106  PHE106     -0.0042
      9  CE1       61.6950   19.4090    7.1890 C.ar  106  PHE106     -0.0003
     10  CE2       59.9650   18.4430    5.8290 C.ar  106  PHE106     -0.0003
     11  CZ        61.3130   18.6080    6.1040 C.ar  106  PHE106     -0.0000
     12  N         57.2640   22.0580    6.0660 N.am  107  GLU107     -0.1979
     13  CA        57.3270   22.2900    4.6250 C.3   107  GLU107      0.1602
     14  C         57.3400   23.7750    4.2950 C.2   107  GLU107      0.2287
     15  O         58.1100   24.2150    3.4320 O.2   107  GLU107     -0.2864
     16  CB        56.1570   21.5790    3.9470 C.3   107  GLU107      0.0415
     17  CG        56.2280   20.0510    4.0580 C.3   107  GLU107      0.1163
     18  CD        57.2520   19.4230    3.1130 C.2   107  GLU107      0.3649
     19  OE1       57.8410   20.1580    2.2880 O.co2 107  GLU107     -0.2457
     20  OE2       57.4480   18.1830    3.1890 O.co2 107  GLU107     -0.2457
     21  N         60.9100   25.1930    5.1870 N.3   110  ILE110     -0.1231
     22  CA        62.0720   24.8750    4.3510 C.3   110  ILE110      0.1692
     23  C         61.8900   25.3780    2.9280 C.2   110  ILE110      0.2591
     24  O         62.8790   25.6930    2.2630 O.2   110  ILE110     -0.2718
     25  CB        62.4080   23.3690    4.3500 C.3   110  ILE110      0.0266
     26  CG1       61.3140   22.5310    3.6780 C.3   110  ILE110      0.0019
     27  CG2       62.6650   22.9010    5.8050 C.3   110  ILE110      0.0020
     28  CD1       61.7210   21.0630    3.4330 C.3   110  ILE110      0.0001
     29  N         60.6570   25.4270    2.4210 N.am  111  ARG111     -0.1980
     30  CA        60.4790   25.8570    1.0350 C.3   111  ARG111      0.1597
     31  C         60.2060   27.3560    0.9370 C.2   111  ARG111      0.2287
     32  O         60.8700   28.0530    0.1670 O.2   111  ARG111     -0.2864
     33  CB        59.3470   25.0810    0.3520 C.3   111  ARG111      0.0334
     34  CG        59.4750   23.5690    0.4750 C.3   111  ARG111      0.0492
     35  CD        58.6640   22.8660   -0.6020 C.3   111  ARG111      0.2205
     36  NE        58.4080   21.4780   -0.2240 N.pl3 111  ARG111     -0.0865
     37  CZ        58.0070   20.5450   -1.0790 C.cat 111  ARG111      0.5346
     38  NH1       57.8390   20.8550   -2.3590 N.pl3 111  ARG111      0.1354
     39  NH2       57.7790   19.3040   -0.6620 N.pl3 111  ARG111      0.1354
     40  N         66.1180   12.4610    9.2420 N.3   240  ASP240     -0.1225
     41  CA        67.3190   12.8820    8.5640 C.3   240  ASP240      0.1805
     42  C         67.7550   14.3420    8.7150 C.2   240  ASP240      0.2598
     43  O         68.8330   14.5710    9.1820 O.2   240  ASP240     -0.2718
     44  CB        67.0790   12.7050    7.0440 C.3   240  ASP240      0.1424
     45  CG        65.6360   13.0600    6.5850 C.2   240  ASP240      0.3668
     46  OD1       65.2160   12.6340    5.5240 O.co2 240  ASP240     -0.2456
     47  OD2       64.9530   13.7820    7.2480 O.co2 240  ASP240     -0.2456
     48  N         66.9080   15.3170    8.3960 N.am  241  SER241     -0.1952
     49  CA        67.4030   16.6940    8.3770 C.3   241  SER241      0.1924
     50  C         67.5730   17.3010    9.7710 C.2   241  SER241      0.2314
     51  O         68.1370   18.3980    9.8980 O.2   241  SER241     -0.2863
     52  CB        66.4920   17.5650    7.5140 C.3   241  SER241      0.2116
     53  OG        65.1340   17.4170    7.8670 O.3   241  SER241     -0.2180
     54  N         65.9230    8.7650    0.8640 N.3   301  LEU301     -0.1245
     55  CA        66.1020    9.9250    1.7450 C.3   301  LEU301      0.1561
     56  C         67.3830    9.8190    2.5580 C.2   301  LEU301      0.2260
     57  O         68.0660   10.8250    2.7860 O.2   301  LEU301     -0.2867
     58  CB        64.9010   10.0660    2.6820 C.3   301  LEU301      0.0270
     59  CG        63.6220   10.5070    1.9700 C.3   301  LEU301      0.0019
     60  CD1       62.4080   10.3280    2.8670 C.3   301  LEU301      0.0001
     61  CD2       63.7510   11.9690    1.5110 C.3   301  LEU301      0.0001
     62  N         63.4510   12.8980   -6.5640 N.3   372  ARG372     -0.1231
     63  CA        64.1100   13.3260   -5.3370 C.3   372  ARG372      0.1679
     64  C         65.5760   13.6870   -5.5730 C.2   372  ARG372      0.2434
     65  O         66.2140   13.1680   -6.4950 O.2   372  ARG372     -0.2733
     66  CB        64.0410   12.2250   -4.2940 C.3   372  ARG372      0.0321
     67  CG        62.7010   12.0410   -3.6340 C.3   372  ARG372      0.0489
     68  CD        62.9650   11.3580   -2.2880 C.3   372  ARG372      0.2205
     69  NE        61.7980   10.7150   -1.6990 N.pl3 372  ARG372     -0.0865
     70  CZ        60.8670   11.3610   -1.0010 C.cat 372  ARG372      0.5346
     71  NH1       60.9370   12.6850   -0.8520 N.pl3 372  ARG372      0.1354
     72  NH2       59.8600   10.6840   -0.4670 N.pl3 372  ARG372      0.1354
     73  N         66.1420   14.5630   -4.7180 N.am  373  PRO373     -0.2718
     74  CA        67.4970   15.0910   -4.9480 C.3   373  PRO373      0.1535
     75  C         68.6410   14.4410   -4.1720 C.2   373  PRO373      0.2598
     76  O         69.8010   14.7830   -4.4250 O.2   373  PRO373     -0.2715
     77  CB        67.3560   16.5440   -4.4780 C.3   373  PRO373      0.0310
     78  CG        66.4240   16.4170   -3.3020 C.3   373  PRO373      0.0237
     79  CD        65.3910   15.4010   -3.7600 C.3   373  PRO373      0.0939
     80  N         68.3570   13.5430   -3.2180 N.am  374  GLU374     -0.1978
     81  CA        69.3440   13.2810   -2.1630 C.3   374  GLU374      0.1602
     82  C         70.6000   12.5960   -2.6820 C.2   374  GLU374      0.2287
     83  O         71.6780   12.7720   -2.1050 O.2   374  GLU374     -0.2864
     84  CB        68.7460   12.4300   -1.0410 C.3   374  GLU374      0.0415
     85  CG        67.6920   13.1350   -0.2140 C.3   374  GLU374      0.1163
     86  CD        66.3400   13.1640   -0.9110 C.2   374  GLU374      0.3649
     87  OE1       65.4860   13.9870   -0.5130 O.co2 374  GLU374     -0.2457
     88  OE2       66.1380   12.3480   -1.8480 O.co2 374  GLU374     -0.2457
     89  N         72.4890   15.2950   -4.4750 N.3   377  GLU377     -0.1245
     90  CA        73.0010   16.1450   -3.4020 C.3   377  GLU377      0.1567
     91  C         74.3100   15.5900   -2.8500 C.2   377  GLU377      0.2260
     92  O         75.3030   16.3160   -2.7130 O.2   377  GLU377     -0.2867
     93  CB        71.9420   16.2530   -2.3050 C.3   377  GLU377      0.0388
     94  CG        72.3590   17.0370   -1.0480 C.3   377  GLU377      0.1160
     95  CD        71.2810   17.0130    0.0230 C.2   377  GLU377      0.3649
     96  OE1       70.2080   16.4020   -0.2060 O.co2 377  GLU377     -0.2457
     97  OE2       71.5040   17.6100    1.1020 O.co2 377  GLU377     -0.2457
     98  N         60.5750   20.5300   -5.4150 N.3   432  PHE432     -0.1241
     99  CA        61.9830   20.3250   -5.0840 C.3   432  PHE432      0.1605
    100  C         62.8020   19.8130   -6.2740 C.2   432  PHE432      0.2264
    101  O         64.0350   19.8330   -6.2130 O.2   432  PHE432     -0.2867
    102  CB        62.1440   19.4050   -3.8440 C.3   432  PHE432      0.0534
    103  CG        61.4360   18.0520   -3.9340 C.ar  432  PHE432     -0.0203
    104  CD1       61.8860   17.0560   -4.8010 C.ar  432  PHE432     -0.0042
    105  CD2       60.3660   17.7630   -3.0900 C.ar  432  PHE432     -0.0042
    106  CE1       61.2580   15.8100   -4.8630 C.ar  432  PHE432     -0.0003
    107  CE2       59.7300   16.5230   -3.1250 C.ar  432  PHE432     -0.0003
    108  CZ        60.1750   15.5330   -4.0150 C.ar  432  PHE432     -0.0000
    109  N         66.0110   21.8120   -5.9520 N.3   436  GLU436     -0.1245
    110  CA        67.1230   20.9980   -5.4730 C.3   436  GLU436      0.1567
    111  C         67.7630   20.1900   -6.5890 C.2   436  GLU436      0.2260
    112  O         68.9630   20.3330   -6.8480 O.2   436  GLU436     -0.2867
    113  CB        66.6480   20.0420   -4.3660 C.3   436  GLU436      0.0388
    114  CG        65.9730   20.6590   -3.1590 C.3   436  GLU436      0.1160
    115  CD        66.0320   19.6910   -1.9790 C.2   436  GLU436      0.3649
    116  OE1       67.1580   19.3200   -1.5810 O.co2 436  GLU436     -0.2457
    117  OE2       64.9680   19.2610   -1.4920 O.co2 436  GLU436     -0.2457
    118  N         67.7960   22.5800    3.7700 N.3   460  THR460     -0.1203
    119  CA        67.4750   21.2190    3.3570 C.3   460  THR460      0.1994
    120  C         66.6450   21.1800    2.0810 C.2   460  THR460      0.2617
    121  O         66.3820   20.0950    1.5750 O.2   460  THR460     -0.2717
    122  CB        66.7550   20.4580    4.4790 C.3   460  THR460      0.1784
    123  OG1       66.8910   19.0490    4.2730 O.3   460  THR460     -0.2211
    124  CG2       65.2850   20.8110    4.5380 C.3   460  THR460      0.0376
    125  N         66.2520   22.3340    1.5460 N.am  461  GLU461     -0.1979
    126  CA        65.6200   22.4500    0.2280 C.3   461  GLU461      0.1602
    127  C         66.5630   23.1340   -0.7680 C.2   461  GLU461      0.2287
    128  O         66.1300   23.7860   -1.7330 O.2   461  GLU461     -0.2864
    129  CB        64.2910   23.2020    0.3700 C.3   461  GLU461      0.0415
    130  CG        63.3620   23.2170   -0.8820 C.3   461  GLU461      0.1163
    131  CD        62.3860   22.0620   -0.9530 C.2   461  GLU461      0.3649
    132  OE1       61.5680   22.0350   -1.9200 O.co2 461  GLU461     -0.2457
    133  OE2       62.4230   21.1790   -0.0730 O.co2 461  GLU461     -0.2457
@<TRIPOS>BOND
     1   112   111    2
     2   111   110    1
     3    62    63    1
     4    65    64    2
     5   100   101    2
     6   100    99    1
     7   109   110    1
     8    64    63    1
     9    64    73   am
    10   110   113    1
    11    98    99    1
    12    63    66    1
    13    99   102    1
    14    74    73    1
    15    74    77    1
    16    74    75    1
    17   106   104   ar
    18   106   108   ar
    19   104   103   ar
    20    73    79    1
    21    77    78    1
    22    89    90    1
    23    76    75    2
    24   113   114    1
    25    66    67    1
    26    75    80   am
    27   108   107   ar
    28   103   102    1
    29   103   105   ar
    30    79    78    1
    31    67    68    1
    32    90    91    1
    33    90    93    1
    34    80    81    1
    35   114   115    1
    36   107   105   ar
    37    91    92    2
    38    82    81    1
    39    82    83    2
    40    38    37    1
    41    93    94    1
    42    68    69    1
    43    81    84    1
    44   115   116   ar
    45   115   117   ar
    46   132   131   ar
    47    88    86   ar
    48   128   127    2
    49    69    70    2
    50    37    39    1
    51    37    36    2
    52    94    95    1
    53    84    85    1
    54    70    71    1
    55    70    72    1
    56   131   130    1
    57   131   133   ar
    58    86    87   ar
    59    86    85    1
    60   130   129    1
    61   127   126    1
    62    35    36    1
    63    35    34    1
    64    96    95   ar
    65    95    97   ar
    66    32    31    2
    67   126   129    1
    68   126   125    1
    69    33    34    1
    70    33    30    1
    71    54    55    1
    72    31    30    1
    73    30    29    1
    74    61    59    1
    75   125   120   am
    76   121   120    2
    77    55    56    1
    78    55    58    1
    79    59    58    1
    80    59    60    1
    81   120   119    1
    82    24    23    2
    83    19    18   ar
    84    29    23   am
    85    56    57    2
    86    23    22    1
    87    18    20   ar
    88    18    17    1
    89   119   118    1
    90   119   122    1
    91    15    14    2
    92    28    26    1
    93    26    25    1
    94    16    17    1
    95    16    13    1
    96   123   122    1
    97    14    13    1
    98    25    22    1
    99    25    27    1
   100    22    21    1
   101   122   124    1
   102    13    12    1
   103    46    45   ar
   104    10    11   ar
   105    10     8   ar
   106    12     3   am
   107    11     9   ar
   108     4     3    2
   109    45    44    1
   110    45    47   ar
   111     8     6   ar
   112     3     2    1
   113    44    41    1
   114     9     7   ar
   115    52    53    1
   116    52    49    1
   117     6     7   ar
   118     6     5    1
   119     2     5    1
   120     2     1    1
   121    49    48    1
   122    49    50    1
   123    48    42   am
   124    41    42    1
   125    41    40    1
   126    42    43    2
   127    50    51    2
