@<TRIPOS>MOLECULE
tmp/5kkeA01.pdb
 130 126 0 0 0
SMALL
GASTEIGER

@<TRIPOS>ATOM
      1  N         16.4410   -1.5370   91.9950 N.3    45  SER45      -0.1202
      2  CA        15.2730   -1.4750   91.1290 C.3    45  SER45       0.2020
      3  C         14.2960   -2.5870   91.4980 C.2    45  SER45       0.2619
      4  O         14.6820   -3.6410   92.0140 O.2    45  SER45      -0.2717
      5  CB        15.6590   -1.6640   89.6650 C.3    45  SER45       0.2103
      6  OG        16.5640   -2.7360   89.5270 O.3    45  SER45      -0.2182
      7  N         13.0230   -2.3530   91.2210 N.am   46  GLY46      -0.1956
      8  CA        12.0400   -3.4150   91.2720 C.3    46  GLY46       0.1869
      9  C         11.6490   -3.8830   92.6590 C.2    46  GLY46       0.2309
     10  O         11.2820   -5.0530   92.8220 O.2    46  GLY46      -0.2863
     11  N          6.0030   -6.1460   89.9430 N.3    53  TYR53      -0.1227
     12  CA         6.5550   -5.6930   88.6700 C.3    53  TYR53       0.1736
     13  C          6.4170   -6.7580   87.5800 C.2    53  TYR53       0.2596
     14  O          6.1100   -7.9290   87.8460 O.2    53  TYR53      -0.2718
     15  CB         8.0370   -5.3590   88.8430 C.3    53  TYR53       0.0548
     16  CG         8.3270   -4.1960   89.7810 C.ar   53  TYR53      -0.0200
     17  CD1        8.2870   -4.3500   91.1750 C.ar   53  TYR53      -0.0009
     18  CD2        8.6830   -2.9570   89.2660 C.ar   53  TYR53      -0.0009
     19  CE1        8.5610   -3.2660   92.0310 C.ar   53  TYR53       0.0417
     20  CE2        8.9860   -1.8850   90.1110 C.ar   53  TYR53       0.0417
     21  CZ         8.9180   -2.0470   91.4900 C.ar   53  TYR53       0.1957
     22  OH         9.2240   -0.9740   92.3140 O.3    53  TYR53      -0.2866
     23  N          6.7260   -6.3580   86.3430 N.am   54  THR54      -0.1953
     24  CA         6.8640   -7.3490   85.2790 C.3    54  THR54       0.1897
     25  C          8.0850   -8.2190   85.5500 C.2    54  THR54       0.2313
     26  O          8.8470   -7.9890   86.4950 O.2    54  THR54      -0.2863
     27  CB         7.0350   -6.7070   83.9080 C.3    54  THR54       0.1794
     28  OG1        8.3680   -6.1810   83.7900 O.3    54  THR54      -0.2208
     29  CG2        6.0050   -5.5740   83.6750 C.3    54  THR54       0.0378
     30  N         10.7410   -8.0820   84.1580 N.3    56  ALA56      -0.1231
     31  CA        11.9720   -7.3040   84.0520 C.3    56  ALA56       0.1694
     32  C         12.7810   -7.3380   85.3410 C.2    56  ALA56       0.2592
     33  O         14.0180   -7.3000   85.2990 O.2    56  ALA56      -0.2718
     34  CB        11.6540   -5.8490   83.6890 C.3    56  ALA56       0.0304
     35  N         12.1260   -7.4170   86.5080 N.am   57  ASN57      -0.1974
     36  CA        12.9070   -7.3050   87.7360 C.3    57  ASN57       0.1688
     37  C         13.4990   -8.6290   88.2080 C.2    57  ASN57       0.2292
     38  O         14.1060   -8.6590   89.2850 O.2    57  ASN57      -0.2864
     39  CB        12.0880   -6.6460   88.8620 C.3    57  ASN57       0.1181
     40  CG        11.0240   -7.5450   89.4420 C.2    57  ASN57       0.2629
     41  OD1       10.6530   -8.5660   88.8570 O.2    57  ASN57      -0.2716
     42  ND2       10.5010   -7.1520   90.6060 N.am   57  ASN57      -0.0877
     43  N         16.7640   -7.9720   85.0950 N.3    60  LYS60      -0.1245
     44  CA        17.5960   -6.7890   85.2470 C.3    60  LYS60       0.1561
     45  C         17.6180   -6.3700   86.7120 C.2    60  LYS60       0.2260
     46  O         16.6500   -6.5920   87.4490 O.2    60  LYS60      -0.2867
     47  CB        17.0570   -5.6290   84.3820 C.3    60  LYS60       0.0271
     48  CG        17.2930   -5.7920   82.8890 C.3    60  LYS60       0.0035
     49  CD        18.7680   -5.6070   82.5540 C.3    60  LYS60       0.0206
     50  CE        18.9850   -5.4330   81.0580 C.3    60  LYS60       0.1093
     51  NZ        20.3330   -4.8820   80.7530 N.3    60  LYS60      -0.1314
     52  N         19.4920   -2.8950   88.9280 N.3    62  VAL62      -0.1245
     53  CA        20.4540   -1.8330   89.1860 C.3    62  VAL62       0.1561
     54  C         20.1950   -1.2110   90.5500 C.2    62  VAL62       0.2260
     55  O         19.0730   -1.2330   91.0710 O.2    62  VAL62      -0.2867
     56  CB        20.4380   -0.7490   88.0830 C.3    62  VAL62       0.0252
     57  CG1       20.6690   -1.3890   86.7110 C.3    62  VAL62       0.0019
     58  CG2       19.0990    0.0070   88.0940 C.3    62  VAL62       0.0019
     59  N         19.7930    2.2110   91.7290 N.3    64  TRP64      -0.1241
     60  CA        19.5370    3.4430   90.9980 C.3    64  TRP64       0.1605
     61  C         20.4640    4.5560   91.4630 C.2    64  TRP64       0.2264
     62  O         20.6090    4.8030   92.6620 O.2    64  TRP64      -0.2867
     63  CB        18.0890    3.8840   91.1720 C.3    64  TRP64       0.0550
     64  CG        17.0910    3.0520   90.4320 C.ar   64  TRP64       0.0003
     65  CD1       16.0700    2.3320   90.9760 C.ar   64  TRP64       0.0946
     66  CD2       17.0070    2.8750   89.0190 C.ar   64  TRP64       0.0152
     67  NE1       15.3450    1.7220   89.9810 N.ar   64  TRP64      -0.2442
     68  CE2       15.9040    2.0360   88.7690 C.ar   64  TRP64       0.0810
     69  CE3       17.7540    3.3510   87.9330 C.ar   64  TRP64       0.0012
     70  CZ2       15.5210    1.6680   87.4820 C.ar   64  TRP64       0.0191
     71  CZ3       17.3750    2.9760   86.6500 C.ar   64  TRP64       0.0001
     72  CH2       16.2760    2.1270   86.4360 C.ar   64  TRP64       0.0015
     73  N         22.8500    5.6760   85.9110 N.3    68  ASN68      -0.1240
     74  CA        22.0880    4.6140   85.2770 C.3    68  ASN68       0.1653
     75  C         20.6130    4.9720   85.1280 C.2    68  ASN68       0.2266
     76  O         19.9570    4.4410   84.2250 O.2    68  ASN68      -0.2867
     77  CB        22.2750    3.2700   86.0060 C.3    68  ASN68       0.1155
     78  CG        21.8730    3.3030   87.4700 C.2    68  ASN68       0.2627
     79  OD1       20.9830    4.0570   87.8890 O.2    68  ASN68      -0.2716
     80  ND2       22.5360    2.4580   88.2650 N.am   68  ASN68      -0.0877
     81  N         20.6460    6.7650   81.7090 N.3    71  GLU71      -0.1231
     82  CA        20.6360    5.7810   80.6270 C.3    71  GLU71       0.1699
     83  C         19.2520    5.1480   80.4700 C.2    71  GLU71       0.2592
     84  O         18.7400    5.0110   79.3520 O.2    71  GLU71      -0.2718
     85  CB        21.6890    4.7000   80.8910 C.3    71  GLU71       0.0402
     86  CG        23.1720    5.1450   80.9310 C.3    71  GLU71       0.1161
     87  CD        23.6440    6.0040   79.7510 C.2    71  GLU71       0.3649
     88  OE1       24.7430    6.5950   79.8640 O.co2  71  GLU71      -0.2457
     89  OE2       22.9570    6.0690   78.7060 O.co2  71  GLU71      -0.2457
     90  N         18.6330    4.7550   81.5910 N.am   72  TYR72      -0.1976
     91  CA        17.3050    4.1450   81.5600 C.3    72  TYR72       0.1639
     92  C         16.2870    5.0570   80.8960 C.2    72  TYR72       0.2290
     93  O         15.4910    4.6110   80.0580 O.2    72  TYR72      -0.2864
     94  CB        16.8770    3.7890   82.9900 C.3    72  TYR72       0.0560
     95  CG        15.4270    3.3300   83.1660 C.ar   72  TYR72      -0.0198
     96  CD1       14.5120    4.0980   83.8800 C.ar   72  TYR72      -0.0009
     97  CD2       14.9830    2.1450   82.5910 C.ar   72  TYR72      -0.0009
     98  CE1       13.1990    3.6720   84.0510 C.ar   72  TYR72       0.0417
     99  CE2       13.6830    1.7290   82.7530 C.ar   72  TYR72       0.0417
    100  CZ        12.7980    2.4730   83.4730 C.ar   72  TYR72       0.1957
    101  OH        11.5100    2.0000   83.5820 O.3    72  TYR72      -0.2866
    102  N         12.1770   -0.2940   76.2600 N.3    78  LYS78      -0.1231
    103  CA        12.8840   -1.4960   75.8430 C.3    78  LYS78       0.1693
    104  C         13.0740   -2.4850   76.9850 C.2    78  LYS78       0.2592
    105  O         13.4440   -3.6380   76.7100 O.2    78  LYS78      -0.2718
    106  CB        14.2380   -1.1570   75.2230 C.3    78  LYS78       0.0285
    107  CG        15.3360   -0.8440   76.2100 C.3    78  LYS78       0.0035
    108  CD        16.6580   -0.7530   75.4690 C.3    78  LYS78       0.0206
    109  CE        17.7040   -0.0110   76.2700 C.3    78  LYS78       0.1093
    110  NZ        18.9910    0.0980   75.5010 N.3    78  LYS78      -0.1314
    111  N         12.8470   -2.0690   78.2380 N.am   79  TYR79      -0.1962
    112  CA        12.9410   -2.9790   79.3790 C.3    79  TYR79       0.1771
    113  C         11.5960   -3.5730   79.7750 C.2    79  TYR79       0.2619
    114  O         11.5390   -4.4050   80.6910 O.2    79  TYR79      -0.2715
    115  CB        13.5900   -2.2750   80.5840 C.3    79  TYR79       0.0574
    116  CG        14.9690   -1.7500   80.2560 C.ar   79  TYR79      -0.0198
    117  CD1       16.0440   -2.6190   80.0890 C.ar   79  TYR79      -0.0009
    118  CD2       15.1960   -0.3930   80.0880 C.ar   79  TYR79      -0.0009
    119  CE1       17.3070   -2.1460   79.7730 C.ar   79  TYR79       0.0417
    120  CE2       16.4700    0.0870   79.7680 C.ar   79  TYR79       0.0417
    121  CZ        17.5070   -0.7840   79.6190 C.ar   79  TYR79       0.1957
    122  OH        18.7610   -0.2930   79.3040 O.3    79  TYR79      -0.2866
    123  N         10.5170   -3.1720   79.1100 N.am   80  ILE80      -0.1977
    124  CA         9.2020   -3.7730   79.3310 C.3    80  ILE80       0.1596
    125  C          9.1070   -5.0510   78.5050 C.2    80  ILE80       0.2287
    126  O          9.2360   -4.9890   77.2700 O.2    80  ILE80      -0.2864
    127  CB         8.0700   -2.8090   78.9400 C.3    80  ILE80       0.0276
    128  CG1        8.1230   -1.5280   79.7830 C.3    80  ILE80       0.0022
    129  CG2        6.7170   -3.5190   79.0280 C.3    80  ILE80       0.0022
    130  CD1        7.7880   -1.7380   81.2390 C.3    80  ILE80       0.0001
@<TRIPOS>BOND
     1   106   103    1
     2   106   107    1
     3   108   107    1
     4   108   109    1
     5   110   109    1
     6   103   102    1
     7   103   104    1
     8   105   104    2
     9   104   111   am
    10   126   125    2
    11   111   112    1
    12   125   124    1
    13    89    87   ar
    14   127   129    1
    15   127   124    1
    16   127   128    1
    17   123   124    1
    18   123   113   am
    19   122   121    1
    20    84    83    2
    21   112   113    1
    22   112   115    1
    23   121   120   ar
    24   121   119   ar
    25    87    88   ar
    26    87    86    1
    27   120   118   ar
    28   119   117   ar
    29   113   114    2
    30   128   130    1
    31    93    92    2
    32   118   116   ar
    33   117   116   ar
    34   116   115    1
    35    83    82    1
    36    83    90   am
    37    82    85    1
    38    82    81    1
    39    51    50    1
    40    85    86    1
    41    92    91    1
    42    50    49    1
    43    91    90    1
    44    91    94    1
    45    49    48    1
    46    97    99   ar
    47    97    95   ar
    48    99   100   ar
    49    48    47    1
    50    94    95    1
    51    95    96   ar
    52   100   101    1
    53   100    98   ar
    54    29    27    1
    55    34    31    1
    56    28    27    1
    57    96    98   ar
    58    27    24    1
    59    31    30    1
    60    31    32    1
    61    76    75    2
    62    47    44    1
    63    43    44    1
    64    75    74    1
    65    44    45    1
    66    74    73    1
    67    74    77    1
    68    24    25    1
    69    24    23    1
    70    33    32    2
    71    32    35   am
    72    25    26    2
    73    77    78    1
    74    23    13   am
    75    72    71   ar
    76    72    70   ar
    77    35    36    1
    78    71    69   ar
    79    57    56    1
    80    45    46    2
    81    78    79    2
    82    78    80   am
    83    70    68   ar
    84    13    14    2
    85    13    12    1
    86    36    37    1
    87    36    39    1
    88    69    66   ar
    89    56    58    1
    90    56    53    1
    91    37    38    2
    92    12    15    1
    93    12    11    1
    94    68    66   ar
    95    68    67   ar
    96    15    16    1
    97    41    40    2
    98    39    40    1
    99    52    53    1
   100    66    64   ar
   101    53    54    1
   102    18    16   ar
   103    18    20   ar
   104    40    42   am
   105     6     5    1
   106     5     2    1
   107    16    17   ar
   108    67    65   ar
   109    20    21   ar
   110    64    65   ar
   111    64    63    1
   112    54    55    2
   113    60    63    1
   114    60    61    1
   115    60    59    1
   116     2     3    1
   117     2     1    1
   118    17    19   ar
   119     7     8    1
   120     7     3   am
   121     8     9    1
   122    61    62    2
   123    21    19   ar
   124    21    22    1
   125     3     4    2
   126     9    10    2
