@<TRIPOS>MOLECULE
tmp/5kklB01.pdb
 221 221 0 0 0
SMALL
GASTEIGER

@<TRIPOS>ATOM
      1  N         90.4800   70.3140  308.7280 N.3    96  PRO96      -0.2102
      2  CA        90.1700   69.6160  307.4670 C.3    96  PRO96       0.1504
      3  C         89.0390   70.2060  306.6300 C.2    96  PRO96       0.2575
      4  O         88.2550   71.0310  307.1080 O.2    96  PRO96      -0.2718
      5  CB        89.8660   68.1740  307.9060 C.3    96  PRO96       0.0282
      6  CG        90.3040   68.0870  309.3330 C.3    96  PRO96       0.0208
      7  CD        90.2060   69.4590  309.8960 C.3    96  PRO96       0.0893
      8  N         89.0050   69.7940  305.3540 N.am   97  TYR97      -0.1977
      9  CA        88.0070   70.1450  304.3460 C.3    97  TYR97       0.1639
     10  C         88.0310   69.1890  303.1400 C.2    97  TYR97       0.2290
     11  O         88.9670   68.4030  302.9710 O.2    97  TYR97      -0.2864
     12  CB        88.0890   71.6250  303.9100 C.3    97  TYR97       0.0560
     13  CG        89.3440   72.0000  303.1540 C.ar   97  TYR97      -0.0198
     14  CD1       89.3940   71.9200  301.7630 C.ar   97  TYR97      -0.0009
     15  CD2       90.4460   72.5330  303.8160 C.ar   97  TYR97      -0.0009
     16  CE1       90.5300   72.3010  301.0590 C.ar   97  TYR97       0.0417
     17  CE2       91.5890   72.9140  303.1210 C.ar   97  TYR97       0.0417
     18  CZ        91.6330   72.7810  301.7450 C.ar   97  TYR97       0.1957
     19  OH        92.7620   73.1470  301.0550 O.3    97  TYR97      -0.2866
     20  N         85.2910   75.5700  319.6390 N.3   572  LEU572     -0.1231
     21  CA        84.7620   74.2660  320.0390 C.3   572  LEU572      0.1693
     22  C         85.7490   73.1380  319.7380 C.2   572  LEU572      0.2592
     23  O         86.5180   73.2120  318.7750 O.2   572  LEU572     -0.2718
     24  CB        83.4170   73.9680  319.3440 C.3   572  LEU572      0.0284
     25  CG        82.3920   75.0920  319.2240 C.3   572  LEU572      0.0019
     26  CD1       81.3400   74.7540  318.1960 C.3   572  LEU572      0.0001
     27  CD2       81.7420   75.3680  320.5310 C.3   572  LEU572      0.0001
     28  N         85.6890   72.0810  320.5680 N.am  573  GLU573     -0.1966
     29  CA        86.5070   70.8710  320.4690 C.3   573  GLU573      0.1733
     30  C         86.2350   70.1290  319.1500 C.2   573  GLU573      0.2616
     31  O         85.0760   69.8460  318.8270 O.2   573  GLU573     -0.2715
     32  CB        86.2410   69.9550  321.6790 C.3   573  GLU573      0.0429
     33  CG        86.9450   70.4050  322.9460 C.3   573  GLU573      0.1163
     34  CD        86.2670   69.9810  324.2340 C.2   573  GLU573      0.3649
     35  OE1       86.7780   69.0490  324.8970 O.co2 573  GLU573     -0.2457
     36  OE2       85.2390   70.5980  324.5940 O.co2 573  GLU573     -0.2457
     37  N         87.3090   69.8410  318.3900 N.am  574  ALA574     -0.1963
     38  CA        87.2840   69.1560  317.0880 C.3   574  ALA574      0.1728
     39  C         86.0930   69.5820  316.2000 C.2   574  ALA574      0.2616
     40  O         85.1900   68.7850  315.9010 O.2   574  ALA574     -0.2715
     41  CB        87.3350   67.6430  317.2750 C.3   574  ALA574      0.0334
     42  N         86.0750   70.8740  315.8380 N.am  575  CYS575     -0.1954
     43  CA        85.0210   71.4450  315.0120 C.3   575  CYS575      0.1843
     44  C         85.5190   72.0000  313.7090 C.2   575  CYS575      0.2626
     45  O         84.7000   72.2690  312.8230 O.2   575  CYS575     -0.2714
     46  CB        84.2150   72.4760  315.7850 C.3   575  CYS575      0.0997
     47  SG        82.6480   71.8340  316.4010 S.3   575  CYS575     -0.0797
     48  N         86.8430   72.1340  313.5880 N.am  576  GLY576     -0.1940
     49  CA        87.4920   72.6570  312.3990 C.3   576  GLY576      0.2014
     50  C         87.3700   74.1600  312.3040 C.2   576  GLY576      0.2638
     51  O         87.8660   74.8830  313.1700 O.2   576  GLY576     -0.2714
     52  N         86.6880   74.6390  311.2650 N.am  577  TYR577     -0.1973
     53  CA        86.5050   76.0690  311.0460 C.3   577  TYR577      0.1639
     54  C         85.2720   76.6480  311.7440 C.2   577  TYR577      0.2290
     55  O         84.3170   75.9420  312.0730 O.2   577  TYR577     -0.2864
     56  CB        86.5130   76.4390  309.5440 C.3   577  TYR577      0.0560
     57  CG        87.7500   75.9820  308.8030 C.ar  577  TYR577     -0.0198
     58  CD1       88.9230   76.7300  308.8370 C.ar  577  TYR577     -0.0009
     59  CD2       87.7510   74.7960  308.0760 C.ar  577  TYR577     -0.0009
     60  CE1       90.0640   76.3130  308.1560 C.ar  577  TYR577      0.0417
     61  CE2       88.8880   74.3630  307.4030 C.ar  577  TYR577      0.0417
     62  CZ        90.0450   75.1230  307.4460 C.ar  577  TYR577      0.1957
     63  OH        91.1730   74.6860  306.7900 O.3   577  TYR577     -0.2866
     64  N         73.1610   82.8520  303.4630 N.3   594  TYR594     -0.1241
     65  CA        73.6180   81.4940  303.2110 C.3   594  TYR594      0.1605
     66  C         73.3750   81.1880  301.7160 C.2   594  TYR594      0.2264
     67  O         72.2140   81.0950  301.2810 O.2   594  TYR594     -0.2867
     68  CB        72.9080   80.4630  304.1100 C.3   594  TYR594      0.0534
     69  CG        73.6150   79.1240  304.1790 C.ar  594  TYR594     -0.0201
     70  CD1       73.3720   78.1320  303.2280 C.ar  594  TYR594     -0.0009
     71  CD2       74.5160   78.8420  305.2010 C.ar  594  TYR594     -0.0009
     72  CE1       74.0340   76.9050  303.2760 C.ar  594  TYR594      0.0417
     73  CE2       75.1780   77.6160  305.2630 C.ar  594  TYR594      0.0417
     74  CZ        74.9360   76.6520  304.2970 C.ar  594  TYR594      0.1957
     75  OH        75.5860   75.4490  304.3620 O.3   594  TYR594     -0.2866
     76  N         80.1550   62.8040  308.2400 N.3   617  LYS617     -0.1231
     77  CA        79.2600   63.4460  309.2110 C.3   617  LYS617      0.1693
     78  C         79.0640   64.9560  308.9660 C.2   617  LYS617      0.2592
     79  O         78.0270   65.5020  309.3620 O.2   617  LYS617     -0.2718
     80  CB        79.7020   63.1680  310.6600 C.3   617  LYS617      0.0285
     81  CG        78.5290   62.9070  311.6070 C.3   617  LYS617      0.0035
     82  CD        78.1150   64.1530  312.3970 C.3   617  LYS617      0.0206
     83  CE        76.6910   64.5710  312.1230 C.3   617  LYS617      0.1093
     84  NZ        76.6130   65.9950  311.7110 N.3   617  LYS617     -0.1314
     85  N         80.0430   65.6190  308.3040 N.am  618  VAL618     -0.1966
     86  CA        79.9760   67.0440  307.9590 C.3   618  VAL618      0.1727
     87  C         78.8790   67.2800  306.8850 C.2   618  VAL618      0.2617
     88  O         78.7490   66.4830  305.9540 O.2   618  VAL618     -0.2715
     89  CB        81.3750   67.6130  307.5790 C.3   618  VAL618      0.0290
     90  CG1       81.9120   67.0020  306.2910 C.3   618  VAL618      0.0023
     91  CG2       81.3710   69.1350  307.5010 C.3   618  VAL618      0.0023
     92  N         78.0440   68.3170  307.0820 N.am  619  SER619     -0.1936
     93  CA        76.9500   68.6680  306.1720 C.3   619  SER619      0.2055
     94  C         76.8080   70.1820  305.9940 C.2   619  SER619      0.2643
     95  O         76.8820   70.9300  306.9720 O.2   619  SER619     -0.2714
     96  CB        75.6310   68.0610  306.6440 C.3   619  SER619      0.2130
     97  OG        74.5450   68.4180  305.8040 O.3   619  SER619     -0.2179
     98  N         76.5890   70.6210  304.7410 N.am  620  TYR620     -0.1973
     99  CA        76.3900   72.0240  304.4030 C.3   620  TYR620      0.1639
    100  C         75.0160   72.2530  303.7600 C.2   620  TYR620      0.2290
    101  O         74.8110   73.2540  303.0720 O.2   620  TYR620     -0.2864
    102  CB        77.5110   72.5180  303.5050 C.3   620  TYR620      0.0560
    103  CG        78.8790   72.4600  304.1450 C.ar  620  TYR620     -0.0198
    104  CD1       79.6790   71.3300  304.0250 C.ar  620  TYR620     -0.0009
    105  CD2       79.4010   73.5580  304.8190 C.ar  620  TYR620     -0.0009
    106  CE1       80.9440   71.2770  304.5990 C.ar  620  TYR620      0.0417
    107  CE2       80.6780   73.5250  305.3770 C.ar  620  TYR620      0.0417
    108  CZ        81.4460   72.3800  305.2670 C.ar  620  TYR620      0.1957
    109  OH        82.7050   72.3430  305.8150 O.3   620  TYR620     -0.2866
    110  N         79.0110   79.2560  305.3320 N.3   642  ARG642     -0.1231
    111  CA        79.1180   77.8050  305.3540 C.3   642  ARG642      0.1694
    112  C         79.9290   77.3250  306.5610 C.2   642  ARG642      0.2592
    113  O         79.7970   76.1710  306.9350 O.2   642  ARG642     -0.2718
    114  CB        79.7360   77.2790  304.0370 C.3   642  ARG642      0.0321
    115  CG        81.2680   77.3560  303.9710 C.3   642  ARG642      0.0489
    116  CD        81.8510   76.7290  302.7330 C.3   642  ARG642      0.2205
    117  NE        81.7780   77.6320  301.5920 N.pl3 642  ARG642     -0.0865
    118  CZ        81.8670   77.2360  300.3280 C.cat 642  ARG642      0.5346
    119  NH1       82.0320   75.9500  300.0340 N.pl3 642  ARG642      0.1354
    120  NH2       81.7980   78.1230  299.3460 N.pl3 642  ARG642      0.1354
    121  N         80.7620   78.1890  307.1580 N.am  643  TYR643     -0.1962
    122  CA        81.6130   77.7940  308.2760 C.3   643  TYR643      0.1771
    123  C         81.0540   78.0660  309.7110 C.2   643  TYR643      0.2619
    124  O         81.6630   77.5680  310.6640 O.2   643  TYR643     -0.2715
    125  CB        82.9990   78.4100  308.1280 C.3   643  TYR643      0.0574
    126  CG        83.6550   78.1230  306.7950 C.ar  643  TYR643     -0.0198
    127  CD1       84.1240   76.8470  306.4840 C.ar  643  TYR643     -0.0009
    128  CD2       83.8740   79.1420  305.8690 C.ar  643  TYR643     -0.0009
    129  CE1       84.7500   76.5860  305.2710 C.ar  643  TYR643      0.0417
    130  CE2       84.5190   78.8970  304.6650 C.ar  643  TYR643      0.0417
    131  CZ        84.9390   77.6140  304.3620 C.ar  643  TYR643      0.1957
    132  OH        85.5830   77.3820  303.1720 O.3   643  TYR643     -0.2866
    133  N         79.9150   78.8130  309.8640 N.am  644  ILE644     -0.1963
    134  CA        79.2660   79.1460  311.1580 C.3   644  ILE644      0.1727
    135  C         78.8270   77.8670  311.9000 C.2   644  ILE644      0.2616
    136  O         78.1050   77.0580  311.3220 O.2   644  ILE644     -0.2715
    137  CB        78.0510   80.1050  310.9710 C.3   644  ILE644      0.0290
    138  CG1       78.4060   81.3410  310.1270 C.3   644  ILE644      0.0022
    139  CG2       77.4470   80.5020  312.3200 C.3   644  ILE644      0.0023
    140  CD1       77.1960   82.0860  309.5400 C.3   644  ILE644      0.0001
    141  N         79.2290   77.7130  313.1770 N.am  645  ASN645     -0.1958
    142  CA        78.9180   76.5300  313.9860 C.3   645  ASN645      0.1819
    143  C         77.6460   76.6330  314.8520 C.2   645  ASN645      0.2621
    144  O         77.0610   77.7080  315.0110 O.2   645  ASN645     -0.2715
    145  CB        80.1120   76.1450  314.8520 C.3   645  ASN645      0.1195
    146  CG        81.3500   75.8420  314.0700 C.2   645  ASN645      0.2630
    147  OD1       81.9580   76.7320  313.4920 O.2   645  ASN645     -0.2716
    148  ND2       81.7700   74.5900  314.0680 N.am  645  ASN645     -0.0877
    149  N         77.2340   75.4900  315.4220 N.am  646  HIS646     -0.1973
    150  CA        76.0440   75.3800  316.2490 C.3   646  HIS646      0.1656
    151  C         76.2890   75.7050  317.7070 C.2   646  HIS646      0.2291
    152  O         77.3410   75.3730  318.2510 O.2   646  HIS646     -0.2864
    153  CB        75.4440   73.9730  316.1330 C.3   646  HIS646      0.0771
    154  CG        74.1990   73.8040  316.9380 C.ar  646  HIS646      0.0820
    155  ND1       74.2210   73.1920  318.1710 N.ar  646  HIS646     -0.2267
    156  CD2       72.9600   74.2870  316.7130 C.ar  646  HIS646      0.1154
    157  CE1       72.9860   73.2750  318.6340 C.ar  646  HIS646      0.1986
    158  NE2       72.1920   73.9240  317.7850 N.ar  646  HIS646     -0.2212
    159  N         71.0060   75.4320  314.8640 N.3   683  TYR683     -0.1241
    160  CA        70.8540   74.6710  313.6200 C.3   683  TYR683      0.1605
    161  C         69.4430   74.1470  313.3390 C.2   683  TYR683      0.2264
    162  O         69.0770   73.9570  312.1720 O.2   683  TYR683     -0.2867
    163  CB        71.8550   73.5040  313.5770 C.3   683  TYR683      0.0534
    164  CG        73.2610   73.8260  313.0990 C.ar  683  TYR683     -0.0201
    165  CD1       73.7570   75.1280  313.1330 C.ar  683  TYR683     -0.0009
    166  CD2       74.1180   72.8160  312.6700 C.ar  683  TYR683     -0.0009
    167  CE1       75.0490   75.4190  312.7090 C.ar  683  TYR683      0.0417
    168  CE2       75.4150   73.0960  312.2540 C.ar  683  TYR683      0.0417
    169  CZ        75.8770   74.3960  312.2820 C.ar  683  TYR683      0.1957
    170  OH        77.1550   74.6560  311.8760 O.3   683  TYR683     -0.2866
    171  N         69.2100   68.4680  312.4180 N.3   687  PHE687     -0.1241
    172  CA        70.6350   68.1380  312.5030 C.3   687  PHE687      0.1605
    173  C         70.8190   67.2840  313.7670 C.2   687  PHE687      0.2264
    174  O         70.2040   67.6020  314.7910 O.2   687  PHE687     -0.2867
    175  CB        71.4930   69.4100  312.5600 C.3   687  PHE687      0.0534
    176  CG        72.7060   69.4000  311.6500 C.ar  687  PHE687     -0.0203
    177  CD1       73.9310   68.9180  312.1000 C.ar  687  PHE687     -0.0042
    178  CD2       72.6280   69.8960  310.3510 C.ar  687  PHE687     -0.0042
    179  CE1       75.0490   68.9100  311.2590 C.ar  687  PHE687     -0.0003
    180  CE2       73.7510   69.8970  309.5150 C.ar  687  PHE687     -0.0003
    181  CZ        74.9540   69.4090  309.9770 C.ar  687  PHE687     -0.0000
    182  N         73.8180   65.0810  316.1310 N.3   689  ASN689     -0.1225
    183  CA        74.8200   65.3050  317.1790 C.3   689  ASN689      0.1785
    184  C         75.4810   66.6840  317.0870 C.2   689  ASN689      0.2597
    185  O         76.2020   66.9750  316.1250 O.2   689  ASN689     -0.2718
    186  CB        75.8600   64.1680  317.2240 C.3   689  ASN689      0.1169
    187  CG        76.5900   63.9020  315.9240 C.2   689  ASN689      0.2627
    188  OD1       77.6840   64.4230  315.6790 O.2   689  ASN689     -0.2716
    189  ND2       76.0230   63.0450  315.0850 N.am  689  ASN689     -0.0877
    190  N         75.1840   67.5510  318.0810 N.am  690  LEU690     -0.1966
    191  CA        75.7080   68.9190  318.1670 C.3   690  LEU690      0.1728
    192  C         75.9930   69.2840  319.6320 C.2   690  LEU690      0.2617
    193  O         75.0560   69.4830  320.4090 O.2   690  LEU690     -0.2715
    194  CB        74.7370   69.9360  317.5180 C.3   690  LEU690      0.0311
    195  CG        74.4460   69.8180  316.0090 C.3   690  LEU690      0.0022
    196  CD1       73.1790   70.5590  315.6520 C.3   690  LEU690      0.0001
    197  CD2       75.6300   70.2710  315.1570 C.3   690  LEU690      0.0001
    198  N         77.2930   69.3580  320.0040 N.am  691  THR691     -0.1937
    199  CA        77.7530   69.6320  321.3720 C.3   691  THR691      0.2028
    200  C         78.8800   70.6780  321.4890 C.2   691  THR691      0.2642
    201  O         79.9060   70.5730  320.8100 O.2   691  THR691     -0.2714
    202  CB        78.1640   68.3180  322.0600 C.3   691  THR691      0.1808
    203  OG1       78.7880   67.4490  321.1060 O.3   691  THR691     -0.2208
    204  CG2       76.9860   67.6130  322.7320 C.3   691  THR691      0.0379
    205  N         78.6920   71.6540  322.4040 N.am  692  LYS692     -0.1977
    206  CA        79.6320   72.7330  322.7370 C.3   692  LYS692      0.1596
    207  C         80.8890   72.1420  323.3970 C.2   692  LYS692      0.2287
    208  O         81.8430   71.7850  322.7110 O.2   692  LYS692     -0.2864
    209  CB        78.9470   73.7560  323.6830 C.3   692  LYS692      0.0298
    210  CG        79.8800   74.7610  324.3820 C.3   692  LYS692      0.0038
    211  CD        80.0230   76.0880  323.6380 C.3   692  LYS692      0.0206
    212  CE        81.2830   76.8160  324.0430 C.3   692  LYS692      0.1093
    213  NZ        81.3960   78.1340  323.3720 N.3   692  LYS692     -0.1314
    214  N         70.4080   71.7140  308.2480 N.3   698  MET698     -0.1245
    215  CA        70.2160   72.9180  309.0350 C.3   698  MET698      0.1570
    216  C         68.8990   73.5350  308.5820 C.2   698  MET698      0.2261
    217  O         68.5310   73.4220  307.4090 O.2   698  MET698     -0.2867
    218  CB        71.3640   73.9000  308.7950 C.3   698  MET698      0.0387
    219  CG        72.6950   73.3790  309.2260 C.3   698  MET698      0.0595
    220  SD        73.9950   74.4260  308.5910 S.3   698  MET698     -0.1393
    221  CE        74.2130   73.7370  306.9830 C.3   698  MET698      0.0692
@<TRIPOS>BOND
     1   120   118    1
     2   119   118    1
     3   118   117    2
     4    19    18    1
     5    16    18   ar
     6    16    14   ar
     7    67    66    2
     8   117   116    1
     9    66    65    1
    10    18    17   ar
    11    14    13   ar
    12   116   115    1
    13    11    10    2
    14   101   100    2
    15    17    15   ar
    16    10     9    1
    17    13    15   ar
    18    13    12    1
    19   132   131    1
    20    65    64    1
    21    65    68    1
    22    70    72   ar
    23    70    69   ar
    24    72    74   ar
    25   102   103    1
    26   102    99    1
    27   100    99    1
    28    12     9    1
    29   115   114    1
    30   104   103   ar
    31   104   106   ar
    32   114   111    1
    33    68    69    1
    34   103   105   ar
    35    69    71   ar
    36    74    75    1
    37    74    73   ar
    38     9     8    1
    39   131   130   ar
    40   131   129   ar
    41    99    98    1
    42   106   108   ar
    43   130   128   ar
    44    98    94   am
    45   105   107   ar
    46    71    73   ar
    47   108   107   ar
    48   108   109    1
    49   129   127   ar
    50   110   111    1
    51   111   112    1
    52     8     3   am
    53    97    96    1
    54   128   126   ar
    55    88    87    2
    56    94    93    1
    57    94    95    2
    58    93    96    1
    59    93    92    1
    60    90    89    1
    61   127   126   ar
    62   112   113    2
    63   112   121   am
    64     3     4    2
    65     3     2    1
    66    63    62    1
    67   126   125    1
    68    87    92   am
    69    87    86    1
    70   221   220    1
    71   121   122    1
    72    61    62   ar
    73    61    59   ar
    74   217   216    2
    75    62    60   ar
    76     2     5    1
    77     2     1    1
    78    91    89    1
    79    89    86    1
    80     5     6    1
    81    86    85    1
    82    59    57   ar
    83   125   122    1
    84    60    58   ar
    85    76    77    1
    86   214   215    1
    87   122   123    1
    88    85    78   am
    89   216   215    1
    90   220   219    1
    91     1     7    1
    92   218   215    1
    93   218   219    1
    94    57    58   ar
    95    57    56    1
    96    78    77    1
    97    78    79    2
    98    77    80    1
    99     6     7    1
   100   180   181   ar
   101   180   178   ar
   102   140   138    1
   103    56    53    1
   104   123   133   am
   105   123   124    2
   106   133   134    1
   107   181   179   ar
   108   138   137    1
   109   178   176   ar
   110    80    81    1
   111   137   134    1
   112   137   139    1
   113    53    52    1
   114    53    54    1
   115   134   135    1
   116   179   177   ar
   117    52    50   am
   118   136   135    2
   119    81    82    1
   120   176   177   ar
   121   176   175    1
   122    84    83    1
   123    54    55    2
   124   170   169    1
   125   135   141   am
   126    83    82    1
   127   162   161    2
   128   168   169   ar
   129   168   166   ar
   130   169   167   ar
   131    50    49    1
   132    50    51    2
   133    49    48    1
   134   171   172    1
   135   172   175    1
   136   172   173    1
   137   166   164   ar
   138   167   165   ar
   139    45    44    2
   140   164   165   ar
   141   164   163    1
   142   141   142    1
   143   161   160    1
   144   147   146    2
   145   163   160    1
   146    48    44   am
   147   160   159    1
   148    44    43    1
   149   173   174    2
   150   142   145    1
   151   142   143    1
   152   148   146   am
   153   146   145    1
   154   143   144    2
   155   143   149   am
   156    43    46    1
   157    43    42    1
   158   189   187   am
   159   197   195    1
   160   149   150    1
   161   196   195    1
   162   188   187    2
   163    46    47    1
   164    42    39   am
   165    40    39    2
   166   187   186    1
   167   195   194    1
   168   185   184    2
   169   182   183    1
   170   153   150    1
   171   153   154    1
   172    39    38    1
   173   150   151    1
   174   156   154   ar
   175   156   158   ar
   176   154   155   ar
   177   184   183    1
   178   184   190   am
   179    38    41    1
   180    38    37    1
   181   183   186    1
   182   194   191    1
   183   151   152    2
   184   158   157   ar
   185   190   191    1
   186   191   192    1
   187   155   157   ar
   188    26    25    1
   189    37    30   am
   190    23    22    2
   191    31    30    2
   192    30    29    1
   193    25    24    1
   194    25    27    1
   195    24    21    1
   196   192   198   am
   197   192   193    2
   198    20    21    1
   199    22    21    1
   200    22    28   am
   201   198   199    1
   202    29    28    1
   203    29    32    1
   204   201   200    2
   205   203   202    1
   206   199   200    1
   207   199   202    1
   208   200   205   am
   209    32    33    1
   210   202   204    1
   211   205   206    1
   212   208   207    2
   213   206   207    1
   214   206   209    1
   215    33    34    1
   216   213   212    1
   217   211   212    1
   218   211   210    1
   219   209   210    1
   220    34    36   ar
   221    34    35   ar
