@<TRIPOS>MOLECULE
tmp/5kknA00.pdb
 227 222 0 0 0
SMALL
GASTEIGER

@<TRIPOS>ATOM
      1  N         59.5080   46.2960   52.2640 N.3    30  ILE30      -0.1245
      2  CA        59.0030   45.5140   51.1560 C.3    30  ILE30       0.1561
      3  C         59.7000   45.8510   49.8140 C.2    30  ILE30       0.2260
      4  O         59.9300   44.9840   49.0120 O.2    30  ILE30      -0.2867
      5  CB        57.4550   45.5760   51.0790 C.3    30  ILE30       0.0252
      6  CG1       56.8860   44.3920   50.2640 C.3    30  ILE30       0.0019
      7  CG2       56.9530   46.9650   50.5970 C.3    30  ILE30       0.0019
      8  CD1       56.9150   43.0660   50.9840 C.3    30  ILE30       0.0001
      9  N         62.7880   43.8790   49.4980 N.3    33  VAL33      -0.1231
     10  CA        62.4430   42.4800   49.3120 C.3    33  VAL33       0.1692
     11  C         62.0530   42.2180   47.8730 C.2    33  VAL33       0.2591
     12  O         62.5810   41.2970   47.2500 O.2    33  VAL33      -0.2718
     13  CB        61.3490   42.0010   50.3350 C.3    33  VAL33       0.0266
     14  CG1       60.6720   40.7370   49.8680 C.3    33  VAL33       0.0020
     15  CG2       61.9870   41.7790   51.6960 C.3    33  VAL33       0.0020
     16  N         61.1630   43.0640   47.3540 N.am   34  LYS34      -0.1980
     17  CA        60.6300   42.9230   46.0130 C.3    34  LYS34       0.1596
     18  C         61.7400   42.9370   44.9660 C.2    34  LYS34       0.2287
     19  O         61.7240   42.1350   44.0200 O.2    34  LYS34      -0.2864
     20  CB        59.5850   44.0170   45.7320 C.3    34  LYS34       0.0298
     21  CG        58.8870   43.9260   44.3740 C.3    34  LYS34       0.0038
     22  CD        58.4320   42.5100   44.0250 C.3    34  LYS34       0.0206
     23  CE        57.4300   42.4660   42.8250 C.3    34  LYS34       0.1093
     24  NZ        57.9360   43.0350   41.5160 N.3    34  LYS34      -0.1314
     25  N         63.7060   39.5230   45.2170 N.3    37  ARG37      -0.1231
     26  CA        62.9320   38.4110   44.6610 C.3    37  ARG37       0.1694
     27  C         62.7250   38.5050   43.1400 C.2    37  ARG37       0.2592
     28  O         62.8880   37.5070   42.4180 O.2    37  ARG37      -0.2718
     29  CB        61.5870   38.2400   45.3670 C.3    37  ARG37       0.0321
     30  CG        61.6580   37.6100   46.7360 C.3    37  ARG37       0.0489
     31  CD        60.3400   37.7300   47.4950 C.3    37  ARG37       0.2205
     32  NE        60.4480   37.0340   48.7810 N.pl3  37  ARG37      -0.0865
     33  CZ        59.4990   36.9680   49.7180 C.cat  37  ARG37       0.5346
     34  NH1       58.3160   37.5580   49.5690 N.pl3  37  ARG37       0.1354
     35  NH2       59.7430   36.2940   50.8220 N.pl3  37  ARG37       0.1354
     36  N         62.3860   39.6870   42.6390 N.am   38  SER38      -0.1952
     37  CA        62.1450   39.8190   41.1990 C.3    38  SER38       0.1924
     38  C         63.4350   39.6230   40.3900 C.2    38  SER38       0.2314
     39  O         63.4130   39.0740   39.2830 O.2    38  SER38      -0.2863
     40  CB        61.5380   41.1840   40.8680 C.3    38  SER38       0.2116
     41  OG        60.2800   41.3640   41.4950 O.3    38  SER38      -0.2180
     42  N         64.6120   35.7820   40.6930 N.3    41  ARG41      -0.1245
     43  CA        63.8270   34.9510   39.8140 C.3    41  ARG41       0.1563
     44  C         64.2730   35.0800   38.3490 C.2    41  ARG41       0.2260
     45  O         64.2630   34.1140   37.6090 O.2    41  ARG41      -0.2867
     46  CB        62.3450   35.2840   39.9330 C.3    41  ARG41       0.0307
     47  CG        61.4800   34.4880   38.9750 C.3    41  ARG41       0.0489
     48  CD        60.0400   34.9430   39.0010 C.3    41  ARG41       0.2205
     49  NE        59.4940   34.7710   40.3370 N.pl3  41  ARG41      -0.0865
     50  CZ        59.1430   35.7690   41.1430 C.cat  41  ARG41       0.5346
     51  NH1       59.2400   37.0420   40.7330 N.pl3  41  ARG41       0.1354
     52  NH2       58.6530   35.4840   42.3530 N.pl3  41  ARG41       0.1354
     53  N         61.0840   53.2440   45.3110 N.3   111  TRP111     -0.1241
     54  CA        60.1720   54.3290   45.5010 C.3   111  TRP111      0.1605
     55  C         60.3520   54.7550   46.9030 C.2   111  TRP111      0.2264
     56  O         60.8610   54.0140   47.7050 O.2   111  TRP111     -0.2867
     57  CB        58.7340   53.8960   45.2600 C.3   111  TRP111      0.0550
     58  CG        58.3440   52.6720   46.0170 C.ar  111  TRP111      0.0003
     59  CD1       57.8160   52.6010   47.2560 C.ar  111  TRP111      0.0946
     60  CD2       58.5130   51.3100   45.6180 C.ar  111  TRP111      0.0152
     61  NE1       57.6420   51.3370   47.6350 N.ar  111  TRP111     -0.2442
     62  CE2       58.0520   50.5160   46.7050 C.ar  111  TRP111      0.0810
     63  CE3       58.9920   50.6920   44.5050 C.ar  111  TRP111      0.0012
     64  CZ2       58.0520   49.1640   46.6570 C.ar  111  TRP111      0.0191
     65  CZ3       58.9950   49.3340   44.4670 C.ar  111  TRP111      0.0001
     66  CH2       58.5270   48.5860   45.5130 C.ar  111  TRP111      0.0015
     67  N         54.8520   51.2940   44.3500 N.3   336  VAL336     -0.1245
     68  CA        54.5310   50.1310   45.1670 C.3   336  VAL336      0.1561
     69  C         53.4950   49.2150   44.4940 C.2   336  VAL336      0.2260
     70  O         53.5520   48.0090   44.6750 O.2   336  VAL336     -0.2867
     71  CB        54.0650   50.5570   46.5990 C.3   336  VAL336      0.0252
     72  CG1       52.6120   51.1500   46.5850 C.3   336  VAL336      0.0019
     73  CG2       54.1910   49.4030   47.5840 C.3   336  VAL336      0.0019
     74  N         53.2270   48.4380   41.3290 N.3   338  HIS338     -0.1227
     75  CA        53.6530   47.9330   40.0050 C.3   338  HIS338      0.1737
     76  C         53.3510   46.4460   39.6800 C.2   338  HIS338      0.2438
     77  O         53.2280   46.1040   38.4920 O.2   338  HIS338     -0.2733
     78  CB        55.1430   48.2190   39.7430 C.3   338  HIS338      0.0758
     79  CG        56.0800   47.3690   40.5490 C.ar  338  HIS338      0.0818
     80  ND1       56.4950   47.7170   41.8190 N.ar  338  HIS338     -0.2268
     81  CD2       56.6790   46.1840   40.2690 C.ar  338  HIS338      0.1154
     82  CE1       57.2990   46.7750   42.2910 C.ar  338  HIS338      0.1986
     83  NE2       57.4290   45.8360   41.3690 N.ar  338  HIS338     -0.2212
     84  N         53.2860   45.5430   40.7070 N.am  339  PRO339     -0.2729
     85  CA        52.9500   44.1510   40.3970 C.3   339  PRO339      0.1401
     86  C         51.6450   43.9850   39.6260 C.2   339  PRO339      0.2269
     87  O         51.5140   43.0500   38.8310 O.2   339  PRO339     -0.2865
     88  CB        52.8220   43.5250   41.7780 C.3   339  PRO339      0.0296
     89  CG        53.8400   44.2390   42.5480 C.3   339  PRO339      0.0237
     90  CD        53.6810   45.6670   42.1230 C.3   339  PRO339      0.0939
     91  N         53.0680   44.0890   36.1620 N.3   342  GLU342     -0.1231
     92  CA        53.8290   42.9040   35.9140 C.3   342  GLU342      0.1699
     93  C         52.8780   41.7750   35.5560 C.2   342  GLU342      0.2592
     94  O         53.0500   41.1210   34.5260 O.2   342  GLU342     -0.2718
     95  CB        54.6120   42.5310   37.1500 C.3   342  GLU342      0.0402
     96  CG        55.6460   43.5700   37.5590 C.3   342  GLU342      0.1161
     97  CD        56.5630   43.0340   38.6530 C.2   342  GLU342      0.3649
     98  OE1       57.6820   42.5600   38.3220 O.co2 342  GLU342     -0.2457
     99  OE2       56.1400   43.0520   39.8350 O.co2 342  GLU342     -0.2457
    100  N         51.8560   41.5750   36.3920 N.am  343  MET343     -0.1979
    101  CA        50.9860   40.4010   36.2900 C.3   343  MET343      0.1605
    102  C         50.2210   40.3710   34.9670 C.2   343  MET343      0.2287
    103  O         50.2620   39.3720   34.2280 O.2   343  MET343     -0.2864
    104  CB        50.0220   40.3110   37.4790 C.3   343  MET343      0.0413
    105  CG        49.4140   38.9360   37.6570 C.3   343  MET343      0.0598
    106  SD        50.6310   37.6380   38.0660 S.3   343  MET343     -0.1393
    107  CE        49.6780   36.1860   37.6750 C.3   343  MET343      0.0692
    108  N         55.5830   40.9650   32.5080 N.3   347  VAL347     -0.1231
    109  CA        56.8430   41.6700   32.4510 C.3   347  VAL347      0.1692
    110  C         57.3540   41.7160   33.8730 C.2   347  VAL347      0.2592
    111  O         56.6510   42.1960   34.7480 O.2   347  VAL347     -0.2718
    112  CB        56.6740   43.1290   31.8540 C.3   347  VAL347      0.0266
    113  CG1       57.9880   43.8470   31.7900 C.3   347  VAL347      0.0020
    114  CG2       56.0780   43.0620   30.4670 C.3   347  VAL347      0.0020
    115  N         58.5600   41.1990   34.1060 N.am  348  ASN348     -0.1974
    116  CA        59.2400   41.3430   35.3880 C.3   348  ASN348      0.1688
    117  C         59.8810   42.7490   35.3640 C.2   348  ASN348      0.2292
    118  O         60.8640   42.9740   34.6430 O.2   348  ASN348     -0.2864
    119  CB        60.2690   40.2220   35.5340 C.3   348  ASN348      0.1181
    120  CG        61.0930   40.3210   36.8300 C.2   348  ASN348      0.2629
    121  OD1       61.3280   41.4210   37.3600 O.2   348  ASN348     -0.2716
    122  ND2       61.5790   39.1720   37.3200 N.am  348  ASN348     -0.0877
    123  N         43.6450   42.7370   37.5870 N.3   393  VAL393     -0.1245
    124  CA        44.2280   42.7170   38.9440 C.3   393  VAL393      0.1561
    125  C         43.6110   43.7910   39.8400 C.2   393  VAL393      0.2260
    126  O         43.5050   44.9360   39.4440 O.2   393  VAL393     -0.2867
    127  CB        45.7760   42.9030   38.9250 C.3   393  VAL393      0.0252
    128  CG1       46.3500   43.0760   40.3540 C.3   393  VAL393      0.0019
    129  CG2       46.4470   41.7470   38.2070 C.3   393  VAL393      0.0019
    130  N         54.4180   38.6080   55.7090 N.3   404  GLU404     -0.1245
    131  CA        53.7690   38.1570   54.4780 C.3   404  GLU404      0.1567
    132  C         52.4260   37.4640   54.7030 C.2   404  GLU404      0.2260
    133  O         52.2030   36.8090   55.7170 O.2   404  GLU404     -0.2867
    134  CB        54.6870   37.2250   53.6960 C.3   404  GLU404      0.0388
    135  CG        55.8700   37.9080   53.0680 C.3   404  GLU404      0.1160
    136  CD        56.7900   36.9240   52.4240 C.2   404  GLU404      0.3649
    137  OE1       56.3180   36.0730   51.6440 O.co2 404  GLU404     -0.2457
    138  OE2       57.9940   36.9970   52.7050 O.co2 404  GLU404     -0.2457
    139  N         50.3680   34.7130   52.7050 N.3   406  ASN406     -0.1240
    140  CA        49.9700   33.7760   51.6190 C.3   406  ASN406      0.1653
    141  C         48.5900   33.2540   51.9240 C.2   406  ASN406      0.2266
    142  O         48.4080   32.5000   52.8580 O.2   406  ASN406     -0.2867
    143  CB        50.8900   32.5540   51.3840 C.3   406  ASN406      0.1155
    144  CG        52.3450   32.7870   51.7570 C.2   406  ASN406      0.2627
    145  OD1       52.9510   33.8460   51.4760 O.2   406  ASN406     -0.2716
    146  ND2       52.9440   31.7610   52.3520 N.am  406  ASN406     -0.0877
    147  N         45.5070   30.7720   45.3410 N.3   411  LYS411     -0.1231
    148  CA        46.8360   31.0210   44.8010 C.3   411  LYS411      0.1693
    149  C         46.8600   32.3750   44.0770 C.2   411  LYS411      0.2592
    150  O         47.9290   32.8870   43.7830 O.2   411  LYS411     -0.2718
    151  CB        47.2900   29.8720   43.8650 C.3   411  LYS411      0.0285
    152  CG        46.3570   29.5490   42.6380 C.3   411  LYS411      0.0035
    153  CD        44.8550   29.4360   43.0590 C.3   411  LYS411      0.0206
    154  CE        44.0610   28.2890   42.4150 C.3   411  LYS411      0.1093
    155  NZ        43.2090   27.7100   43.4840 N.3   411  LYS411     -0.1314
    156  N         45.6890   32.9590   43.8280 N.am  412  ASN412     -0.1960
    157  CA        45.6000   34.2050   43.0670 C.3   412  ASN412      0.1819
    158  C         45.6290   35.4980   43.8860 C.2   412  ASN412      0.2621
    159  O         45.4800   36.6110   43.3530 O.2   412  ASN412     -0.2715
    160  CB        44.4110   34.1670   42.1050 C.3   412  ASN412      0.1195
    161  CG        44.6530   33.2240   40.9230 C.2   412  ASN412      0.2630
    162  OD1       45.7810   33.0320   40.4990 O.2   412  ASN412     -0.2716
    163  ND2       43.5970   32.6300   40.4070 N.am  412  ASN412     -0.0877
    164  N         45.8540   35.3610   45.1800 N.am  413  VAL413     -0.1963
    165  CA        45.9120   36.5260   46.0190 C.3   413  VAL413      0.1727
    166  C         47.0630   36.3980   46.9770 C.2   413  VAL413      0.2616
    167  O         47.3180   35.3220   47.5150 O.2   413  VAL413     -0.2715
    168  CB        44.6310   36.7240   46.8280 C.3   413  VAL413      0.0290
    169  CG1       44.6840   38.0770   47.5110 C.3   413  VAL413      0.0023
    170  CG2       43.4170   36.6420   45.9270 C.3   413  VAL413      0.0023
    171  N         47.7450   37.5150   47.1950 N.am  414  TRP414     -0.1974
    172  CA        48.8720   37.5750   48.0850 C.3   414  TRP414      0.1640
    173  C         48.9450   38.9870   48.5870 C.2   414  TRP414      0.2290
    174  O         48.5510   39.9150   47.8810 O.2   414  TRP414     -0.2864
    175  CB        50.1300   37.2390   47.3190 C.3   414  TRP414      0.0576
    176  CG        51.3670   37.3160   48.1080 C.ar  414  TRP414      0.0006
    177  CD1       51.9820   36.2890   48.7560 C.ar  414  TRP414      0.0946
    178  CD2       52.1650   38.4830   48.3530 C.ar  414  TRP414      0.0152
    179  NE1       53.1190   36.7360   49.3840 N.ar  414  TRP414     -0.2442
    180  CE2       53.2640   38.0760   49.1460 C.ar  414  TRP414      0.0810
    181  CE3       52.0650   39.8260   47.9690 C.ar  414  TRP414      0.0012
    182  CZ2       54.2520   38.9580   49.5760 C.ar  414  TRP414      0.0191
    183  CZ3       53.0550   40.7210   48.4110 C.ar  414  TRP414      0.0001
    184  CH2       54.1420   40.2690   49.1990 C.ar  414  TRP414      0.0015
    185  N         50.9800   41.5890   52.0440 N.3   416  TYR416     -0.1241
    186  CA        52.0590   41.8100   52.9870 C.3   416  TYR416      0.1605
    187  C         51.6450   43.0150   53.8210 C.2   416  TYR416      0.2264
    188  O         50.8370   43.8360   53.3800 O.2   416  TYR416     -0.2867
    189  CB        53.3820   42.1340   52.2310 C.3   416  TYR416      0.0534
    190  CG        53.3960   43.5680   51.7500 C.ar  416  TYR416     -0.0201
    191  CD1       52.8450   43.9050   50.5220 C.ar  416  TYR416     -0.0009
    192  CD2       53.8970   44.6000   52.5550 C.ar  416  TYR416     -0.0009
    193  CE1       52.8070   45.2200   50.0870 C.ar  416  TYR416      0.0417
    194  CE2       53.8470   45.9270   52.1380 C.ar  416  TYR416      0.0417
    195  CZ        53.2950   46.2260   50.9030 C.ar  416  TYR416      0.1957
    196  OH        53.2290   47.5270   50.4540 O.3   416  TYR416     -0.2866
    197  N         47.2930   41.8910   46.6110 N.3   426  PHE426     -0.1227
    198  CA        47.1820   41.8480   45.1480 C.3   426  PHE426      0.1736
    199  C         46.3900   40.6230   44.7270 C.2   426  PHE426      0.2596
    200  O         46.6880   39.4970   45.1700 O.2   426  PHE426     -0.2718
    201  CB        48.5690   41.7640   44.4710 C.3   426  PHE426      0.0547
    202  CG        49.4870   42.8830   44.8270 C.ar  426  PHE426     -0.0202
    203  CD1       50.2910   42.8030   45.9540 C.ar  426  PHE426     -0.0042
    204  CD2       49.5400   44.0280   44.0380 C.ar  426  PHE426     -0.0042
    205  CE1       51.1340   43.8310   46.2950 C.ar  426  PHE426     -0.0003
    206  CE2       50.3930   45.0900   44.3690 C.ar  426  PHE426     -0.0003
    207  CZ        51.1920   44.9890   45.4950 C.ar  426  PHE426     -0.0000
    208  N         45.4090   40.8290   43.8530 N.am  427  SER427     -0.1938
    209  CA        44.5400   39.7350   43.4200 C.3   427  SER427      0.2055
    210  C         44.3920   39.6370   41.8860 C.2   427  SER427      0.2643
    211  O         44.1830   40.6430   41.1830 O.2   427  SER427     -0.2714
    212  CB        43.1740   39.8410   44.1080 C.3   427  SER427      0.2130
    213  OG        42.2290   38.9800   43.5080 O.3   427  SER427     -0.2179
    214  N         44.4750   38.4110   41.3780 N.am  428  TRP428     -0.1973
    215  CA        44.3520   38.2300   39.9570 C.3   428  TRP428      0.1640
    216  C         43.0980   37.4290   39.6790 C.2   428  TRP428      0.2290
    217  O         42.8220   36.4610   40.3780 O.2   428  TRP428     -0.2864
    218  CB        45.5980   37.5640   39.3530 C.3   428  TRP428      0.0576
    219  CG        45.4700   37.4070   37.8480 C.ar  428  TRP428      0.0006
    220  CD1       45.8360   38.3170   36.8940 C.ar  428  TRP428      0.0946
    221  CD2       44.9030   36.2890   37.1380 C.ar  428  TRP428      0.0152
    222  NE1       45.5450   37.8330   35.6410 N.ar  428  TRP428     -0.2442
    223  CE2       44.9640   36.5960   35.7610 C.ar  428  TRP428      0.0810
    224  CE3       44.3310   35.0740   37.5370 C.ar  428  TRP428      0.0012
    225  CZ2       44.4960   35.7180   34.7640 C.ar  428  TRP428      0.0191
    226  CZ3       43.8690   34.1810   36.5370 C.ar  428  TRP428      0.0001
    227  CH2       43.9550   34.5170   35.1660 C.ar  428  TRP428      0.0015
@<TRIPOS>BOND
     1   114   112    1
     2   113   112    1
     3   112   109    1
     4   109   108    1
     5   109   110    1
     6   110   115   am
     7   110   111    2
     8   115   116    1
     9   103   102    2
    10    94    93    2
    11   118   117    2
    12   225   227   ar
    13   225   223   ar
    14   102   101    1
    15   227   226   ar
    16   117   116    1
    17   116   119    1
    18   119   120    1
    19    93    92    1
    20    93   100   am
    21   222   223   ar
    22   222   220   ar
    23   223   221   ar
    24    92    91    1
    25    92    95    1
    26   101   100    1
    27   101   104    1
    28   226   224   ar
    29   120   122   am
    30   120   121    2
    31   220   219   ar
    32   221   224   ar
    33   221   219   ar
    34    95    96    1
    35   104   105    1
    36    96    97    1
    37   123   124    1
    38    45    44    2
    39   105   106    1
    40   107   106    1
    41   219   218    1
    42   129   127    1
    43    98    97   ar
    44    44    43    1
    45    77    76    2
    46    97    99   ar
    47    87    86    2
    48   127   124    1
    49   127   128    1
    50   124   125    1
    51    47    48    1
    52    47    46    1
    53    48    49    1
    54    39    38    2
    55   218   215    1
    56   126   125    2
    57    86    85    1
    58   216   215    1
    59   216   217    2
    60    76    75    1
    61    76    84   am
    62    78    75    1
    63    78    79    1
    64    43    46    1
    65    43    42    1
    66   215   214    1
    67    75    74    1
    68    81    79   ar
    69    81    83   ar
    70    49    50    2
    71    38    37    1
    72    85    84    1
    73    85    88    1
    74   163   161   am
    75   162   161    2
    76    79    80   ar
    77    84    90    1
    78    51    50    1
    79    40    37    1
    80    40    41    1
    81   161   160    1
    82    50    52    1
    83   211   210    2
    84    37    36    1
    85    83    82   ar
    86   214   210   am
    87    24    23    1
    88    88    89    1
    89    80    82   ar
    90   210   209    1
    91   160   157    1
    92    90    89    1
    93   154   153    1
    94   154   155    1
    95    28    27    2
    96   152   153    1
    97   152   151    1
    98    36    27   am
    99    23    22    1
   100   157   156    1
   101   157   158    1
   102    27    26    1
   103   159   158    2
   104   209   208    1
   105   209   212    1
   106   213   212    1
   107   150   149    2
   108   156   149   am
   109   208   199   am
   110   151   148    1
   111   158   164   am
   112    19    18    2
   113    22    21    1
   114   204   206   ar
   115   204   202   ar
   116   149   148    1
   117    67    68    1
   118   206   207   ar
   119    21    20    1
   120    65    63   ar
   121    65    66   ar
   122   201   202    1
   123   201   198    1
   124    69    70    2
   125    69    68    1
   126    63    60   ar
   127    26    25    1
   128    26    29    1
   129   199   198    1
   130   199   200    2
   131   148   147    1
   132   202   203   ar
   133    18    17    1
   134   198   197    1
   135    68    71    1
   136   164   165    1
   137    57    54    1
   138    57    58    1
   139    53    54    1
   140    29    30    1
   141   207   205   ar
   142    54    55    1
   143    66    64   ar
   144    60    58   ar
   145    60    62   ar
   146    20    17    1
   147   170   168    1
   148   203   205   ar
   149    17    16    1
   150    58    59   ar
   151   165   168    1
   152   165   166    1
   153    72    71    1
   154    71    73    1
   155    64    62   ar
   156    62    61   ar
   157    30    31    1
   158   168   169    1
   159    55    56    2
   160   166   171   am
   161   166   167    2
   162   171   172    1
   163    12    11    2
   164    59    61   ar
   165   175   172    1
   166   175   176    1
   167    16    11   am
   168    31    32    1
   169    11    10    1
   170   174   173    2
   171   181   178   ar
   172   181   183   ar
   173   172   173    1
   174   176   178   ar
   175   176   177   ar
   176   178   180   ar
   177   183   184   ar
   178   177   179   ar
   179    32    33    2
   180     4     3    2
   181   180   179   ar
   182   180   182   ar
   183   184   182   ar
   184    10     9    1
   185    10    13    1
   186    34    33    1
   187    33    35    1
   188     3     2    1
   189    14    13    1
   190   193   191   ar
   191   193   195   ar
   192     6     8    1
   193     6     5    1
   194    13    15    1
   195   196   195    1
   196   191   190   ar
   197     7     5    1
   198   195   194   ar
   199     5     2    1
   200     2     1    1
   201   143   140    1
   202   143   144    1
   203   145   144    2
   204   140   141    1
   205   140   139    1
   206   137   136   ar
   207   190   189    1
   208   190   192   ar
   209   144   146   am
   210   141   142    2
   211   185   186    1
   212   194   192   ar
   213   189   186    1
   214   136   138   ar
   215   136   135    1
   216   186   187    1
   217   135   134    1
   218   188   187    2
   219   134   131    1
   220   131   132    1
   221   131   130    1
   222   132   133    2
