@<TRIPOS>MOLECULE
tmp/5kkrA00.pdb
 175 166 0 0 0
SMALL
GASTEIGER

@<TRIPOS>ATOM
      1  N        -75.4060   61.0950   -5.7660 N.3    23  ILE23      -0.1231
      2  CA       -74.8970   60.4140   -4.5800 C.3    23  ILE23       0.1692
      3  C        -73.3710   60.4310   -4.5400 C.2    23  ILE23       0.2592
      4  O        -72.7480   59.5800   -3.9050 O.2    23  ILE23      -0.2718
      5  CB       -75.3900   58.9550   -4.5130 C.3    23  ILE23       0.0266
      6  CG1      -75.0440   58.2140   -5.8060 C.3    23  ILE23       0.0019
      7  CG2      -76.8910   58.9080   -4.2630 C.3    23  ILE23       0.0020
      8  CD1      -75.4740   56.7630   -5.8110 C.3    23  ILE23       0.0001
      9  N        -72.7750   61.4080   -5.2170 N.am   24  GLY24      -0.1957
     10  CA       -71.3300   61.5330   -5.2580 C.3    24  GLY24       0.1869
     11  C        -70.8640   62.9090   -5.6930 C.2    24  GLY24       0.2309
     12  O        -69.6650   63.1820   -5.7360 O.2    24  GLY24      -0.2863
     13  N        -70.8520   61.1410   -8.8790 N.3    28  VAL28      -0.1245
     14  CA       -71.5260   59.8510   -8.9760 C.3    28  VAL28       0.1561
     15  C        -73.0410   60.0130   -8.9180 C.2    28  VAL28       0.2260
     16  O        -73.5850   60.4830   -7.9190 O.2    28  VAL28      -0.2867
     17  CB       -71.0860   58.8960   -7.8510 C.3    28  VAL28       0.0252
     18  CG1      -71.7790   57.5510   -7.9980 C.3    28  VAL28       0.0019
     19  CG2      -69.5750   58.7280   -7.8530 C.3    28  VAL28       0.0019
     20  N        -77.0310   58.3810   -9.2790 N.3    30  HIS30      -0.1241
     21  CA       -77.8120   57.1720   -9.0580 C.3    30  HIS30       0.1621
     22  C        -78.7070   56.8900  -10.2620 C.2    30  HIS30       0.2264
     23  O        -79.9290   57.0140  -10.1850 O.2    30  HIS30      -0.2867
     24  CB       -78.6470   57.3080   -7.7820 C.3    30  HIS30       0.0745
     25  CG       -79.3670   56.0570   -7.3890 C.ar   30  HIS30       0.0817
     26  ND1      -80.7170   55.8770   -7.6050 N.ar   30  HIS30      -0.2268
     27  CD2      -78.9290   54.9260   -6.7880 C.ar   30  HIS30       0.1154
     28  CE1      -81.0770   54.6890   -7.1560 C.ar   30  HIS30       0.1986
     29  NE2      -80.0120   54.0910   -6.6560 N.ar   30  HIS30      -0.2212
     30  N        -75.0300   52.6640  -11.1360 N.3    38  ALA38      -0.1231
     31  CA       -74.2700   53.8620  -10.7940 C.3    38  ALA38       0.1694
     32  C        -73.6530   54.5040  -12.0340 C.2    38  ALA38       0.2592
     33  O        -73.1960   53.8080  -12.9400 O.2    38  ALA38      -0.2718
     34  CB       -73.1910   53.5280   -9.7800 C.3    38  ALA38       0.0304
     35  N        -73.6420   55.8330  -12.0690 N.am   39  ILE39      -0.1966
     36  CA       -73.1030   56.5720  -13.2100 C.3    39  ILE39       0.1727
     37  C        -72.1550   57.6860  -12.7670 C.2    39  ILE39       0.2616
     38  O        -72.5440   58.5720  -12.0050 O.2    39  ILE39      -0.2715
     39  CB       -74.2300   57.1950  -14.0660 C.3    39  ILE39       0.0290
     40  CG1      -75.2440   56.1300  -14.4930 C.3    39  ILE39       0.0022
     41  CG2      -73.6490   57.8910  -15.2820 C.3    39  ILE39       0.0023
     42  CD1      -76.3780   56.6700  -15.3390 C.3    39  ILE39       0.0001
     43  N        -70.9140   57.6440  -13.2470 N.am   40  ARG40      -0.1977
     44  CA       -69.9350   58.6780  -12.9180 C.3    40  ARG40       0.1597
     45  C        -69.7560   59.6660  -14.0650 C.2    40  ARG40       0.2287
     46  O        -69.6550   59.2730  -15.2270 O.2    40  ARG40      -0.2864
     47  CB       -68.5820   58.0560  -12.5520 C.3    40  ARG40       0.0334
     48  CG       -68.1330   58.3700  -11.1310 C.3    40  ARG40       0.0492
     49  CD       -66.6900   58.8620  -11.0690 C.3    40  ARG40       0.2205
     50  NE       -65.7190   57.8020  -11.3270 N.pl3  40  ARG40      -0.0865
     51  CZ       -64.4000   57.9690  -11.2720 C.cat  40  ARG40       0.5346
     52  NH1      -63.8910   59.1560  -10.9700 N.pl3  40  ARG40       0.1354
     53  NH2      -63.5890   56.9500  -11.5210 N.pl3  40  ARG40       0.1354
     54  N        -61.9010   47.0520  -20.5960 N.3    62  TYR62      -0.1241
     55  CA       -62.6970   46.6100  -19.4560 C.3    62  TYR62       0.1605
     56  C        -63.8420   45.7280  -19.9270 C.2    62  TYR62       0.2264
     57  O        -64.5160   45.0830  -19.1250 O.2    62  TYR62      -0.2867
     58  CB       -63.2350   47.7980  -18.6600 C.3    62  TYR62       0.0534
     59  CG       -62.2110   48.4270  -17.7440 C.ar   62  TYR62      -0.0201
     60  CD1      -60.8520   48.2140  -17.9390 C.ar   62  TYR62      -0.0009
     61  CD2      -62.6020   49.2170  -16.6740 C.ar   62  TYR62      -0.0009
     62  CE1      -59.9150   48.7820  -17.1050 C.ar   62  TYR62       0.0417
     63  CE2      -61.6710   49.7870  -15.8310 C.ar   62  TYR62       0.0417
     64  CZ       -60.3280   49.5670  -16.0530 C.ar   62  TYR62       0.1957
     65  OH       -59.3930   50.1310  -15.2190 O.3    62  TYR62      -0.2866
     66  N        -66.7530   44.7270   -9.7090 N.3    71  VAL71      -0.1245
     67  CA       -67.9910   45.3770  -10.1240 C.3    71  VAL71       0.1561
     68  C        -68.2120   45.2270  -11.6240 C.2    71  VAL71       0.2260
     69  O        -67.2690   45.2800  -12.4160 O.2    71  VAL71      -0.2867
     70  CB       -68.0090   46.8760   -9.7520 C.3    71  VAL71       0.0252
     71  CG1      -68.0000   47.0480   -8.2410 C.3    71  VAL71       0.0019
     72  CG2      -66.8370   47.6090  -10.3900 C.3    71  VAL71       0.0019
     73  N        -68.5710   46.2860  -14.8850 N.3    73  PHE73      -0.1241
     74  CA       -68.3300   47.4710  -15.6950 C.3    73  PHE73       0.1605
     75  C        -69.2870   47.4930  -16.8820 C.2    73  PHE73       0.2264
     76  O        -69.0300   46.8640  -17.9090 O.2    73  PHE73      -0.2867
     77  CB       -66.8770   47.5050  -16.1740 C.3    73  PHE73       0.0534
     78  CG       -66.4020   48.8720  -16.5780 C.ar   73  PHE73      -0.0203
     79  CD1      -66.4150   49.2610  -17.9080 C.ar   73  PHE73      -0.0042
     80  CD2      -65.9400   49.7670  -15.6270 C.ar   73  PHE73      -0.0042
     81  CE1      -65.9760   50.5190  -18.2810 C.ar   73  PHE73      -0.0003
     82  CE2      -65.5000   51.0270  -15.9940 C.ar   73  PHE73      -0.0003
     83  CZ       -65.5180   51.4030  -17.3230 C.ar   73  PHE73      -0.0000
     84  N        -68.7660   57.1770  -17.0890 N.3    85  ILE85      -0.1245
     85  CA       -68.5240   55.7710  -16.7770 C.3    85  ILE85       0.1561
     86  C        -69.7650   55.1150  -16.1790 C.2    85  ILE85       0.2260
     87  O        -70.3180   55.5950  -15.1880 O.2    85  ILE85      -0.2867
     88  CB       -67.3460   55.6020  -15.7980 C.3    85  ILE85       0.0252
     89  CG1      -66.0330   56.0100  -16.4680 C.3    85  ILE85       0.0019
     90  CG2      -67.2600   54.1660  -15.3060 C.3    85  ILE85       0.0019
     91  CD1      -64.8180   55.8450  -15.5780 C.3    85  ILE85       0.0001
     92  N        -71.4760   51.7360  -14.4620 N.3    87  THR87      -0.1203
     93  CA       -71.1430   50.5170  -13.7300 C.3    87  THR87       0.1994
     94  C        -72.3090   50.0480  -12.8640 C.2    87  THR87       0.2619
     95  O        -73.1950   50.8310  -12.5220 O.2    87  THR87      -0.2717
     96  CB       -69.8990   50.7160  -12.8380 C.3    87  THR87       0.1784
     97  OG1      -69.5730   49.4820  -12.1880 O.3    87  THR87      -0.2211
     98  CG2      -70.1560   51.7830  -11.7860 C.3    87  THR87       0.0376
     99  N        -72.3010   48.7650  -12.5140 N.am   88  SER88      -0.1937
    100  CA       -73.3530   48.1860  -11.6840 C.3    88  SER88       0.2055
    101  C        -73.3640   48.8030  -10.2900 C.2    88  SER88       0.2643
    102  O        -72.3120   49.0070   -9.6840 O.2    88  SER88      -0.2714
    103  CB       -73.1800   46.6690  -11.5850 C.3    88  SER88       0.2130
    104  OG       -74.1850   46.0910  -10.7710 O.3    88  SER88      -0.2179
    105  N        -74.5580   49.0990   -9.7860 N.am   89  LEU89      -0.1963
    106  CA       -74.7010   49.7060   -8.4670 C.3    89  LEU89       0.1728
    107  C        -74.5080   48.6730   -7.3650 C.2    89  LEU89       0.2616
    108  O        -75.1190   47.6050   -7.3880 O.2    89  LEU89      -0.2715
    109  CB       -76.0720   50.3700   -8.3200 C.3    89  LEU89       0.0311
    110  CG       -76.2720   51.1690   -7.0290 C.3    89  LEU89       0.0022
    111  CD1      -75.4410   52.4410   -7.0550 C.3    89  LEU89       0.0001
    112  CD2      -77.7390   51.4900   -6.7940 C.3    89  LEU89       0.0001
    113  N        -73.6550   48.9960   -6.4000 N.am   90  CYS90      -0.1968
    114  CA       -73.4130   48.1040   -5.2740 C.3    90  CYS90       0.1712
    115  C        -74.5070   48.2640   -4.2260 C.2    90  CYS90       0.2296
    116  O        -74.6650   49.3320   -3.6340 O.2    90  CYS90      -0.2864
    117  CB       -72.0390   48.3730   -4.6630 C.3    90  CYS90       0.0983
    118  SG       -70.6770   48.2040   -5.8380 S.3    90  CYS90      -0.0798
    119  N        -75.1540   48.0440   -1.1760 N.3    92  GLY92      -0.1225
    120  CA       -74.6800   48.0400    0.1950 C.3    92  GLY92       0.1811
    121  C        -73.8100   49.2380    0.5220 C.2    92  GLY92       0.2280
    122  O        -73.8990   50.2810   -0.1270 O.2    92  GLY92      -0.2866
    123  N        -62.7690   51.7200   -1.9520 N.3   139  ASN139     -0.1240
    124  CA       -63.1070   51.1570   -3.2510 C.3   139  ASN139      0.1653
    125  C        -63.5570   49.7030   -3.1350 C.2   139  ASN139      0.2266
    126  O        -63.3960   48.9140   -4.0670 O.2   139  ASN139     -0.2867
    127  CB       -61.9150   51.2640   -4.2020 C.3   139  ASN139      0.1155
    128  CG       -61.4830   52.6990   -4.4390 C.2   139  ASN139      0.2627
    129  OD1      -60.2910   53.0050   -4.4550 O.2   139  ASN139     -0.2716
    130  ND2      -62.4530   53.5870   -4.6210 N.am  139  ASN139     -0.0877
    131  N        -66.9590   47.3420   -1.5680 N.3   141  PHE141     -0.1241
    132  CA       -68.3100   47.3710   -1.0130 C.3   141  PHE141      0.1605
    133  C        -68.6860   46.0710   -0.2970 C.2   141  PHE141      0.2264
    134  O        -68.2880   44.9810   -0.7080 O.2   141  PHE141     -0.2867
    135  CB       -69.3280   47.6740   -2.1150 C.3   141  PHE141      0.0534
    136  CG       -69.3100   49.1050   -2.5790 C.ar  141  PHE141     -0.0203
    137  CD1      -70.2210   50.0200   -2.0780 C.ar  141  PHE141     -0.0042
    138  CD2      -68.3800   49.5340   -3.5120 C.ar  141  PHE141     -0.0042
    139  CE1      -70.2090   51.3370   -2.5020 C.ar  141  PHE141     -0.0003
    140  CE2      -68.3620   50.8490   -3.9390 C.ar  141  PHE141     -0.0003
    141  CZ       -69.2780   51.7520   -3.4330 C.ar  141  PHE141     -0.0000
    142  N        -64.1690   48.2530   -6.9710 N.3   150  THR150     -0.1203
    143  CA       -64.4300   49.2650   -7.9930 C.3   150  THR150      0.1994
    144  C        -63.3000   50.2920   -8.0710 C.2   150  THR150      0.2618
    145  O        -62.3250   50.2070   -7.3230 O.2   150  THR150     -0.2717
    146  CB       -65.7600   49.9980   -7.7310 C.3   150  THR150      0.1784
    147  OG1      -66.0430   50.8910   -8.8160 O.3   150  THR150     -0.2211
    148  CG2      -65.6900   50.7860   -6.4300 C.3   150  THR150      0.0376
    149  N        -63.4480   51.2570   -8.9790 N.am  151  ASP151     -0.1959
    150  CA       -62.4510   52.3070   -9.2090 C.3   151  ASP151      0.1840
    151  C        -61.0650   51.7160   -9.4540 C.2   151  ASP151      0.2622
    152  O        -60.0650   52.2090   -8.9320 O.2   151  ASP151     -0.2715
    153  CB       -62.4050   53.2810   -8.0270 C.3   151  ASP151      0.1450
    154  CG       -61.9170   54.6650   -8.4270 C.2   151  ASP151      0.3671
    155  OD1      -62.3000   55.6480   -7.7570 O.co2 151  ASP151     -0.2456
    156  OD2      -61.1590   54.7740   -9.4150 O.co2 151  ASP151     -0.2456
    157  N        -61.0160   50.6570  -10.2530 N.am  152  PHE152     -0.1974
    158  CA       -59.7710   49.9430  -10.4980 C.3   152  PHE152      0.1639
    159  C        -59.1620   50.3070  -11.8480 C.2   152  PHE152      0.2290
    160  O        -59.8740   50.4620  -12.8400 O.2   152  PHE152     -0.2864
    161  CB       -59.9990   48.4300  -10.4150 C.3   152  PHE152      0.0560
    162  CG       -61.0370   47.9130  -11.3750 C.ar  152  PHE152     -0.0200
    163  CD1      -62.3800   47.9060  -11.0320 C.ar  152  PHE152     -0.0042
    164  CD2      -60.6670   47.4230  -12.6160 C.ar  152  PHE152     -0.0042
    165  CE1      -63.3340   47.4290  -11.9140 C.ar  152  PHE152     -0.0003
    166  CE2      -61.6160   46.9440  -13.5010 C.ar  152  PHE152     -0.0003
    167  CZ       -62.9510   46.9470  -13.1490 C.ar  152  PHE152     -0.0000
    168  N        -58.3420   52.7240  -13.4830 N.3   154  LEU154     -0.1245
    169  CA       -58.5490   54.0510  -14.0460 C.3   154  LEU154      0.1561
    170  C        -57.8230   55.1210  -13.2400 C.2   154  LEU154      0.2260
    171  O        -58.3650   55.6610  -12.2740 O.2   154  LEU154     -0.2867
    172  CB       -60.0400   54.3830  -14.1230 C.3   154  LEU154      0.0270
    173  CG       -60.6360   54.5270  -15.5280 C.3   154  LEU154      0.0019
    174  CD1      -59.6350   55.1720  -16.4790 C.3   154  LEU154      0.0001
    175  CD2      -61.0890   53.1850  -16.0720 C.3   154  LEU154      0.0001
@<TRIPOS>BOND
     1    54    55    1
     2    56    55    1
     3    56    57    2
     4    55    58    1
     5    58    59    1
     6    81    79   ar
     7    81    83   ar
     8    60    59   ar
     9    60    62   ar
    10    76    75    2
    11    79    78   ar
    12    59    61   ar
    13    83    82   ar
    14    62    64   ar
    15    84    85    1
    16    75    74    1
    17    85    86    1
    18    85    88    1
    19    61    63   ar
    20    78    77    1
    21    78    80   ar
    22   174   173    1
    23    89    88    1
    24    89    91    1
    25    86    87    2
    26    77    74    1
    27   175   173    1
    28    64    63   ar
    29    64    65    1
    30    82    80   ar
    31    88    90    1
    32    74    73    1
    33   173   172    1
    34    42    40    1
    35    41    39    1
    36    46    45    2
    37    40    39    1
    38    92    93    1
    39   172   169    1
    40    39    36    1
    41    45    44    1
    42   169   168    1
    43   169   170    1
    44    93    94    1
    45    93    96    1
    46   166   167   ar
    47   166   164   ar
    48    43    44    1
    49    43    37   am
    50   170   171    2
    51    36    37    1
    52    36    35    1
    53   167   165   ar
    54    33    32    2
    55    44    47    1
    56    94    95    2
    57    94    99   am
    58   160   159    2
    59    96    97    1
    60    96    98    1
    61    37    38    2
    62   164   162   ar
    63    47    48    1
    64    99   100    1
    65    69    68    2
    66    35    32   am
    67    32    31    1
    68   165   163   ar
    69   159   158    1
    70   100   103    1
    71   100   101    1
    72    68    67    1
    73   103   104    1
    74    53    51    1
    75   162   163   ar
    76   162   161    1
    77    50    51    2
    78    50    49    1
    79    51    52    1
    80    30    31    1
    81    48    49    1
    82    31    34    1
    83   158   161    1
    84   158   157    1
    85    72    70    1
    86   101   105   am
    87   101   102    2
    88    22    23    2
    89    22    21    1
    90   157   151   am
    91    67    70    1
    92    67    66    1
    93   105   106    1
    94    70    71    1
    95   151   150    1
    96   151   152    2
    97   156   154   ar
    98    20    21    1
    99   150   149    1
   100   150   153    1
   101    21    24    1
   102   149   144   am
   103    14    15    1
   104    14    13    1
   105    14    17    1
   106    15    16    2
   107   147   146    1
   108   106   109    1
   109   106   107    1
   110   154   153    1
   111   154   155   ar
   112   109   110    1
   113   144   143    1
   114   144   145    2
   115    18    17    1
   116   143   146    1
   117   143   142    1
   118    19    17    1
   119    24    25    1
   120   146   148    1
   121    26    25   ar
   122    26    28   ar
   123    25    27   ar
   124   108   107    2
   125   107   113   am
   126    28    29   ar
   127   111   110    1
   128   110   112    1
   129    27    29   ar
   130   113   114    1
   131   118   117    1
   132     8     6    1
   133     6     5    1
   134     1     2    1
   135    12    11    2
   136    11    10    1
   137   114   117    1
   138   114   115    1
   139    10     9    1
   140     9     3   am
   141   130   128   am
   142     2     3    1
   143     2     5    1
   144     3     4    2
   145     5     7    1
   146   129   128    2
   147   128   127    1
   148   115   116    2
   149   127   124    1
   150   126   125    2
   151   140   138   ar
   152   140   141   ar
   153   138   136   ar
   154   141   139   ar
   155   124   125    1
   156   124   123    1
   157   136   135    1
   158   136   137   ar
   159   139   137   ar
   160   135   132    1
   161   131   132    1
   162   119   120    1
   163   132   133    1
   164   134   133    2
   165   122   121    2
   166   120   121    1
