@<TRIPOS>MOLECULE
tmp/5kksB00.pdb
 197 190 0 0 0
SMALL
GASTEIGER

@<TRIPOS>ATOM
      1  N          1.9940  144.6960   21.1520 N.3    78  ILE78      -0.1231
      2  CA         0.6440  144.3700   20.6910 C.3    78  ILE78       0.1692
      3  C         -0.0920  143.4250   21.6410 C.2    78  ILE78       0.2593
      4  O         -1.1790  142.9680   21.3060 O.2    78  ILE78      -0.2718
      5  CB         0.6560  143.8690   19.2100 C.3    78  ILE78       0.0266
      6  CG1        1.5390  142.5910   19.0130 C.3    78  ILE78       0.0019
      7  CG2        1.0950  145.0110   18.2860 C.3    78  ILE78       0.0020
      8  CD1        1.7090  142.0850   17.5350 C.3    78  ILE78       0.0001
      9  N          0.4560  143.1950   22.8250 N.am   79  GLY79      -0.1942
     10  CA        -0.1740  142.3160   23.7990 C.3    79  GLY79       0.2014
     11  C          0.5600  142.2710   25.1150 C.2    79  GLY79       0.2639
     12  O          1.7620  142.5490   25.1710 O.2    79  GLY79      -0.2714
     13  N         -0.1610  141.9360   26.1880 N.am   80  ARG80      -0.1963
     14  CA         0.4270  141.8190   27.5210 C.3    80  ARG80       0.1729
     15  C         -0.2730  140.7060   28.2980 C.2    80  ARG80       0.2617
     16  O         -1.3200  140.2030   27.8720 O.2    80  ARG80      -0.2715
     17  CB         0.3890  143.1620   28.2580 C.3    80  ARG80       0.0348
     18  CG         1.3280  143.2760   29.4620 C.3    80  ARG80       0.0492
     19  CD         2.5290  144.1690   29.2260 C.3    80  ARG80       0.2205
     20  NE         2.2060  145.4250   28.5310 N.pl3  80  ARG80      -0.0865
     21  CZ         3.1020  146.3590   28.2140 C.cat  80  ARG80       0.5346
     22  NH1        4.3750  146.2120   28.5570 N.pl3  80  ARG80       0.1354
     23  NH2        2.7280  147.4540   27.5650 N.pl3  80  ARG80       0.1354
     24  N          0.3630  140.2940   29.3880 N.am   81  GLY81      -0.1940
     25  CA        -0.0820  139.2350   30.2840 C.3    81  GLY81       0.2014
     26  C          0.6550  139.2910   31.6080 C.2    81  GLY81       0.2639
     27  O          1.4870  140.1880   31.8290 O.2    81  GLY81      -0.2714
     28  N          0.3430  138.3280   32.4960 N.am   82  ALA82      -0.1963
     29  CA         0.8920  138.2370   33.8460 C.3    82  ALA82       0.1728
     30  C          2.3950  138.1300   33.8620 C.2    82  ALA82       0.2616
     31  O          3.0670  138.9240   34.5320 O.2    82  ALA82      -0.2715
     32  CB         0.2880  137.0450   34.5670 C.3    82  ALA82       0.0334
     33  N          2.9150  137.1240   33.1320 N.am   83  PHE83      -0.1960
     34  CA         4.3310  136.8100   33.0250 C.3    83  PHE83       0.1771
     35  C          5.0420  137.5270   31.8900 C.2    83  PHE83       0.2620
     36  O          6.1900  137.9130   32.0780 O.2    83  PHE83      -0.2715
     37  CB         4.5480  135.3040   32.9120 C.3    83  PHE83       0.0574
     38  CG         4.0450  134.5170   34.0920 C.ar   83  PHE83      -0.0200
     39  CD1        4.6950  134.5780   35.3170 C.ar   83  PHE83      -0.0042
     40  CD2        2.9520  133.6710   33.9670 C.ar   83  PHE83      -0.0042
     41  CE1        4.2510  133.8190   36.4030 C.ar   83  PHE83      -0.0003
     42  CE2        2.5060  132.9120   35.0530 C.ar   83  PHE83      -0.0003
     43  CZ         3.1550  132.9970   36.2670 C.ar   83  PHE83      -0.0000
     44  N          4.3950  137.7020   30.7340 N.am   84  GLY84      -0.1940
     45  CA         5.0810  138.3510   29.6240 C.3    84  GLY84       0.2014
     46  C          4.2900  139.3510   28.8250 C.2    84  GLY84       0.2642
     47  O          3.3060  139.9040   29.3060 O.2    84  GLY84      -0.2714
     48  N          4.7370  139.5770   27.5950 N.am   85  GLU85      -0.1917
     49  CA         4.1380  140.4740   26.6160 C.3    85  GLU85       0.1949
     50  C          4.4920  140.0060   25.2140 C.2    85  GLU85       0.2658
     51  O          5.5520  139.4040   25.0000 O.2    85  GLU85      -0.2711
     52  CB         4.5620  141.9470   26.8360 C.2    85  GLU85       0.0111
     53  CG         6.0530  142.2510   26.7520 C.2    85  GLU85       0.0838
     54  CD         6.4010  143.7220   26.5840 C.2    85  GLU85       0.3877
     55  OE1        6.7360  144.1300   25.4480 O.co2  85  GLU85      -0.2406
     56  OE2        6.3630  144.4650   27.5910 O.co2  85  GLU85      -0.2406
     57  N          3.5970  140.2510   24.2690 N.am   86  VAL86      -0.1974
     58  CA         3.8030  139.9120   22.8650 C.3    86  VAL86       0.1596
     59  C          4.1900  141.2220   22.2000 C.2    86  VAL86       0.2287
     60  O          3.7120  142.2700   22.6190 O.2    86  VAL86      -0.2864
     61  CB         2.5160  139.3060   22.2520 C.3    86  VAL86       0.0276
     62  CG1        2.6500  139.0710   20.7480 C.3    86  VAL86       0.0022
     63  CG2        2.1300  138.0230   22.9630 C.3    86  VAL86       0.0022
     64  N          5.9830  138.2630   15.2660 N.3    99  ALA99      -0.1245
     65  CA         5.3510  138.5040   16.5530 C.3    99  ALA99       0.1562
     66  C          6.2230  137.7070   17.5840 C.2    99  ALA99       0.2260
     67  O          6.5050  136.5170   17.3720 O.2    99  ALA99      -0.2867
     68  CB         3.9130  138.0160   16.5410 C.3    99  ALA99       0.0290
     69  N          6.7420  136.5920   21.5930 N.3   101  LYS101     -0.1231
     70  CA         6.2430  136.4120   22.9600 C.3   101  LYS101      0.1693
     71  C          7.4160  136.2840   23.9380 C.2   101  LYS101      0.2592
     72  O          8.2380  135.3690   23.8130 O.2   101  LYS101     -0.2718
     73  CB         5.3050  135.2040   23.0780 C.3   101  LYS101      0.0285
     74  CG         4.7170  135.0090   24.4860 C.3   101  LYS101      0.0035
     75  CD         3.4320  134.1780   24.4390 C.3   101  LYS101      0.0206
     76  CE         3.1300  133.4990   25.7410 C.3   101  LYS101      0.1093
     77  NZ         1.9640  132.5890   25.6210 N.3   101  LYS101     -0.1314
     78  N          7.4830  137.2230   24.9000 N.am  102  LEU102     -0.1966
     79  CA         8.4860  137.2950   25.9650 C.3   102  LEU102      0.1728
     80  C          7.9180  136.7040   27.2460 C.2   102  LEU102      0.2616
     81  O          6.7340  136.8910   27.5230 O.2   102  LEU102     -0.2715
     82  CB         8.8580  138.7540   26.2140 C.3   102  LEU102      0.0311
     83  CG        10.0220  139.2720   25.4120 C.3   102  LEU102      0.0022
     84  CD1        9.6000  139.6730   23.9840 C.3   102  LEU102      0.0001
     85  CD2       10.6820  140.4070   26.1330 C.3   102  LEU102      0.0001
     86  N          8.7320  135.9870   28.0220 N.am  103  LEU103     -0.1977
     87  CA         8.2610  135.4020   29.2780 C.3   103  LEU103      0.1596
     88  C          9.3290  135.5920   30.3530 C.2   103  LEU103      0.2287
     89  O         10.4110  135.0270   30.2230 O.2   103  LEU103     -0.2864
     90  CB         7.9070  133.8970   29.0970 C.3   103  LEU103      0.0297
     91  CG         6.6740  133.5040   28.2490 C.3   103  LEU103      0.0022
     92  CD1        6.5020  132.0110   28.2100 C.3   103  LEU103      0.0001
     93  CD2        5.4050  134.0690   28.8190 C.3   103  LEU103      0.0001
     94  N          4.5230  125.2660   31.5900 N.3   116  PHE116     -0.1241
     95  CA         3.4470  125.5470   30.6330 C.3   116  PHE116      0.1605
     96  C          3.9710  125.8320   29.2120 C.2   116  PHE116      0.2264
     97  O          3.4030  125.3310   28.2320 O.2   116  PHE116     -0.2867
     98  CB         2.5310  126.6710   31.1470 C.3   116  PHE116      0.0534
     99  CG         3.1760  128.0230   31.3580 C.ar  116  PHE116     -0.0203
    100  CD1        3.8050  128.3320   32.5570 C.ar  116  PHE116     -0.0042
    101  CD2        3.0970  129.0070   30.3840 C.ar  116  PHE116     -0.0042
    102  CE1        4.3700  129.5870   32.7690 C.ar  116  PHE116     -0.0003
    103  CE2        3.6560  130.2650   30.5990 C.ar  116  PHE116     -0.0003
    104  CZ         4.2800  130.5500   31.7960 C.ar  116  PHE116     -0.0000
    105  N          3.6750  124.8590   24.7120 N.3   120  GLU120     -0.1245
    106  CA         3.4850  126.0200   23.8330 C.3   120  GLU120      0.1567
    107  C          4.5530  126.0700   22.7350 C.2   120  GLU120      0.2260
    108  O          4.2410  126.4210   21.5950 O.2   120  GLU120     -0.2867
    109  CB         3.4260  127.3390   24.5930 C.3   120  GLU120      0.0388
    110  CG         2.4760  128.2860   23.8820 C.3   120  GLU120      0.1160
    111  CD         2.6640  129.7860   23.9890 C.2   120  GLU120      0.3649
    112  OE1        2.1570  130.4960   23.0900 O.co2 120  GLU120     -0.2457
    113  OE2        3.2680  130.2590   24.9780 O.co2 120  GLU120     -0.2457
    114  N          3.6270  124.8940   18.5420 N.3   124  MET124     -0.1245
    115  CA         3.9150  125.9000   17.5060 C.3   124  MET124      0.1570
    116  C          5.0820  125.5370   16.5700 C.2   124  MET124      0.2261
    117  O          5.0540  125.8940   15.3790 O.2   124  MET124     -0.2867
    118  CB         4.1560  127.2860   18.1210 C.3   124  MET124      0.0387
    119  CG         2.9510  127.8880   18.7650 C.3   124  MET124      0.0595
    120  SD         3.2090  129.6070   19.2150 S.3   124  MET124     -0.1393
    121  CE         4.6900  129.4800   20.2930 C.3   124  MET124      0.0692
    122  N         -0.4120  128.8850   14.7250 N.3   133  VAL133     -0.1245
    123  CA         0.6200  129.9270   14.5720 C.3   133  VAL133      0.1561
    124  C          1.9860  129.2290   14.6470 C.2   133  VAL133      0.2260
    125  O          2.2030  128.3990   15.5410 O.2   133  VAL133     -0.2867
    126  CB         0.5290  131.0660   15.6280 C.3   133  VAL133      0.0252
    127  CG1       -0.3810  132.1750   15.1660 C.3   133  VAL133      0.0019
    128  CG2        0.0980  130.5560   16.9940 C.3   133  VAL133      0.0019
    129  N          7.3900  134.1410   16.3030 N.3   149  MET149     -0.1230
    130  CA         6.3340  133.4710   15.5330 C.3   149  MET149      0.1702
    131  C          5.8600  134.2760   14.3340 C.2   149  MET149      0.2592
    132  O          6.2550  135.4390   14.1870 O.2   149  MET149     -0.2718
    133  CB         5.1310  133.1850   16.4370 C.3   149  MET149      0.0401
    134  CG         5.4700  132.4670   17.7110 C.3   149  MET149      0.0596
    135  SD         4.3000  132.8720   19.0000 S.3   149  MET149     -0.1393
    136  CE         4.7940  134.5430   19.4040 C.3   149  MET149      0.0692
    137  N          4.9770  133.6800   13.4860 N.am  150  GLU150     -0.1966
    138  CA         4.4160  134.4080   12.3320 C.3   150  GLU150      0.1733
    139  C          3.4060  135.4470   12.8070 C.2   150  GLU150      0.2616
    140  O          2.5310  135.1330   13.6400 O.2   150  GLU150     -0.2715
    141  CB         3.8180  133.4890   11.2480 C.3   150  GLU150      0.0429
    142  CG         2.6950  132.5660   11.7030 C.3   150  GLU150      0.1163
    143  CD         2.1410  131.6650   10.6150 C.2   150  GLU150      0.3649
    144  OE1        1.7240  130.5300   10.9460 O.co2 150  GLU150     -0.2457
    145  OE2        2.1570  132.0770    9.4300 O.co2 150  GLU150     -0.2457
    146  N          3.5720  136.7030   12.3200 N.am  151  TYR151     -0.1960
    147  CA         2.6870  137.8230   12.6550 C.3   151  TYR151      0.1771
    148  C          1.3360  137.6610   11.9710 C.2   151  TYR151      0.2619
    149  O          1.2860  137.4800   10.7550 O.2   151  TYR151     -0.2715
    150  CB         3.3320  139.1630   12.2780 C.3   151  TYR151      0.0574
    151  CG         2.4210  140.3630   12.4260 C.ar  151  TYR151     -0.0198
    152  CD1        1.8360  140.6730   13.6510 C.ar  151  TYR151     -0.0009
    153  CD2        2.2070  141.2360   11.3610 C.ar  151  TYR151     -0.0009
    154  CE1        1.0460  141.8080   13.8070 C.ar  151  TYR151      0.0417
    155  CE2        1.4200  142.3760   11.5050 C.ar  151  TYR151      0.0417
    156  CZ         0.8350  142.6510   12.7270 C.ar  151  TYR151      0.1957
    157  OH         0.0540  143.7650   12.8710 O.3   151  TYR151     -0.2866
    158  N          0.2600  137.7130   12.7640 N.am  152  MET152     -0.1977
    159  CA        -1.1210  137.5700   12.3090 C.3   152  MET152      0.1605
    160  C         -1.7100  138.9690   12.1660 C.2   152  MET152      0.2287
    161  O         -2.1170  139.5380   13.1650 O.2   152  MET152     -0.2864
    162  CB        -1.9020  136.7160   13.3210 C.3   152  MET152      0.0413
    163  CG        -1.4680  135.2770   13.3400 C.3   152  MET152      0.0598
    164  SD        -2.0390  134.4180   11.8580 S.3   152  MET152     -0.1393
    165  CE        -0.5100  134.1810   10.9930 C.3   152  MET152      0.0692
    166  N         -6.7670  133.9180   15.9580 N.3   201  LEU201     -0.1245
    167  CA        -6.1330  135.0040   15.2020 C.3   201  LEU201      0.1561
    168  C         -6.4360  134.8950   13.7300 C.2   201  LEU201      0.2260
    169  O         -6.7660  133.8130   13.2360 O.2   201  LEU201     -0.2867
    170  CB        -4.6180  135.0670   15.4610 C.3   201  LEU201      0.0270
    171  CG        -4.1200  135.8990   16.6540 C.3   201  LEU201      0.0019
    172  CD1       -4.8540  135.5690   17.9460 C.3   201  LEU201      0.0001
    173  CD2       -2.6590  135.6550   16.8780 C.3   201  LEU201      0.0001
    174  N         -3.9000  130.3530   18.7880 N.3   211  ALA211     -0.1231
    175  CA        -2.6620  130.8550   19.3920 C.3   211  ALA211      0.1694
    176  C         -2.7850  130.7530   20.9000 C.2   211  ALA211      0.2592
    177  O         -3.8240  130.3050   21.3800 O.2   211  ALA211     -0.2718
    178  CB        -2.4020  132.2900   18.9620 C.3   211  ALA211      0.0304
    179  N         -1.7250  131.1100   21.6530 N.am  212  ASP212     -0.1974
    180  CA        -1.7040  131.0240   23.1240 C.3   212  ASP212      0.1709
    181  C         -1.9550  129.5790   23.6200 C.2   212  ASP212      0.2293
    182  O         -2.9060  129.3080   24.3610 O.2   212  ASP212     -0.2864
    183  CB        -2.6660  132.0430   23.7660 C.3   212  ASP212      0.1436
    184  CG        -2.4290  132.3530   25.2330 C.2   212  ASP212      0.3671
    185  OD1       -1.9430  131.4570   25.9680 O.co2 212  ASP212     -0.2456
    186  OD2       -2.7640  133.4760   25.6590 O.co2 212  ASP212     -0.2456
    187  N         -4.5100  146.0140   16.0580 N.3   364  PHE364     -0.1241
    188  CA        -4.0000  145.8450   17.4070 C.3   364  PHE364      0.1605
    189  C         -3.9570  147.1670   18.1410 C.2   364  PHE364      0.2264
    190  O         -3.3340  148.1140   17.6540 O.2   364  PHE364     -0.2867
    191  CB        -2.6150  145.1530   17.3830 C.3   364  PHE364      0.0534
    192  CG        -2.6310  143.8070   16.7110 C.ar  364  PHE364     -0.0203
    193  CD1       -3.0230  142.6730   17.4040 C.ar  364  PHE364     -0.0042
    194  CD2       -2.2890  143.6770   15.3740 C.ar  364  PHE364     -0.0042
    195  CE1       -3.0750  141.4290   16.7730 C.ar  364  PHE364     -0.0003
    196  CE2       -2.3430  142.4330   14.7430 C.ar  364  PHE364     -0.0003
    197  CZ        -2.7380  141.3190   15.4500 C.ar  364  PHE364     -0.0000
@<TRIPOS>BOND
     1   145   143   ar
     2   143   144   ar
     3   143   142    1
     4   149   148    2
     5   165   164    1
     6   141   142    1
     7   141   138    1
     8   153   155   ar
     9   153   151   ar
    10   155   156   ar
    11   164   163    1
    12   148   147    1
    13   148   158   am
    14   160   159    1
    15   160   161    2
    16   150   151    1
    17   150   147    1
    18   159   158    1
    19   159   162    1
    20   146   147    1
    21   146   139   am
    22   138   139    1
    23   138   137    1
    24   151   152   ar
    25   156   157    1
    26   156   154   ar
    27   139   140    2
    28   169   168    2
    29   162   163    1
    30   137   131   am
    31   152   154   ar
    32   168   167    1
    33   132   131    2
    34   131   130    1
    35   123   124    1
    36   123   122    1
    37   123   126    1
    38   124   125    2
    39   196   194   ar
    40   196   197   ar
    41   127   126    1
    42   167   170    1
    43   167   166    1
    44    64    65    1
    45   194   192   ar
    46   117   116    2
    47   197   195   ar
    48   170   171    1
    49   130   129    1
    50   130   133    1
    51   126   128    1
    52   187   188    1
    53   133   134    1
    54    68    65    1
    55    65    66    1
    56   116   115    1
    57   171   173    1
    58   171   172    1
    59   192   191    1
    60   192   193   ar
    61   195   193   ar
    62    67    66    2
    63   191   188    1
    64   188   189    1
    65   115   118    1
    66   115   114    1
    67     8     6    1
    68   190   189    2
    69   134   135    1
    70   118   119    1
    71     7     5    1
    72   119   120    1
    73   174   175    1
    74   178   175    1
    75   135   136    1
    76     6     5    1
    77     5     2    1
    78   120   121    1
    79   175   176    1
    80     2     1    1
    81     2     3    1
    82    62    61    1
    83   176   177    2
    84   176   179   am
    85     4     3    2
    86    69    70    1
    87   108   107    2
    88     3     9   am
    89   179   180    1
    90    59    60    2
    91    59    58    1
    92    61    58    1
    93    61    63    1
    94   107   106    1
    95     9    10    1
    96    58    57    1
    97    70    73    1
    98    70    71    1
    99    73    74    1
   100   112   111   ar
   101   180   181    1
   102   180   183    1
   103   181   182    2
   104   183   184    1
   105    10    11    1
   106    72    71    2
   107   106   109    1
   108   106   105    1
   109   110   111    1
   110   110   109    1
   111    71    78   am
   112    84    83    1
   113   111   113   ar
   114    57    50   am
   115    75    74    1
   116    75    76    1
   117    78    79    1
   118    51    50    2
   119    11    12    2
   120    11    13   am
   121    50    49    1
   122   184   186   ar
   123   184   185   ar
   124    83    85    1
   125    83    82    1
   126    55    54   ar
   127    77    76    1
   128    79    82    1
   129    79    80    1
   130    13    14    1
   131    54    53    1
   132    54    56   ar
   133    49    52    1
   134    49    48    1
   135    53    52    2
   136    80    81    2
   137    80    86   am
   138    14    17    1
   139    14    15    1
   140    23    21    1
   141    48    46   am
   142    16    15    2
   143    86    87    1
   144    92    91    1
   145    21    20    2
   146    21    22    1
   147    97    96    2
   148    91    93    1
   149    91    90    1
   150    17    18    1
   151    15    24   am
   152    20    19    1
   153    46    47    2
   154    46    45    1
   155    90    87    1
   156    96    95    1
   157    19    18    1
   158    87    88    1
   159    24    25    1
   160    45    44    1
   161    89    88    2
   162    25    26    1
   163   101   103   ar
   164   101    99   ar
   165   103   104   ar
   166    95    98    1
   167    95    94    1
   168    44    35   am
   169    98    99    1
   170    99   100   ar
   171    26    27    2
   172    26    28   am
   173   104   102   ar
   174    35    36    2
   175    35    34    1
   176    28    29    1
   177   100   102   ar
   178    37    34    1
   179    37    38    1
   180    34    33    1
   181    33    30   am
   182    29    30    1
   183    29    32    1
   184    30    31    2
   185    40    38   ar
   186    40    42   ar
   187    38    39   ar
   188    42    43   ar
   189    39    41   ar
   190    43    41   ar
