@<TRIPOS>MOLECULE
tmp/5kktB00.pdb
 224 213 0 0 0
SMALL
GASTEIGER

@<TRIPOS>ATOM
      1  N          2.5640  145.1250   20.5610 N.3    78  ILE78      -0.1245
      2  CA         1.2090  144.8190   20.0710 C.3    78  ILE78       0.1561
      3  C          0.3990  143.8690   21.0030 C.2    78  ILE78       0.2260
      4  O         -0.7440  143.5240   20.7070 O.2    78  ILE78      -0.2867
      5  CB         1.2960  144.2810   18.6070 C.3    78  ILE78       0.0252
      6  CG1        2.2270  143.0390   18.5020 C.3    78  ILE78       0.0019
      7  CG2        1.7440  145.4000   17.6620 C.3    78  ILE78       0.0019
      8  CD1        2.1280  142.2340   17.2270 C.3    78  ILE78       0.0001
      9  N          0.2630  142.1690   25.4150 N.3    80  ARG80      -0.1231
     10  CA         0.7340  142.0400   26.7890 C.3    80  ARG80       0.1694
     11  C          0.0390  140.8390   27.4400 C.2    80  ARG80       0.2593
     12  O         -1.0590  140.4390   27.0200 O.2    80  ARG80      -0.2718
     13  CB         0.5000  143.3340   27.5740 C.3    80  ARG80       0.0321
     14  CG         1.4430  143.5370   28.7640 C.3    80  ARG80       0.0489
     15  CD         2.6270  144.4590   28.4780 C.3    80  ARG80       0.2205
     16  NE         2.2310  145.7890   27.9990 N.pl3  80  ARG80      -0.0865
     17  CZ         3.0820  146.7660   27.6960 C.cat  80  ARG80       0.5346
     18  NH1        4.3910  146.5880   27.8450 N.pl3  80  ARG80       0.1354
     19  NH2        2.6310  147.9310   27.2460 N.pl3  80  ARG80       0.1354
     20  N          0.7260  140.2430   28.4050 N.am   81  GLY81      -0.1942
     21  CA         0.2940  139.0630   29.1430 C.3    81  GLY81       0.2014
     22  C          0.9470  139.0450   30.5060 C.2    81  GLY81       0.2639
     23  O          1.7210  139.9590   30.8460 O.2    81  GLY81      -0.2714
     24  N          0.6270  138.0140   31.3050 N.am   82  ALA82      -0.1963
     25  CA         1.1100  137.9090   32.6850 C.3    82  ALA82       0.1728
     26  C          2.6350  137.9190   32.8270 C.2    82  ALA82       0.2616
     27  O          3.1780  138.5740   33.7300 O.2    82  ALA82      -0.2715
     28  CB         0.5270  136.6750   33.3520 C.3    82  ALA82       0.0334
     29  N          3.3220  137.2150   31.9130 N.am   83  PHE83      -0.1960
     30  CA         4.7670  137.0590   31.9930 C.3    83  PHE83       0.1774
     31  C          5.5610  137.8230   30.9350 C.2    83  PHE83       0.2659
     32  O          6.7620  137.6030   30.8350 O.2    83  PHE83      -0.2711
     33  CB         5.1440  135.5650   31.9980 C.3    83  PHE83       0.0574
     34  CG         4.6040  134.7800   33.1700 C.ar   83  PHE83      -0.0200
     35  CD1        4.2920  135.4090   34.3700 C.ar   83  PHE83      -0.0042
     36  CD2        4.4180  133.4130   33.0810 C.ar   83  PHE83      -0.0042
     37  CE1        3.7680  134.6860   35.4370 C.ar   83  PHE83      -0.0003
     38  CE2        3.9150  132.6870   34.1640 C.ar   83  PHE83      -0.0003
     39  CZ         3.5990  133.3270   35.3340 C.ar   83  PHE83      -0.0000
     40  N          4.9340  138.7470   30.2160 N.am   84  GLY84      -0.1716
     41  CA         5.6720  139.5420   29.2500 C.2    84  GLY84       0.1480
     42  C          4.8570  140.2400   28.1930 C.2    84  GLY84       0.2820
     43  O          3.7410  140.6980   28.4440 O.2    84  GLY84      -0.2669
     44  N          5.4280  140.3450   26.9970 N.am   85  GLU85      -0.1929
     45  CA         4.7990  141.0550   25.8980 C.3    85  GLU85       0.1736
     46  C          5.0610  140.4460   24.5300 C.2    85  GLU85       0.2616
     47  O          5.9960  139.6670   24.3560 O.2    85  GLU85      -0.2715
     48  CB         5.2060  142.5490   25.9260 C.3    85  GLU85       0.0429
     49  CG         6.6920  142.8580   25.7960 C.3    85  GLU85       0.1163
     50  CD         7.0290  144.3310   25.9550 C.2    85  GLU85       0.3649
     51  OE1        7.9250  144.8190   25.2310 O.co2  85  GLU85      -0.2457
     52  OE2        6.3970  145.0030   26.8000 O.co2  85  GLU85      -0.2457
     53  N          4.2260  140.8040   23.5670 N.am   86  VAL86      -0.1977
     54  CA         4.3610  140.3680   22.1900 C.3    86  VAL86       0.1596
     55  C          4.7100  141.6490   21.4410 C.2    86  VAL86       0.2287
     56  O          3.9790  142.6430   21.5420 O.2    86  VAL86      -0.2864
     57  CB         3.0630  139.6660   21.6670 C.3    86  VAL86       0.0276
     58  CG1        3.1540  139.3360   20.1810 C.3    86  VAL86       0.0022
     59  CG2        2.7450  138.4090   22.4760 C.3    86  VAL86       0.0022
     60  N          6.4250  138.5190   14.9030 N.3    99  ALA99      -0.1245
     61  CA         5.8410  138.8630   16.1860 C.3    99  ALA99       0.1562
     62  C          6.7120  138.0720   17.1740 C.2    99  ALA99       0.2260
     63  O          6.9220  136.8670   16.9830 O.2    99  ALA99      -0.2867
     64  CB         4.3890  138.4150   16.2710 C.3    99  ALA99       0.0290
     65  N          7.3180  137.0420   21.1570 N.3   101  LYS101     -0.1231
     66  CA         6.7740  136.8880   22.5140 C.3   101  LYS101      0.1693
     67  C          7.9090  136.7160   23.5000 C.2   101  LYS101      0.2592
     68  O          8.7320  135.8150   23.3400 O.2   101  LYS101     -0.2718
     69  CB         5.8070  135.6950   22.6010 C.3   101  LYS101      0.0285
     70  CG         5.2290  135.4380   23.9980 C.3   101  LYS101      0.0035
     71  CD         3.9990  134.5150   23.9530 C.3   101  LYS101      0.0206
     72  CE         3.8050  133.8030   25.2450 C.3   101  LYS101      0.1093
     73  NZ         2.5930  132.9610   25.2230 N.3   101  LYS101     -0.1314
     74  N          7.9360  137.5750   24.5160 N.am  102  LEU102     -0.1966
     75  CA         8.9200  137.5740   25.6020 C.3   102  LEU102      0.1728
     76  C          8.2650  136.9890   26.8730 C.2   102  LEU102      0.2616
     77  O          7.1370  137.3620   27.2070 O.2   102  LEU102     -0.2715
     78  CB         9.3830  139.0190   25.8980 C.3   102  LEU102      0.0311
     79  CG        10.4530  139.6350   24.9900 C.3   102  LEU102      0.0022
     80  CD1        9.9010  139.9220   23.5740 C.3   102  LEU102      0.0001
     81  CD2       10.9680  140.9280   25.5930 C.3   102  LEU102      0.0001
     82  N          8.9580  136.0650   27.5620 N.am  103  LEU103     -0.1977
     83  CA         8.4780  135.4880   28.8120 C.3   103  LEU103      0.1596
     84  C          9.5610  135.7060   29.8700 C.2   103  LEU103      0.2287
     85  O         10.6560  135.1740   29.7320 O.2   103  LEU103     -0.2864
     86  CB         8.1340  133.9970   28.6760 C.3   103  LEU103      0.0297
     87  CG         6.9090  133.5970   27.8720 C.3   103  LEU103      0.0022
     88  CD1        6.9470  132.1180   27.5520 C.3   103  LEU103      0.0001
     89  CD2        5.6360  133.8820   28.6330 C.3   103  LEU103      0.0001
     90  N          5.3010  127.9030   38.0490 N.3   113  ASP113     -0.1239
     91  CA         4.7400  127.8940   36.6680 C.3   113  ASP113      0.1674
     92  C          5.8210  128.2610   35.5890 C.2   113  ASP113      0.2266
     93  O          5.6970  129.2550   34.8640 O.2   113  ASP113     -0.2867
     94  CB         3.4830  128.8120   36.5920 C.3   113  ASP113      0.1410
     95  CG         2.6440  128.7080   35.3490 C.2   113  ASP113      0.3668
     96  OD1        2.5730  127.5980   34.7630 O.co2 113  ASP113     -0.2456
     97  OD2        2.0230  129.7110   34.9830 O.co2 113  ASP113     -0.2456
     98  N          5.1590  125.6780   31.2900 N.3   116  PHE116     -0.1241
     99  CA         4.0640  125.7710   30.3100 C.3   116  PHE116      0.1605
    100  C          4.5110  125.9590   28.8730 C.2   116  PHE116      0.2264
    101  O          3.8150  125.5200   27.9590 O.2   116  PHE116     -0.2867
    102  CB         3.0840  126.8970   30.6920 C.3   116  PHE116      0.0534
    103  CG         3.7110  128.2780   30.7100 C.ar  116  PHE116     -0.0203
    104  CD1        4.3110  128.7740   31.8680 C.ar  116  PHE116     -0.0042
    105  CD2        3.7180  129.0770   29.5600 C.ar  116  PHE116     -0.0042
    106  CE1        4.9170  130.0310   31.8720 C.ar  116  PHE116     -0.0003
    107  CE2        4.3350  130.3360   29.5620 C.ar  116  PHE116     -0.0003
    108  CZ         4.9180  130.8090   30.7190 C.ar  116  PHE116     -0.0000
    109  N          3.8730  124.7710   24.1020 N.3   120  GLU120     -0.1245
    110  CA         3.6520  125.9410   23.2470 C.3   120  GLU120      0.1567
    111  C          4.7580  126.0590   22.2050 C.2   120  GLU120      0.2260
    112  O          4.4670  126.3170   21.0370 O.2   120  GLU120     -0.2867
    113  CB         3.5940  127.2160   24.0950 C.3   120  GLU120      0.0388
    114  CG         3.2330  128.4620   23.3150 C.3   120  GLU120      0.1160
    115  CD         3.1990  129.7460   24.1190 C.2   120  GLU120      0.3649
    116  OE1        2.9380  130.8040   23.5040 O.co2 120  GLU120     -0.2457
    117  OE2        3.4260  129.7040   25.3530 O.co2 120  GLU120     -0.2457
    118  N          3.9280  125.1010   18.0960 N.3   124  MET124     -0.1245
    119  CA         4.2140  126.1450   17.1200 C.3   124  MET124      0.1570
    120  C          5.3600  125.8070   16.1730 C.2   124  MET124      0.2261
    121  O          5.2950  126.1440   14.9850 O.2   124  MET124     -0.2867
    122  CB         4.4450  127.4830   17.8200 C.3   124  MET124      0.0387
    123  CG         3.1860  128.1000   18.3710 C.3   124  MET124      0.0595
    124  SD         3.4900  129.8100   18.7500 S.3   124  MET124     -0.1393
    125  CE         4.6190  129.6380   20.1080 C.3   124  MET124      0.0692
    126  N         -0.2500  129.1600   14.3990 N.3   133  VAL133     -0.1245
    127  CA         0.7460  130.2280   14.3100 C.3   133  VAL133      0.1561
    128  C          2.1380  129.5580   14.3390 C.2   133  VAL133      0.2260
    129  O          2.3950  128.6870   15.1830 O.2   133  VAL133     -0.2867
    130  CB         0.5010  131.2450   15.4560 C.3   133  VAL133      0.0252
    131  CG1        1.7920  131.8540   15.9760 C.3   133  VAL133      0.0019
    132  CG2       -0.4650  132.3320   15.0120 C.3   133  VAL133      0.0019
    133  N          7.7280  134.3740   16.0010 N.3   149  MET149     -0.1230
    134  CA         6.6220  133.7770   15.2590 C.3   149  MET149      0.1702
    135  C          6.1630  134.5810   14.0450 C.2   149  MET149      0.2592
    136  O          6.5780  135.7240   13.8800 O.2   149  MET149     -0.2718
    137  CB         5.4300  133.6220   16.1980 C.3   149  MET149      0.0401
    138  CG         5.7200  132.7960   17.3940 C.3   149  MET149      0.0596
    139  SD         4.6290  133.1840   18.7650 S.3   149  MET149     -0.1393
    140  CE         5.0040  134.9260   19.0750 C.3   149  MET149      0.0692
    141  N          5.2710  134.0050   13.2040 N.am  150  GLU150     -0.1966
    142  CA         4.6920  134.7500   12.0910 C.3   150  GLU150      0.1733
    143  C          3.7730  135.8010   12.6560 C.2   150  GLU150      0.2616
    144  O          3.0430  135.5260   13.6010 O.2   150  GLU150     -0.2715
    145  CB         3.9410  133.8540   11.0740 C.3   150  GLU150      0.0429
    146  CG         2.8190  132.9950   11.6220 C.3   150  GLU150      0.1163
    147  CD         2.1450  132.1040   10.5970 C.2   150  GLU150      0.3649
    148  OE1        2.0780  130.8710   10.8270 O.co2 150  GLU150     -0.2457
    149  OE2        1.6890  132.6380    9.5590 O.co2 150  GLU150     -0.2457
    150  N          3.8550  137.0280   12.1210 N.am  151  TYR151     -0.1960
    151  CA         3.0160  138.1560   12.5220 C.3   151  TYR151      0.1771
    152  C          1.6440  137.9650   11.8830 C.2   151  TYR151      0.2619
    153  O          1.5670  137.5760   10.7170 O.2   151  TYR151     -0.2715
    154  CB         3.6680  139.4750   12.0960 C.3   151  TYR151      0.0574
    155  CG         2.7880  140.6950   12.2570 C.ar  151  TYR151     -0.0198
    156  CD1        2.1740  140.9860   13.4780 C.ar  151  TYR151     -0.0009
    157  CD2        2.6080  141.5940   11.2060 C.ar  151  TYR151     -0.0009
    158  CE1        1.3680  142.1130   13.6320 C.ar  151  TYR151      0.0417
    159  CE2        1.8270  142.7410   11.3620 C.ar  151  TYR151      0.0417
    160  CZ         1.2150  142.9950   12.5790 C.ar  151  TYR151      0.1957
    161  OH         0.4660  144.1240   12.7560 O.3   151  TYR151     -0.2866
    162  N          0.5750  138.2000   12.6570 N.am  152  MET152     -0.1977
    163  CA        -0.8150  138.0390   12.2350 C.3   152  MET152      0.1605
    164  C         -1.4340  139.4190   12.0760 C.2   152  MET152      0.2287
    165  O         -1.9850  139.9700   13.0250 O.2   152  MET152     -0.2864
    166  CB        -1.5510  137.1590   13.2560 C.3   152  MET152      0.0413
    167  CG        -1.0040  135.7390   13.2910 C.3   152  MET152      0.0598
    168  SD        -1.6750  134.7430   11.9330 S.3   152  MET152     -0.1393
    169  CE        -0.4140  134.8320   10.8510 C.3   152  MET152      0.0692
    170  N         -6.4620  134.3810   15.9120 N.3   201  LEU201     -0.1245
    171  CA        -5.8470  135.4670   15.1570 C.3   201  LEU201      0.1561
    172  C         -6.1210  135.3310   13.6940 C.2   201  LEU201      0.2260
    173  O         -6.2480  134.2180   13.1890 O.2   201  LEU201     -0.2867
    174  CB        -4.3250  135.5060   15.4020 C.3   201  LEU201      0.0270
    175  CG        -3.8220  135.7100   16.8360 C.3   201  LEU201      0.0019
    176  CD1       -2.3480  135.7090   16.8540 C.3   201  LEU201      0.0001
    177  CD2       -4.2300  137.0400   17.3790 C.3   201  LEU201      0.0001
    178  N         -3.5210  130.8280   18.4710 N.3   211  ALA211     -0.1231
    179  CA        -2.3010  131.3090   19.1050 C.3   211  ALA211      0.1694
    180  C         -2.4250  131.0160   20.5880 C.2   211  ALA211      0.2592
    181  O         -3.3890  130.3510   21.0010 O.2   211  ALA211     -0.2718
    182  CB        -2.1190  132.7920   18.8510 C.3   211  ALA211      0.0304
    183  N         -1.4150  131.4400   21.3800 N.am  212  ASP212     -0.1974
    184  CA        -1.3340  131.2500   22.8380 C.3   212  ASP212      0.1709
    185  C         -1.5810  129.8040   23.2800 C.2   212  ASP212      0.2293
    186  O         -2.6630  129.4590   23.7230 O.2   212  ASP212     -0.2864
    187  CB        -2.2550  132.2270   23.5770 C.3   212  ASP212      0.1436
    188  CG        -1.9280  132.3910   25.0400 C.2   212  ASP212      0.3671
    189  OD1       -0.9720  131.7250   25.5190 O.co2 212  ASP212     -0.2456
    190  OD2       -2.6050  133.2040   25.7090 O.co2 212  ASP212     -0.2456
    191  N         -0.0400  128.3270   25.7890 N.3   214  GLY214     -0.1210
    192  CA         0.4110  128.2790   27.1730 C.3   214  GLY214      0.1956
    193  C         -0.4210  127.4390   28.1410 C.2   214  GLY214      0.2612
    194  O          0.0170  127.2070   29.2640 O.2   214  GLY214     -0.2717
    195  N         -1.6070  126.9740   27.7460 N.am  215  THR215     -0.1952
    196  CA        -2.4550  126.1340   28.6100 C.3   215  THR215      0.1897
    197  C         -2.5770  124.7160   28.0670 C.2   215  THR215      0.2313
    198  O         -3.2260  123.8700   28.6810 O.2   215  THR215     -0.2863
    199  CB        -3.8310  126.7880   28.8690 C.3   215  THR215      0.1794
    200  OG1       -3.7120  128.1890   28.6890 O.3   215  THR215     -0.2208
    201  CG2       -4.3350  126.5350   30.2630 C.3   215  THR215      0.0378
    202  N         -3.9010  123.1150   38.4630 N.3   229  THR229     -0.1203
    203  CA        -3.5890  124.5440   38.2510 C.3   229  THR229      0.1994
    204  C         -4.7790  125.5120   38.3080 C.2   229  THR229      0.2617
    205  O         -5.9210  125.1200   38.0460 O.2   229  THR229     -0.2717
    206  CB        -2.8280  124.7640   36.9220 C.3   229  THR229      0.1784
    207  OG1       -3.5440  124.1440   35.8490 O.3   229  THR229     -0.2211
    208  CG2       -1.3720  124.2820   36.9700 C.3   229  THR229      0.0376
    209  N         -4.4750  126.7950   38.6390 N.am  230  ALA230     -0.1979
    210  CA        -5.4130  127.9160   38.7200 C.3   230  ALA230      0.1597
    211  C         -5.9650  128.2570   37.3260 C.2   230  ALA230      0.2287
    212  O         -5.2620  128.1130   36.3120 O.2   230  ALA230     -0.2864
    213  CB        -4.7280  129.1290   39.3270 C.3   230  ALA230      0.0319
    214  N         -4.3240  146.5760   15.9160 N.3   364  PHE364     -0.1241
    215  CA        -3.7410  146.4270   17.2380 C.3   364  PHE364      0.1605
    216  C         -3.7840  147.7460   18.0000 C.2   364  PHE364      0.2264
    217  O         -3.1750  148.7330   17.5650 O.2   364  PHE364     -0.2867
    218  CB        -2.3150  145.8130   17.1540 C.3   364  PHE364      0.0534
    219  CG        -2.3110  144.4080   16.5960 C.ar  364  PHE364     -0.0203
    220  CD1       -2.6150  143.3220   17.4060 C.ar  364  PHE364     -0.0042
    221  CD2       -2.0220  144.1750   15.2560 C.ar  364  PHE364     -0.0042
    222  CE1       -2.6670  142.0300   16.8800 C.ar  364  PHE364     -0.0003
    223  CE2       -2.0480  142.8840   14.7400 C.ar  364  PHE364     -0.0003
    224  CZ        -2.3820  141.8200   15.5530 C.ar  364  PHE364     -0.0000
@<TRIPOS>BOND
     1   149   147   ar
     2   147   148   ar
     3   147   146    1
     4   153   152    2
     5   169   168    1
     6   145   146    1
     7   145   142    1
     8   157   159   ar
     9   157   155   ar
    10   159   160   ar
    11   152   151    1
    12   152   162   am
    13   168   167    1
    14   164   163    1
    15   164   165    2
    16   142   143    1
    17   142   141    1
    18   154   155    1
    19   154   151    1
    20   150   151    1
    21   150   143   am
    22   163   162    1
    23   163   166    1
    24   155   156   ar
    25   160   161    1
    26   160   158   ar
    27   143   144    2
    28   173   172    2
    29   141   135   am
    30   166   167    1
    31   156   158   ar
    32   172   171    1
    33   136   135    2
    34   135   134    1
    35   127   128    1
    36   127   126    1
    37   127   130    1
    38   128   129    2
    39   223   221   ar
    40   223   224   ar
    41    60    61    1
    42   121   120    2
    43   132   130    1
    44   171   174    1
    45   171   170    1
    46   221   219   ar
    47   134   133    1
    48   134   137    1
    49   174   175    1
    50   130   131    1
    51   224   222   ar
    52   214   215    1
    53   120   119    1
    54    61    64    1
    55    61    62    1
    56   137   138    1
    57   219   218    1
    58   219   220   ar
    59   175   176    1
    60   175   177    1
    61   222   220   ar
    62    63    62    2
    63   119   122    1
    64   119   118    1
    65   218   215    1
    66     8     6    1
    67   215   216    1
    68   138   139    1
    69   217   216    2
    70     7     5    1
    71   122   123    1
    72   123   124    1
    73   178   179    1
    74     6     5    1
    75     5     2    1
    76   124   125    1
    77   139   140    1
    78   182   179    1
    79   179   180    1
    80     2     1    1
    81     2     3    1
    82    58    57    1
    83   180   181    2
    84   180   183   am
    85     4     3    2
    86   112   111    2
    87    65    66    1
    88   183   184    1
    89    55    56    2
    90    55    54    1
    91    57    54    1
    92    57    59    1
    93    54    53    1
    94   111   110    1
    95    66    69    1
    96    66    67    1
    97    69    70    1
    98   184   185    1
    99   184   187    1
   100   110   113    1
   101   110   109    1
   102   185   186    2
   103   114   113    1
   104   114   115    1
   105    68    67    2
   106    67    74   am
   107   116   115   ar
   108    53    46   am
   109    80    79    1
   110   187   188    1
   111    71    70    1
   112    71    72    1
   113   115   117   ar
   114    47    46    2
   115    74    75    1
   116    46    45    1
   117    79    81    1
   118    79    78    1
   119   188   189   ar
   120   188   190   ar
   121    73    72    1
   122    51    50   ar
   123     9    10    1
   124    75    78    1
   125    75    76    1
   126   191   192    1
   127    49    48    1
   128    49    50    1
   129    45    48    1
   130    45    44    1
   131    50    52   ar
   132    10    11    1
   133    10    13    1
   134    76    77    2
   135    76    82   am
   136    44    42   am
   137    12    11    2
   138   192   193    1
   139    19    17    1
   140    11    20   am
   141    88    87    1
   142    82    83    1
   143    13    14    1
   144    17    18    1
   145    17    16    2
   146   195   193   am
   147   195   196    1
   148    87    89    1
   149    87    86    1
   150   101   100    2
   151    16    15    1
   152   197   196    1
   153   197   198    2
   154   193   194    2
   155    42    43    2
   156    42    41    1
   157    20    21    1
   158    15    14    1
   159   196   199    1
   160    86    83    1
   161   200   199    1
   162    83    84    1
   163   199   201    1
   164   100    99    1
   165    21    22    1
   166    41    40    2
   167   105   107   ar
   168   105   103   ar
   169   107   108   ar
   170    85    84    2
   171    40    31    1
   172    99   102    1
   173    99    98    1
   174    22    23    2
   175    22    24   am
   176   102   103    1
   177   103   104   ar
   178   108   106   ar
   179    32    31    2
   180    31    30    1
   181    24    25    1
   182   104   106   ar
   183    29    30    1
   184    29    26   am
   185    30    33    1
   186    33    34    1
   187    25    26    1
   188    25    28    1
   189    26    27    2
   190    36    34   ar
   191    36    38   ar
   192    34    35   ar
   193    38    39   ar
   194    35    37   ar
   195    96    95   ar
   196    93    92    2
   197    97    95   ar
   198    39    37   ar
   199    95    94    1
   200    92    91    1
   201   207   206    1
   202   212   211    2
   203    94    91    1
   204    91    90    1
   205   206   208    1
   206   206   203    1
   207   211   210    1
   208   205   204    2
   209   203   204    1
   210   203   202    1
   211   204   209   am
   212   209   210    1
   213   210   213    1
