@<TRIPOS>MOLECULE
tmp/5kkyA00.pdb
 194 184 0 0 0
SMALL
GASTEIGER

@<TRIPOS>ATOM
      1  N        -21.2780    9.2040  -71.3880 N.3    26  ARG26      -0.1231
      2  CA       -22.2680    9.0020  -70.3250 C.3    26  ARG26       0.1694
      3  C        -22.4400   10.2500  -69.4790 C.2    26  ARG26       0.2591
      4  O        -21.6530   11.2000  -69.5780 O.2    26  ARG26      -0.2718
      5  CB       -21.9070    7.8080  -69.4040 C.3    26  ARG26       0.0321
      6  CG       -22.1280    6.4020  -70.0020 C.3    26  ARG26       0.0489
      7  CD       -22.5470    5.4050  -68.9270 C.3    26  ARG26       0.2205
      8  NE       -23.7400    5.8490  -68.2120 N.pl3  26  ARG26      -0.0865
      9  CZ       -24.1990    5.2910  -67.0970 C.cat  26  ARG26       0.5346
     10  NH1      -23.5600    4.2520  -66.5710 N.pl3  26  ARG26       0.1354
     11  NH2      -25.3030    5.7650  -66.5100 N.pl3  26  ARG26       0.1354
     12  N        -23.4820   10.2200  -68.6500 N.am   27  ILE27      -0.1980
     13  CA       -23.7280   11.2030  -67.5920 C.3    27  ILE27       0.1595
     14  C        -23.9060   12.6520  -68.0820 C.2    27  ILE27       0.2287
     15  O        -23.0490   13.5070  -67.8530 O.2    27  ILE27      -0.2864
     16  CB       -22.6310   11.1640  -66.5120 C.3    27  ILE27       0.0276
     17  CG1      -22.0830    9.7410  -66.2940 C.3    27  ILE27       0.0022
     18  CG2      -23.1850   11.7170  -65.2310 C.3    27  ILE27       0.0022
     19  CD1      -23.1220    8.7430  -65.8190 C.3    27  ILE27       0.0001
     20  N        -15.8080    8.7910  -72.0730 N.3    45  ARG45      -0.1245
     21  CA       -15.2710    7.5140  -71.6040 C.3    45  ARG45       0.1563
     22  C        -14.5410    6.7440  -72.7080 C.2    45  ARG45       0.2260
     23  O        -15.1360    5.9570  -73.4430 O.2    45  ARG45      -0.2867
     24  CB       -16.3830    6.6820  -70.9610 C.3    45  ARG45       0.0307
     25  CG       -17.0420    7.4040  -69.7730 C.3    45  ARG45       0.0489
     26  CD       -17.9210    6.4860  -68.9160 C.3    45  ARG45       0.2205
     27  NE       -18.4900    7.1850  -67.7610 N.pl3  45  ARG45      -0.0865
     28  CZ       -19.1970    6.6040  -66.7930 C.cat  45  ARG45       0.5346
     29  NH1      -19.4470    5.2980  -66.8310 N.pl3  45  ARG45       0.1354
     30  NH2      -19.6720    7.3340  -65.7880 N.pl3  45  ARG45       0.1354
     31  N        -17.7060    2.3360  -65.0710 N.3    51  ASP51      -0.1239
     32  CA       -17.6010    3.4640  -64.1620 C.3    51  ASP51       0.1674
     33  C        -16.1890    3.6750  -63.5970 C.2    51  ASP51       0.2266
     34  O        -15.9980    3.8110  -62.3810 O.2    51  ASP51      -0.2867
     35  CB       -18.6140    3.2910  -63.0400 C.3    51  ASP51       0.1410
     36  CG       -20.0320    3.1150  -63.5660 C.2    51  ASP51       0.3668
     37  OD1      -20.3840    3.7590  -64.5880 O.co2  51  ASP51      -0.2456
     38  OD2      -20.7870    2.3190  -62.9620 O.co2  51  ASP51      -0.2456
     39  N        -15.2220   11.5380  -63.0350 N.3    95  ILE95      -0.1231
     40  CA       -16.4930   10.9200  -63.3460 C.3    95  ILE95       0.1692
     41  C        -17.6570   11.6590  -62.6440 C.2    95  ILE95       0.2592
     42  O        -17.5630   12.0120  -61.4570 O.2    95  ILE95      -0.2718
     43  CB       -16.4350    9.4120  -62.9800 C.3    95  ILE95       0.0266
     44  CG1      -17.7670    8.7190  -63.2460 C.3    95  ILE95       0.0019
     45  CG2      -16.0220    9.2180  -61.5350 C.3    95  ILE95       0.0020
     46  CD1      -17.7170    7.1900  -63.0350 C.3    95  ILE95       0.0001
     47  N        -18.7380   11.8860  -63.3910 N.am   96  ASP96      -0.1974
     48  CA       -19.9590   12.5240  -62.8850 C.3    96  ASP96       0.1709
     49  C        -19.8110   14.0160  -62.6290 C.2    96  ASP96       0.2293
     50  O        -19.0790   14.4200  -61.7430 O.2    96  ASP96      -0.2864
     51  CB       -20.4580   11.8600  -61.6010 C.3    96  ASP96       0.1436
     52  CG       -20.8620   10.4210  -61.8050 C.2    96  ASP96       0.3671
     53  OD1      -21.0210    9.9900  -62.9630 O.co2  96  ASP96      -0.2456
     54  OD2      -21.0490    9.7270  -60.7950 O.co2  96  ASP96      -0.2456
     55  N        -16.3520   14.0460  -59.5430 N.3   113  ASP113     -0.1239
     56  CA       -15.6110   13.1200  -58.6830 C.3   113  ASP113      0.1674
     57  C        -14.2020   12.9250  -59.1880 C.2   113  ASP113      0.2266
     58  O        -13.9450   13.0440  -60.3850 O.2   113  ASP113     -0.2867
     59  CB       -16.2620   11.7420  -58.6410 C.3   113  ASP113      0.1410
     60  CG       -17.7040   11.7820  -58.2010 C.2   113  ASP113      0.3668
     61  OD1      -18.1670   12.8560  -57.7770 O.co2 113  ASP113     -0.2456
     62  OD2      -18.3760   10.7270  -58.2770 O.co2 113  ASP113     -0.2456
     63  N        -10.8910   10.0320  -58.5210 N.3   115  PHE115     -0.1241
     64  CA       -10.2120    8.9180  -57.8870 C.3   115  PHE115      0.1605
     65  C         -8.8290    8.8050  -58.4990 C.2   115  PHE115      0.2264
     66  O         -8.6480    9.0900  -59.6790 O.2   115  PHE115     -0.2867
     67  CB       -10.9660    7.6090  -58.1470 C.3   115  PHE115      0.0534
     68  CG       -12.3580    7.5750  -57.5720 C.ar  115  PHE115     -0.0203
     69  CD1      -13.4360    8.0530  -58.3010 C.ar  115  PHE115     -0.0042
     70  CD2      -12.5930    7.0360  -56.3210 C.ar  115  PHE115     -0.0042
     71  CE1      -14.7180    8.0020  -57.7810 C.ar  115  PHE115     -0.0003
     72  CE2      -13.8690    6.9910  -55.7970 C.ar  115  PHE115     -0.0003
     73  CZ       -14.9360    7.4710  -56.5290 C.ar  115  PHE115     -0.0000
     74  N        -15.0870    3.9900  -57.5570 N.3   121  ILE121     -0.1231
     75  CA       -15.7910    3.6610  -56.3290 C.3   121  ILE121      0.1692
     76  C        -15.7990    2.1550  -56.0850 C.2   121  ILE121      0.2592
     77  O        -15.9310    1.7040  -54.9430 O.2   121  ILE121     -0.2718
     78  CB       -17.2360    4.2300  -56.3160 C.3   121  ILE121      0.0266
     79  CG1      -17.7970    4.2140  -54.8980 C.3   121  ILE121      0.0019
     80  CG2      -18.1580    3.4470  -57.2450 C.3   121  ILE121      0.0020
     81  CD1      -19.2220    4.7190  -54.8090 C.3   121  ILE121      0.0001
     82  N        -15.5860    1.3750  -57.1410 N.am  122  PHE122     -0.1976
     83  CA       -15.6070   -0.0820  -57.0010 C.3   122  PHE122      0.1639
     84  C        -14.2730   -0.6670  -56.5970 C.2   122  PHE122      0.2290
     85  O        -14.1200   -1.8790  -56.5360 O.2   122  PHE122     -0.2864
     86  CB       -16.0850   -0.7570  -58.2870 C.3   122  PHE122      0.0560
     87  CG       -17.5000   -0.4380  -58.6290 C.ar  122  PHE122     -0.0200
     88  CD1      -18.5400   -1.0690  -57.9590 C.ar  122  PHE122     -0.0042
     89  CD2      -17.8000    0.4950  -59.6160 C.ar  122  PHE122     -0.0042
     90  CE1      -19.8600   -0.7750  -58.2560 C.ar  122  PHE122     -0.0003
     91  CE2      -19.1130    0.7960  -59.9270 C.ar  122  PHE122     -0.0003
     92  CZ       -20.1530    0.1620  -59.2420 C.ar  122  PHE122     -0.0000
     93  N        -17.2580    7.0930  -49.5910 N.3   244  PHE244     -0.1241
     94  CA       -17.5200    7.7500  -50.8670 C.3   244  PHE244      0.1605
     95  C        -18.2360    9.0840  -50.6590 C.2   244  PHE244      0.2264
     96  O        -19.1380    9.1820  -49.8240 O.2   244  PHE244     -0.2867
     97  CB       -18.3840    6.8520  -51.7550 C.3   244  PHE244      0.0534
     98  CG       -18.9060    7.5340  -52.9960 C.ar  244  PHE244     -0.0203
     99  CD1      -18.0400    7.9060  -54.0170 C.ar  244  PHE244     -0.0042
    100  CD2      -20.2650    7.7420  -53.1690 C.ar  244  PHE244     -0.0042
    101  CE1      -18.5220    8.5130  -55.1660 C.ar  244  PHE244     -0.0003
    102  CE2      -20.7560    8.3300  -54.3090 C.ar  244  PHE244     -0.0003
    103  CZ       -19.8850    8.7220  -55.3090 C.ar  244  PHE244     -0.0000
    104  N        -24.0140   12.5510  -52.7680 N.3   269  TYR269     -0.1241
    105  CA       -24.3550   11.4360  -51.8920 C.3   269  TYR269      0.1605
    106  C        -23.0920   10.7530  -51.3430 C.2   269  TYR269      0.2264
    107  O        -21.9960   10.9020  -51.9010 O.2   269  TYR269     -0.2867
    108  CB       -25.3430   10.4660  -52.5590 C.3   269  TYR269      0.0534
    109  CG       -24.8260    9.7270  -53.7780 C.ar  269  TYR269     -0.0201
    110  CD1      -24.3470   10.4170  -54.8900 C.ar  269  TYR269     -0.0009
    111  CD2      -24.8640    8.3290  -53.8340 C.ar  269  TYR269     -0.0009
    112  CE1      -23.8680    9.7350  -56.0150 C.ar  269  TYR269      0.0417
    113  CE2      -24.4070    7.6320  -54.9620 C.ar  269  TYR269      0.0417
    114  CZ       -23.9080    8.3460  -56.0440 C.ar  269  TYR269      0.1957
    115  OH       -23.4610    7.6760  -57.1480 O.3   269  TYR269     -0.2866
    116  N        -21.6640    0.6290  -50.1790 N.3   277  LEU277     -0.1245
    117  CA       -22.6380    0.6650  -51.2700 C.3   277  LEU277      0.1561
    118  C        -23.8500   -0.1890  -50.9950 C.2   277  LEU277      0.2260
    119  O        -24.8740   -0.0890  -51.6650 O.2   277  LEU277     -0.2867
    120  CB       -21.9700    0.1090  -52.5180 C.3   277  LEU277      0.0270
    121  CG       -20.9070    1.0760  -52.9910 C.3   277  LEU277      0.0019
    122  CD1      -20.1160    0.4760  -54.1400 C.3   277  LEU277      0.0001
    123  CD2      -21.6100    2.3650  -53.3900 C.3   277  LEU277      0.0001
    124  N        -25.7610    4.3710  -48.9180 N.3   281  GLN281     -0.1245
    125  CA       -25.9130    5.4520  -49.8970 C.3   281  GLN281      0.1566
    126  C        -26.9320    6.4880  -49.4240 C.2   281  GLN281      0.2260
    127  O        -28.1020    6.1540  -49.2310 O.2   281  GLN281     -0.2867
    128  CB       -26.3280    4.8940  -51.2560 C.3   281  GLN281      0.0367
    129  CG       -25.1910    4.2480  -52.0270 C.3   281  GLN281      0.0905
    130  CD       -25.6620    3.6350  -53.3320 C.2   281  GLN281      0.2608
    131  OE1      -25.6200    4.2750  -54.3820 O.2   281  GLN281     -0.2717
    132  NE2      -26.1330    2.3950  -53.2690 N.am  281  GLN281     -0.0878
    133  N        -29.7040    7.9460  -53.2520 N.3   325  THR325     -0.1203
    134  CA       -28.3990    8.0970  -53.8720 C.3   325  THR325      0.1994
    135  C        -28.2860    9.3930  -54.6750 C.2   325  THR325      0.2617
    136  O        -28.3240   10.4800  -54.0980 O.2   325  THR325     -0.2717
    137  CB       -28.0210    6.8470  -54.7060 C.3   325  THR325      0.1784
    138  OG1      -28.5190    6.9730  -56.0380 O.3   325  THR325     -0.2211
    139  CG2      -28.5990    5.5910  -54.0610 C.3   325  THR325      0.0376
    140  N        -28.1150    9.2830  -55.9880 N.am  326  GLU326     -0.1979
    141  CA       -28.0820   10.4630  -56.8400 C.3   326  GLU326      0.1602
    142  C        -29.3990   11.1990  -56.7090 C.2   326  GLU326      0.2287
    143  O        -30.4450   10.5740  -56.5270 O.2   326  GLU326     -0.2864
    144  CB       -27.8770   10.0560  -58.2930 C.3   326  GLU326      0.0415
    145  CG       -26.5770    9.3320  -58.5660 C.3   326  GLU326      0.1163
    146  CD       -26.6660    8.4680  -59.8180 C.2   326  GLU326      0.3649
    147  OE1      -27.7780    7.9660  -60.0960 O.co2 326  GLU326     -0.2457
    148  OE2      -25.6470    8.3150  -60.5380 O.co2 326  GLU326     -0.2457
    149  N        -32.9080    9.1750  -56.2550 N.3   342  ARG342     -0.1245
    150  CA       -32.8850    7.8040  -56.7640 C.3   342  ARG342      0.1563
    151  C        -32.8310    6.8390  -55.5860 C.2   342  ARG342      0.2260
    152  O        -32.0560    7.0430  -54.6460 O.2   342  ARG342     -0.2867
    153  CB       -31.6550    7.5970  -57.6430 C.3   342  ARG342      0.0307
    154  CG       -31.2450    6.1410  -57.8600 C.3   342  ARG342      0.0489
    155  CD       -30.0460    6.1010  -58.7910 C.3   342  ARG342      0.2205
    156  NE       -29.5030    4.7650  -58.9810 N.pl3 342  ARG342     -0.0865
    157  CZ       -28.5410    4.4650  -59.8510 C.cat 342  ARG342      0.5346
    158  NH1      -28.0140    5.4080  -60.6250 N.pl3 342  ARG342      0.1354
    159  NH2      -28.1070    3.2130  -59.9430 N.pl3 342  ARG342      0.1354
    160  N        -34.3470    2.6700  -60.2960 N.3   374  TYR374     -0.1241
    161  CA       -32.9870    2.7830  -59.7650 C.3   374  TYR374      0.1605
    162  C        -32.0060    3.3370  -60.8120 C.2   374  TYR374      0.2264
    163  O        -31.1510    2.6190  -61.3370 O.2   374  TYR374     -0.2867
    164  CB       -32.5040    1.4530  -59.1730 C.3   374  TYR374      0.0534
    165  CG       -31.3000    1.5730  -58.2840 C.ar  374  TYR374     -0.0201
    166  CD1      -31.2330    2.5500  -57.2990 C.ar  374  TYR374     -0.0009
    167  CD2      -30.2320    0.7070  -58.4250 C.ar  374  TYR374     -0.0009
    168  CE1      -30.1300    2.6600  -56.4760 C.ar  374  TYR374      0.0417
    169  CE2      -29.1250    0.8050  -57.6130 C.ar  374  TYR374      0.0417
    170  CZ       -29.0830    1.7810  -56.6300 C.ar  374  TYR374      0.1957
    171  OH       -27.9810    1.8900  -55.8210 O.3   374  TYR374     -0.2866
    172  N        -33.8270    0.2860  -67.9440 N.3   400  ARG400     -0.1245
    173  CA       -33.4550    1.6530  -68.2800 C.3   400  ARG400      0.1563
    174  C        -33.8780    1.9250  -69.7170 C.2   400  ARG400      0.2260
    175  O        -33.0590    1.9870  -70.6320 O.2   400  ARG400     -0.2867
    176  CB       -31.9640    1.9020  -68.0510 C.3   400  ARG400      0.0307
    177  CG       -31.5860    1.7850  -66.5910 C.3   400  ARG400      0.0489
    178  CD       -30.1290    2.0760  -66.3460 C.3   400  ARG400      0.2205
    179  NE       -29.8460    2.1750  -64.9150 N.pl3 400  ARG400     -0.0865
    180  CZ       -28.7180    2.6710  -64.4090 C.cat 400  ARG400      0.5346
    181  NH1      -27.7660    3.1120  -65.2200 N.pl3 400  ARG400      0.1354
    182  NH2      -28.5480    2.7450  -63.0970 N.pl3 400  ARG400      0.1354
    183  N        -29.5850    8.3130  -67.9800 N.3   431  TYR431     -0.1241
    184  CA       -29.3430    9.6130  -67.3570 C.3   431  TYR431      0.1605
    185  C        -29.8050   10.7340  -68.2900 C.2   431  TYR431      0.2264
    186  O        -29.7730   10.5990  -69.5230 O.2   431  TYR431     -0.2867
    187  CB       -27.8660    9.7770  -66.9740 C.3   431  TYR431      0.0534
    188  CG       -27.4390    8.9770  -65.7580 C.ar  431  TYR431     -0.0201
    189  CD1      -27.9060    7.6720  -65.5420 C.ar  431  TYR431     -0.0009
    190  CD2      -26.5760    9.5300  -64.8190 C.ar  431  TYR431     -0.0009
    191  CE1      -27.5190    6.9460  -64.4250 C.ar  431  TYR431      0.0417
    192  CE2      -26.1810    8.8170  -63.7050 C.ar  431  TYR431      0.0417
    193  CZ       -26.6550    7.5270  -63.5050 C.ar  431  TYR431      0.1957
    194  OH       -26.2550    6.8460  -62.3700 O.3   431  TYR431     -0.2866
@<TRIPOS>BOND
     1    23    22    2
     2    22    21    1
     3    20    21    1
     4    21    24    1
     5     1     2    1
     6    24    25    1
     7   175   174    2
     8     2     3    1
     9     2     5    1
    10     6     5    1
    11     6     7    1
    12    25    26    1
    13   174   173    1
    14     4     3    2
    15   186   185    2
    16     3    12   am
    17     7     8    1
    18    26    27    1
    19    12    13    1
    20   185   184    1
    21   173   176    1
    22   173   172    1
    23     8     9    2
    24    14    15    2
    25    14    13    1
    26   176   177    1
    27   183   184    1
    28    27    28    2
    29    13    16    1
    30   184   187    1
    31     9    10    1
    32     9    11    1
    33   187   188    1
    34    29    28    1
    35    28    30    1
    36   177   178    1
    37    16    17    1
    38    16    18    1
    39   178   179    1
    40    17    19    1
    41   188   189   ar
    42   188   190   ar
    43   189   191   ar
    44   181   180    1
    45    31    32    1
    46   179   180    2
    47   190   192   ar
    48    37    36   ar
    49   191   193   ar
    50   180   182    1
    51    32    33    1
    52    32    35    1
    53   192   193   ar
    54    33    34    2
    55    36    35    1
    56    36    38   ar
    57   193   194    1
    58    47    48    1
    59    47    41   am
    60    40    39    1
    61    40    43    1
    62    40    41    1
    63    44    46    1
    64    44    43    1
    65    43    45    1
    66    53    52   ar
    67    48    49    1
    68    48    51    1
    69    41    42    2
    70    49    50    2
    71    52    51    1
    72    52    54   ar
    73   163   162    2
    74   162   161    1
    75   158   157    1
    76   148   146   ar
    77    58    57    2
    78   160   161    1
    79   147   146   ar
    80   159   157    1
    81    91    89   ar
    82    91    92   ar
    83   157   156    2
    84   146   145    1
    85   161   164    1
    86    66    65    2
    87    89    87   ar
    88    55    56    1
    89    92    90   ar
    90    57    56    1
    91   164   165    1
    92   156   155    1
    93   155   154    1
    94    56    59    1
    95    59    60    1
    96    87    86    1
    97    87    88   ar
    98   145   144    1
    99    63    64    1
   100    65    64    1
   101   167   165   ar
   102   167   169   ar
   103    69    71   ar
   104    69    68   ar
   105   144   141    1
   106    86    83    1
   107   165   166   ar
   108    62    60   ar
   109    90    88   ar
   110    60    61   ar
   111    67    64    1
   112    67    68    1
   113   154   153    1
   114    71    73   ar
   115   153   150    1
   116   169   170   ar
   117    68    70   ar
   118    74    75    1
   119   166   168   ar
   120    80    78    1
   121   115   114    1
   122    82    83    1
   123    82    76   am
   124    83    84    1
   125   141   142    1
   126   141   140    1
   127   150   149    1
   128   150   151    1
   129   142   143    2
   130   170   168   ar
   131   170   171    1
   132    84    85    2
   133    73    72   ar
   134    75    78    1
   135    75    76    1
   136    70    72   ar
   137    78    79    1
   138    76    77    2
   139   114   112   ar
   140   114   113   ar
   141   138   137    1
   142   112   110   ar
   143   140   135   am
   144   151   152    2
   145   103   101   ar
   146   103   102   ar
   147   101    99   ar
   148   113   111   ar
   149    79    81    1
   150   110   109   ar
   151   137   139    1
   152   137   134    1
   153   135   136    2
   154   135   134    1
   155   131   130    2
   156   102   100   ar
   157   122   121    1
   158    99    98   ar
   159   134   133    1
   160   111   109   ar
   161   109   108    1
   162   123   121    1
   163   130   132   am
   164   130   129    1
   165   100    98   ar
   166    98    97    1
   167   121   120    1
   168   104   105    1
   169   108   105    1
   170   120   117    1
   171   129   128    1
   172   107   106    2
   173   105   106    1
   174    97    94    1
   175   119   118    2
   176   117   118    1
   177   117   116    1
   178   128   125    1
   179    94    95    1
   180    94    93    1
   181    95    96    2
   182   125   126    1
   183   125   124    1
   184   126   127    2
