@<TRIPOS>MOLECULE
tmp/5kkzG03.pdb
 87 85 0 0 0
SMALL
GASTEIGER

@<TRIPOS>ATOM
      1  N          1.3670   30.3020    0.0740 N.3   288  ALA288     -0.1231
      2  CA         1.1790   29.0470    0.7890 C.3   288  ALA288      0.1694
      3  C         -0.0930   28.3240    0.3580 C.2   288  ALA288      0.2592
      4  O         -0.1250   27.0910    0.2680 O.2   288  ALA288     -0.2718
      5  CB         1.1230   29.3270    2.2850 C.3   288  ALA288      0.0304
      6  N         -1.1320   29.0900    0.0830 N.am  289  HIS289     -0.1962
      7  CA        -2.4900   28.6510   -0.2300 C.3   289  HIS289      0.1787
      8  C         -2.8820   28.7800   -1.6850 C.2   289  HIS289      0.2620
      9  O         -3.9810   29.2370   -1.9590 O.2   289  HIS289     -0.2715
     10  CB        -3.4760   29.2840    0.7340 C.3   289  HIS289      0.0785
     11  CG        -3.1290   28.9540    2.1570 C.ar  289  HIS289      0.0821
     12  ND1       -2.7120   27.6930    2.5300 N.ar  289  HIS289     -0.2267
     13  CD2       -3.0190   29.7250    3.2630 C.ar  289  HIS289      0.1154
     14  CE1       -2.4350   27.6820    3.8180 C.ar  289  HIS289      0.1986
     15  NE2       -2.5960   28.9070    4.2840 N.ar  289  HIS289     -0.2212
     16  N         -1.9910   28.4360   -2.6260 N.am  290  ILE290     -0.1963
     17  CA        -2.3790   28.4780   -4.0450 C.3   290  ILE290      0.1727
     18  C         -3.5650   27.5610   -4.2860 C.2   290  ILE290      0.2616
     19  O         -3.5870   26.4090   -3.8360 O.2   290  ILE290     -0.2715
     20  CB        -1.2240   28.0770   -4.9910 C.3   290  ILE290      0.0290
     21  CG1       -0.8710   26.5840   -4.9920 C.3   290  ILE290      0.0022
     22  CG2        0.0560   28.8570   -4.6720 C.3   290  ILE290      0.0023
     23  CD1       -0.1340   26.1630   -6.2670 C.3   290  ILE290      0.0001
     24  N         -4.5980   28.1060   -4.9440 N.am  291  VAL291     -0.1977
     25  CA        -5.8070   27.3580   -5.2830 C.3   291  VAL291      0.1596
     26  C         -6.3360   27.8030   -6.6370 C.2   291  VAL291      0.2287
     27  O         -6.2970   29.0010   -6.9510 O.2   291  VAL291     -0.2864
     28  CB        -6.9210   27.6170   -4.2570 C.3   291  VAL291      0.0276
     29  CG1       -8.1920   26.9010   -4.6480 C.3   291  VAL291      0.0022
     30  CG2       -6.4930   27.1880   -2.8670 C.3   291  VAL291      0.0022
     31  N         -8.9960   19.4380  -11.1780 N.3   300  TYR300     -0.1241
     32  CA        -7.7590   19.5150  -10.4050 C.3   300  TYR300      0.1605
     33  C         -7.8030   18.4730   -9.2870 C.2   300  TYR300      0.2264
     34  O         -6.7760   17.8830   -8.9460 O.2   300  TYR300     -0.2867
     35  CB        -7.5350   20.9520   -9.9420 C.3   300  TYR300      0.0534
     36  CG        -6.4390   21.2550   -8.9530 C.ar  300  TYR300     -0.0201
     37  CD1       -5.1220   21.3210   -9.4620 C.ar  300  TYR300     -0.0009
     38  CD2       -6.6610   21.6870   -7.6600 C.ar  300  TYR300     -0.0009
     39  CE1       -4.0610   21.6710   -8.7130 C.ar  300  TYR300      0.0417
     40  CE2       -5.5820   22.0510   -6.8760 C.ar  300  TYR300      0.0417
     41  CZ        -4.2620   22.0450   -7.4280 C.ar  300  TYR300      0.1957
     42  OH        -3.1140   22.3960   -6.7240 O.3   300  TYR300     -0.2866
     43  N         -4.9540   15.3980   -8.5580 N.3   304  ARG304     -0.1245
     44  CA        -4.1670   15.1480   -7.3640 C.3   304  ARG304      0.1563
     45  C         -4.6670   13.9640   -6.5410 C.2   304  ARG304      0.2260
     46  O         -3.9700   13.5520   -5.6040 O.2   304  ARG304     -0.2867
     47  CB        -4.1680   16.3240   -6.4070 C.3   304  ARG304      0.0307
     48  CG        -4.0840   17.7780   -6.9310 C.3   304  ARG304      0.0489
     49  CD        -4.3570   18.6700   -5.7210 C.3   304  ARG304      0.2205
     50  NE        -5.7490   18.5030   -5.2970 N.pl3 304  ARG304     -0.0865
     51  CZ        -6.3230   19.1460   -4.2880 C.cat 304  ARG304      0.5346
     52  NH1       -5.6490   20.0180   -3.5560 N.pl3 304  ARG304      0.1354
     53  NH2       -7.5910   18.9070   -4.0110 N.pl3 304  ARG304      0.1354
     54  N        -11.1800   20.0020   -4.2820 N.3   379  GLY379     -0.1210
     55  CA       -10.1050   20.6470   -5.0360 C.3   379  GLY379      0.1956
     56  C         -9.4630   21.8070   -4.2900 C.2   379  GLY379      0.2612
     57  O         -8.2550   22.0790   -4.4320 O.2   379  GLY379     -0.2717
     58  N        -10.2520   22.4980   -3.4730 N.am  380  ALA380     -0.1965
     59  CA        -9.7700   23.6270   -2.7250 C.3   380  ALA380      0.1728
     60  C         -9.2240   23.2300   -1.3540 C.2   380  ALA380      0.2616
     61  O         -8.7990   24.1220   -0.6020 O.2   380  ALA380     -0.2715
     62  CB       -10.9100   24.6240   -2.5660 C.3   380  ALA380      0.0334
     63  N         -9.2960   21.9420   -0.9710 N.am  381  GLN381     -0.1963
     64  CA        -8.7730   21.4820    0.3070 C.3   381  GLN381      0.1733
     65  C         -7.3560   20.9540    0.1400 C.2   381  GLN381      0.2616
     66  O         -6.8950   20.6460   -0.9650 O.2   381  GLN381     -0.2715
     67  CB        -9.6490   20.3970    0.9330 C.3   381  GLN381      0.0408
     68  CG       -11.1150   20.7040    1.0250 C.3   381  GLN381      0.0908
     69  CD       -11.3840   21.9860    1.7850 C.2   381  GLN381      0.2608
     70  OE1      -11.6680   23.0580    1.2060 O.2   381  GLN381     -0.2717
     71  NE2      -11.3240   21.8690    3.1150 N.am  381  GLN381     -0.0878
     72  N         -6.7370   20.6870    1.2820 N.am  382  GLN382     -0.1963
     73  CA        -5.4250   20.0980    1.2830 C.3   382  GLN382      0.1733
     74  C         -5.5490   18.6350    0.8560 C.2   382  GLN382      0.2617
     75  O         -6.6210   18.0290    0.9210 O.2   382  GLN382     -0.2715
     76  CB        -4.8400   20.1550    2.6830 C.3   382  GLN382      0.0408
     77  CG        -4.5240   21.5340    3.2770 C.3   382  GLN382      0.0908
     78  CD        -3.2460   22.1260    2.7940 C.2   382  GLN382      0.2608
     79  OE1       -2.4350   21.4570    2.1460 O.2   382  GLN382     -0.2717
     80  NE2       -2.9730   23.3410    3.2550 N.am  382  GLN382     -0.0878
     81  N         -4.4200   18.0300    0.5360 N.am  383  THR383     -0.1951
     82  CA        -4.3780   16.6460    0.0800 C.3   383  THR383      0.1897
     83  C         -4.1840   15.6730    1.2420 C.2   383  THR383      0.2313
     84  O         -3.8040   14.5140    1.0210 O.2   383  THR383     -0.2863
     85  CB        -3.3020   16.4350   -1.0000 C.3   383  THR383      0.1794
     86  OG1       -2.0360   16.9330   -0.5580 O.3   383  THR383     -0.2208
     87  CG2       -3.6910   17.1130   -2.2730 C.3   383  THR383      0.0378
@<TRIPOS>BOND
     1    31    32    1
     2    32    35    1
     3    32    33    1
     4    35    36    1
     5    37    36   ar
     6    37    39   ar
     7    33    34    2
     8    36    38   ar
     9    39    41   ar
    10    43    44    1
    11    38    40   ar
    12    41    40   ar
    13    41    42    1
    14    44    45    1
    15    44    47    1
    16    27    26    2
    17    48    47    1
    18    48    49    1
    19    26    25    1
    20    45    46    2
    21    23    21    1
    22    49    50    1
    23    50    51    2
    24    25    24    1
    25    25    28    1
    26    55    56    1
    27    55    54    1
    28    21    20    1
    29    20    22    1
    30    20    17    1
    31    24    18   am
    32    29    28    1
    33    57    56    2
    34    56    58   am
    35    51    53    1
    36    51    52    1
    37    18    17    1
    38    18    19    2
    39    28    30    1
    40    17    16    1
    41    58    59    1
    42    59    62    1
    43    59    60    1
    44    16     8   am
    45    87    85    1
    46     9     8    2
    47     8     7    1
    48    60    63   am
    49    60    61    2
    50    85    86    1
    51    85    82    1
    52    63    64    1
    53    66    65    2
    54     7     6    1
    55     7    10    1
    56     1     2    1
    57    82    81    1
    58    82    83    1
    59     6     3   am
    60    65    64    1
    61    65    72   am
    62     4     3    2
    63    64    67    1
    64     3     2    1
    65    81    74   am
    66    10    11    1
    67     2     5    1
    68    74    75    2
    69    74    73    1
    70    67    68    1
    71    84    83    2
    72    68    69    1
    73    70    69    2
    74    72    73    1
    75    73    76    1
    76    69    71   am
    77    79    78    2
    78    11    12   ar
    79    11    13   ar
    80    12    14   ar
    81    76    77    1
    82    78    80   am
    83    78    77    1
    84    13    15   ar
    85    14    15   ar
