@<TRIPOS>MOLECULE
tmp/5kkzG02.pdb
 190 187 0 0 0
SMALL
GASTEIGER

@<TRIPOS>ATOM
      1  N        -11.5260   26.3460  -21.4210 N.3   138  MET138     -0.1230
      2  CA       -10.5870   26.1510  -20.3220 C.3   138  MET138      0.1702
      3  C         -9.2310   26.7330  -20.7130 C.2   138  MET138      0.2592
      4  O         -8.6100   27.4720  -19.9400 O.2   138  MET138     -0.2718
      5  CB       -10.4280   24.6550  -19.9820 C.3   138  MET138      0.0401
      6  CG       -11.6220   24.0180  -19.3240 C.3   138  MET138      0.0596
      7  SD       -12.1990   24.7930  -17.8240 S.3   138  MET138     -0.1393
      8  CE       -11.2690   23.9720  -16.5320 C.3   138  MET138      0.0692
      9  N         -8.7670   26.4310  -21.9300 N.am  139  ALA139     -0.1980
     10  CA        -7.4930   26.9820  -22.3760 C.3   139  ALA139      0.1597
     11  C         -7.5260   28.5060  -22.4380 C.2   139  ALA139      0.2287
     12  O         -6.5870   29.1700  -21.9870 O.2   139  ALA139     -0.2864
     13  CB        -7.1160   26.4150  -23.7340 C.3   139  ALA139      0.0319
     14  N         -9.4690   30.6040  -20.6910 N.3   141  ALA141     -0.1231
     15  CA        -9.5410   31.1700  -19.3530 C.3   141  ALA141      0.1694
     16  C         -8.2250   31.0070  -18.6060 C.2   141  ALA141      0.2592
     17  O         -7.8380   31.8840  -17.8350 O.2   141  ALA141     -0.2718
     18  CB       -10.6790   30.5240  -18.5570 C.3   141  ALA141      0.0304
     19  N         -7.5300   29.8950  -18.8130 N.am  142  PHE142     -0.1976
     20  CA        -6.2540   29.7150  -18.1380 C.3   142  PHE142      0.1639
     21  C         -5.3130   30.8520  -18.5290 C.2   142  PHE142      0.2290
     22  O         -4.8320   31.5980  -17.6660 O.2   142  PHE142     -0.2864
     23  CB        -5.6790   28.3570  -18.5070 C.3   142  PHE142      0.0560
     24  CG        -4.2050   28.2390  -18.3990 C.ar  142  PHE142     -0.0200
     25  CD1       -3.5840   28.4620  -17.1930 C.ar  142  PHE142     -0.0042
     26  CD2       -3.4400   27.9230  -19.4900 C.ar  142  PHE142     -0.0042
     27  CE1       -2.2210   28.3030  -17.0640 C.ar  142  PHE142     -0.0003
     28  CE2       -2.0720   27.7760  -19.3800 C.ar  142  PHE142     -0.0003
     29  CZ        -1.4560   27.9720  -18.1740 C.ar  142  PHE142     -0.0000
     30  N         -6.0490   34.2100  -17.1170 N.3   145  TYR145     -0.1227
     31  CA        -5.7250   34.3880  -15.7100 C.3   145  TYR145      0.1736
     32  C         -4.2530   34.7130  -15.5130 C.2   145  TYR145      0.2595
     33  O         -3.8990   35.3690  -14.5350 O.2   145  TYR145     -0.2718
     34  CB        -5.9830   33.1130  -14.9240 C.3   145  TYR145      0.0548
     35  CG        -6.0600   33.3290  -13.4340 C.ar  145  TYR145     -0.0200
     36  CD1       -7.0040   34.2010  -12.9250 C.ar  145  TYR145     -0.0009
     37  CD2       -5.1610   32.7260  -12.5380 C.ar  145  TYR145     -0.0009
     38  CE1       -7.1170   34.4190  -11.5900 C.ar  145  TYR145      0.0417
     39  CE2       -5.2690   32.9560  -11.1730 C.ar  145  TYR145      0.0417
     40  CZ        -6.2650   33.8160  -10.7060 C.ar  145  TYR145      0.1957
     41  OH        -6.4950   34.1320   -9.3740 O.3   145  TYR145     -0.2866
     42  N         -3.4050   34.3430  -16.4680 N.am  146  VAL146     -0.1980
     43  CA        -1.9940   34.6450  -16.3450 C.3   146  VAL146      0.1595
     44  C         -1.7120   36.1070  -16.6000 C.2   146  VAL146      0.2287
     45  O         -0.8030   36.6680  -15.9830 O.2   146  VAL146     -0.2864
     46  CB        -1.2020   33.7690  -17.3310 C.3   146  VAL146      0.0276
     47  CG1        0.2770   34.1040  -17.3040 C.3   146  VAL146      0.0022
     48  CG2       -1.4180   32.2750  -17.0110 C.3   146  VAL146      0.0022
     49  N         -0.9310   34.2330   -8.0820 N.3   152  MET152     -0.1230
     50  CA        -1.6310   33.0540   -8.5810 C.3   152  MET152      0.1702
     51  C         -1.3840   32.8770  -10.0530 C.2   152  MET152      0.2593
     52  O         -1.2310   31.7520  -10.5350 O.2   152  MET152     -0.2718
     53  CB        -3.1320   33.1360   -8.3480 C.3   152  MET152      0.0401
     54  CG        -3.6010   33.1550   -6.9300 C.3   152  MET152      0.0596
     55  SD        -3.1830   31.5990   -6.0270 S.3   152  MET152     -0.1393
     56  CE        -3.2180   30.3330   -7.2610 C.3   152  MET152      0.0692
     57  N         -1.3180   33.9820  -10.7670 N.am  153  SER153     -0.1952
     58  CA        -1.0100   33.9350  -12.1810 C.3   153  SER153      0.1924
     59  C          0.3040   33.1990  -12.4110 C.2   153  SER153      0.2314
     60  O          0.3900   32.2800  -13.2370 O.2   153  SER153     -0.2863
     61  CB        -0.9310   35.3700  -12.7120 C.3   153  SER153      0.2116
     62  OG        -2.1670   36.0820  -12.4800 O.3   153  SER153     -0.2180
     63  N          0.1880   29.5620  -10.6330 N.3   156  GLY156     -0.1210
     64  CA        -0.7970   28.7260  -11.3170 C.3   156  GLY156      0.1956
     65  C         -0.2920   28.2880  -12.6760 C.2   156  GLY156      0.2611
     66  O         -0.4730   27.1360  -13.0850 O.2   156  GLY156     -0.2717
     67  N          0.3740   29.2020  -13.3760 N.am  157  ALA157     -0.1979
     68  CA         0.9540   28.9050  -14.6860 C.3   157  ALA157      0.1597
     69  C          2.1060   27.9070  -14.5540 C.2   157  ALA157      0.2287
     70  O          2.3340   27.0930  -15.4520 O.2   157  ALA157     -0.2864
     71  CB         1.3880   30.2010  -15.3880 C.3   157  ALA157      0.0319
     72  N          2.3590   25.5780  -12.2330 N.3   159  VAL159     -0.1231
     73  CA         1.7950   24.2720  -11.9140 C.3   159  VAL159      0.1692
     74  C          1.2340   23.6350  -13.1630 C.2   159  VAL159      0.2591
     75  O          1.4560   22.4470  -13.4210 O.2   159  VAL159     -0.2718
     76  CB         0.6980   24.4220  -10.8380 C.3   159  VAL159      0.0266
     77  CG1       -0.1020   23.1470  -10.6680 C.3   159  VAL159      0.0020
     78  CG2        1.3150   24.8120   -9.4870 C.3   159  VAL159      0.0020
     79  N          0.4860   24.4210  -13.9470 N.am  160  ILE160     -0.1980
     80  CA        -0.2730   23.8800  -15.0650 C.3   160  ILE160      0.1595
     81  C          0.6370   23.5320  -16.2210 C.2   160  ILE160      0.2287
     82  O          0.4700   22.4910  -16.8510 O.2   160  ILE160     -0.2864
     83  CB        -1.3260   24.9200  -15.4990 C.3   160  ILE160      0.0276
     84  CG1       -2.4990   24.9710  -14.5060 C.3   160  ILE160      0.0022
     85  CG2       -1.8770   24.6360  -16.9330 C.3   160  ILE160      0.0022
     86  CD1       -3.3450   23.6940  -14.3470 C.3   160  ILE160      0.0001
     87  N          2.2870   20.1820  -15.6500 N.3   163  LEU163     -0.1231
     88  CA         1.5170   19.0000  -16.0040 C.3   163  LEU163      0.1693
     89  C          2.0460   18.3820  -17.2770 C.2   163  LEU163      0.2592
     90  O          2.0880   17.1550  -17.4190 O.2   163  LEU163     -0.2718
     91  CB         0.0500   19.3540  -16.1740 C.3   163  LEU163      0.0284
     92  CG        -0.6050   19.8820  -14.8840 C.3   163  LEU163      0.0019
     93  CD1       -2.0440   20.3740  -15.1510 C.3   163  LEU163      0.0001
     94  CD2       -0.5160   18.9760  -13.6830 C.3   163  LEU163      0.0001
     95  N          2.4130   19.2160  -18.2400 N.am  164  PHE164     -0.1976
     96  CA         2.8400   18.6850  -19.5350 C.3   164  PHE164      0.1639
     97  C          4.2640   18.1490  -19.4700 C.2   164  PHE164      0.2290
     98  O          4.5990   17.2230  -20.2200 O.2   164  PHE164     -0.2864
     99  CB         2.7030   19.7570  -20.6280 C.3   164  PHE164      0.0560
    100  CG         1.2970   20.2470  -20.8150 C.ar  164  PHE164     -0.0200
    101  CD1        0.7950   21.2800  -20.0270 C.ar  164  PHE164     -0.0042
    102  CD2        0.4850   19.6900  -21.7800 C.ar  164  PHE164     -0.0042
    103  CE1       -0.5300   21.7470  -20.1900 C.ar  164  PHE164     -0.0003
    104  CE2       -0.8230   20.1460  -21.9550 C.ar  164  PHE164     -0.0003
    105  CZ        -1.3270   21.1890  -21.1500 C.ar  164  PHE164     -0.0000
    106  N         -1.9910   28.4360   -2.6260 N.3   290  ILE290     -0.1231
    107  CA        -2.3790   28.4780   -4.0450 C.3   290  ILE290      0.1692
    108  C         -3.5650   27.5610   -4.2860 C.2   290  ILE290      0.2592
    109  O         -3.5870   26.4090   -3.8360 O.2   290  ILE290     -0.2718
    110  CB        -1.2240   28.0770   -4.9910 C.3   290  ILE290      0.0266
    111  CG1       -0.8710   26.5840   -4.9920 C.3   290  ILE290      0.0019
    112  CG2        0.0560   28.8570   -4.6720 C.3   290  ILE290      0.0020
    113  CD1       -0.1340   26.1630   -6.2670 C.3   290  ILE290      0.0001
    114  N         -4.5980   28.1060   -4.9440 N.am  291  VAL291     -0.1966
    115  CA        -5.8070   27.3580   -5.2830 C.3   291  VAL291      0.1712
    116  C         -6.3360   27.8030   -6.6370 C.2   291  VAL291      0.2458
    117  O         -6.2970   29.0010   -6.9510 O.2   291  VAL291     -0.2730
    118  CB        -6.9210   27.6170   -4.2570 C.3   291  VAL291      0.0289
    119  CG1       -8.1920   26.9010   -4.6480 C.3   291  VAL291      0.0023
    120  CG2       -6.4930   27.1880   -2.8670 C.3   291  VAL291      0.0023
    121  N         -6.7870   26.8910   -7.4900 N.am  292  PRO292     -0.2716
    122  CA        -7.3580   27.3170   -8.7690 C.3   292  PRO292      0.1536
    123  C         -8.6980   28.0270   -8.6430 C.2   292  PRO292      0.2598
    124  O         -9.3480   28.0500   -7.5970 O.2   292  PRO292     -0.2715
    125  CB        -7.4950   26.0110   -9.5610 C.3   292  PRO292      0.0310
    126  CG        -6.6340   25.0660   -8.9160 C.3   292  PRO292      0.0237
    127  CD        -6.6020   25.4320   -7.4670 C.3   292  PRO292      0.0939
    128  N         -9.0490   28.6870   -9.7430 N.am  293  GLU293     -0.1978
    129  CA       -10.3810   29.2180   -9.9490 C.3   293  GLU293      0.1602
    130  C        -11.3840   28.0780   -9.8480 C.2   293  GLU293      0.2287
    131  O        -11.1630   26.9850  -10.3820 O.2   293  GLU293     -0.2864
    132  CB       -10.4590   29.9750  -11.2810 C.3   293  GLU293      0.0415
    133  CG        -9.6060   31.2240  -11.2980 C.3   293  GLU293      0.1163
    134  CD       -10.0320   32.1860  -10.1480 C.2   293  GLU293      0.3649
    135  OE1      -11.2600   32.3350   -9.8790 O.co2 293  GLU293     -0.2457
    136  OE2       -9.1350   32.7300   -9.4630 O.co2 293  GLU293     -0.2457
    137  N        -13.9630   26.9350  -11.1960 N.3   295  TYR295     -0.1227
    138  CA       -14.4220   26.0940  -12.2920 C.3   295  TYR295      0.1736
    139  C        -13.3670   25.0960  -12.7620 C.2   295  TYR295      0.2595
    140  O        -13.6770   24.2880  -13.6380 O.2   295  TYR295     -0.2718
    141  CB       -14.8660   26.9390  -13.4790 C.3   295  TYR295      0.0548
    142  CG       -13.9840   28.0860  -13.8090 C.ar  295  TYR295     -0.0200
    143  CD1      -12.8160   27.8660  -14.5650 C.ar  295  TYR295     -0.0009
    144  CD2      -14.2400   29.3550  -13.3120 C.ar  295  TYR295     -0.0009
    145  CE1      -11.9630   28.9040  -14.8940 C.ar  295  TYR295      0.0417
    146  CE2      -13.4090   30.4010  -13.6230 C.ar  295  TYR295      0.0417
    147  CZ       -12.2540   30.1810  -14.4100 C.ar  295  TYR295      0.1957
    148  OH       -11.4050   31.2460  -14.7250 O.3   295  TYR295     -0.2866
    149  N        -12.1180   25.1730  -12.2890 N.am  296  PHE296     -0.1976
    150  CA       -11.1200   24.1390  -12.6020 C.3   296  PHE296      0.1639
    151  C        -10.9560   23.1350  -11.4760 C.2   296  PHE296      0.2290
    152  O        -10.3090   22.0970  -11.6720 O.2   296  PHE296     -0.2864
    153  CB        -9.7800   24.7610  -13.0500 C.3   296  PHE296      0.0560
    154  CG        -8.7000   23.7530  -13.3100 C.ar  296  PHE296     -0.0200
    155  CD1       -8.6970   23.0270  -14.4590 C.ar  296  PHE296     -0.0042
    156  CD2       -7.5830   23.6980  -12.5230 C.ar  296  PHE296     -0.0042
    157  CE1       -7.6880   22.1150  -14.7220 C.ar  296  PHE296     -0.0003
    158  CE2       -6.5200   22.8300  -12.8150 C.ar  296  PHE296     -0.0003
    159  CZ        -6.5870   22.0280  -13.8970 C.ar  296  PHE296     -0.0000
    160  N         -8.9960   19.4380  -11.1780 N.3   300  TYR300     -0.1241
    161  CA        -7.7590   19.5150  -10.4050 C.3   300  TYR300      0.1605
    162  C         -7.8030   18.4730   -9.2870 C.2   300  TYR300      0.2264
    163  O         -6.7760   17.8830   -8.9460 O.2   300  TYR300     -0.2867
    164  CB        -7.5350   20.9520   -9.9420 C.3   300  TYR300      0.0534
    165  CG        -6.4390   21.2550   -8.9530 C.ar  300  TYR300     -0.0201
    166  CD1       -5.1220   21.3210   -9.4620 C.ar  300  TYR300     -0.0009
    167  CD2       -6.6610   21.6870   -7.6600 C.ar  300  TYR300     -0.0009
    168  CE1       -4.0610   21.6710   -8.7130 C.ar  300  TYR300      0.0417
    169  CE2       -5.5820   22.0510   -6.8760 C.ar  300  TYR300      0.0417
    170  CZ        -4.2620   22.0450   -7.4280 C.ar  300  TYR300      0.1957
    171  OH        -3.1140   22.3960   -6.7240 O.3   300  TYR300     -0.2866
    172  N         -6.9390   13.2930  -15.3210 N.3   334  MET334     -0.1230
    173  CA        -7.6090   14.5870  -15.4740 C.3   334  MET334      0.1702
    174  C         -8.1810   14.7420  -16.8850 C.2   334  MET334      0.2592
    175  O         -9.3330   15.1580  -17.0670 O.2   334  MET334     -0.2718
    176  CB        -6.6170   15.7040  -15.1700 C.3   334  MET334      0.0401
    177  CG        -7.2080   17.0810  -15.1730 C.3   334  MET334      0.0596
    178  SD        -5.9500   18.3370  -15.0370 S.3   334  MET334     -0.1393
    179  CE        -5.0870   18.1790  -16.6160 C.3   334  MET334      0.0692
    180  N         -7.3500   14.5150  -17.8970 N.am  335  PHE335     -0.1976
    181  CA        -7.8520   14.5500  -19.2490 C.3   335  PHE335      0.1639
    182  C         -8.7790   13.3670  -19.5100 C.2   335  PHE335      0.2290
    183  O         -9.7380   13.4840  -20.2860 O.2   335  PHE335     -0.2864
    184  CB        -6.6970   14.5710  -20.2450 C.3   335  PHE335      0.0560
    185  CG        -5.8420   15.8010  -20.1610 C.ar  335  PHE335     -0.0200
    186  CD1       -6.2300   16.9720  -20.7950 C.ar  335  PHE335     -0.0042
    187  CD2       -4.6140   15.7720  -19.5460 C.ar  335  PHE335     -0.0042
    188  CE1       -5.4460   18.1250  -20.7390 C.ar  335  PHE335     -0.0003
    189  CE2       -3.8200   16.9200  -19.5060 C.ar  335  PHE335     -0.0003
    190  CZ        -4.2420   18.0980  -20.1100 C.ar  335  PHE335     -0.0000
@<TRIPOS>BOND
     1    13    10    1
     2    11    10    1
     3    11    12    2
     4    10     9    1
     5   104   102   ar
     6   104   105   ar
     7     9     3   am
     8   102   100   ar
     9     1     2    1
    10   105   103   ar
    11   100    99    1
    12   100   101   ar
    13   186   188   ar
    14   186   185   ar
    15   188   190   ar
    16     3     2    1
    17     3     4    2
    18    14    15    1
    19    99    96    1
    20     2     5    1
    21   183   182    2
    22   184   185    1
    23   184   181    1
    24    98    97    2
    25   103   101   ar
    26   185   187   ar
    27   190   189   ar
    28     5     6    1
    29   187   189   ar
    30    96    97    1
    31    96    95    1
    32   182   181    1
    33    26    28   ar
    34    26    24   ar
    35    28    29   ar
    36    15    16    1
    37    15    18    1
    38     6     7    1
    39   181   180    1
    40    19    16   am
    41    19    20    1
    42    16    17    2
    43    21    20    1
    44    21    22    2
    45    23    24    1
    46    23    20    1
    47    24    25   ar
    48    95    89   am
    49    29    27   ar
    50   180   174   am
    51     7     8    1
    52    90    89    2
    53    46    47    1
    54    46    48    1
    55    46    43    1
    56    89    88    1
    57    25    27   ar
    58    30    31    1
    59   175   174    2
    60    85    83    1
    61   174   173    1
    62    82    81    2
    63   179   178    1
    64    44    43    1
    65    44    45    2
    66    42    43    1
    67    42    32   am
    68    81    80    1
    69    91    88    1
    70    91    92    1
    71    88    87    1
    72    31    32    1
    73    31    34    1
    74    32    33    2
    75    83    80    1
    76    83    84    1
    77   173   172    1
    78   173   176    1
    79    70    69    2
    80    71    68    1
    81   177   176    1
    82   177   178    1
    83    93    92    1
    84    80    79    1
    85    34    35    1
    86   145   143   ar
    87   145   147   ar
    88    92    94    1
    89   148   147    1
    90   157   155   ar
    91   157   159   ar
    92    68    69    1
    93    68    67    1
    94   143   142   ar
    95    84    86    1
    96   155   154   ar
    97   147   146   ar
    98    79    74   am
    99   159   158   ar
   100   142   141    1
   101   142   144   ar
   102   140   139    2
   103   146   144   ar
   104   141   138    1
   105    35    36   ar
   106    35    37   ar
   107    75    74    2
   108    67    65   am
   109   154   153    1
   110   154   156   ar
   111    60    59    2
   112    74    73    1
   113    66    65    2
   114   153   150    1
   115    36    38   ar
   116   158   156   ar
   117   139   138    1
   118   139   149   am
   119    61    62    1
   120    61    58    1
   121    65    64    1
   122   150   149    1
   123   150   151    1
   124    37    39   ar
   125    59    58    1
   126   138   137    1
   127    72    73    1
   128    58    57    1
   129    73    76    1
   130   152   151    2
   131    38    40   ar
   132    64    63    1
   133   133   132    1
   134   133   134    1
   135   132   129    1
   136   160   161    1
   137    39    40   ar
   138    76    77    1
   139    76    78    1
   140    57    51   am
   141    40    41    1
   142    52    51    2
   143   161   164    1
   144   161   162    1
   145   131   130    2
   146   134   135   ar
   147   134   136   ar
   148    51    50    1
   149   129   130    1
   150   129   128    1
   151   164   165    1
   152   128   123   am
   153   125   126    1
   154   125   122    1
   155   166   165   ar
   156   166   168   ar
   157   162   163    2
   158   165   167   ar
   159   126   127    1
   160   122   123    1
   161   122   121    1
   162   168   170   ar
   163   123   124    2
   164    50    53    1
   165    50    49    1
   166    53    54    1
   167   167   169   ar
   168   121   127    1
   169   121   116   am
   170   170   169   ar
   171   170   171    1
   172    56    55    1
   173   117   116    2
   174    54    55    1
   175   116   115    1
   176   113   111    1
   177   115   114    1
   178   115   118    1
   179   111   110    1
   180   110   112    1
   181   110   107    1
   182   114   108   am
   183   119   118    1
   184   108   107    1
   185   108   109    2
   186   118   120    1
   187   107   106    1
