@<TRIPOS>MOLECULE
tmp/5kkzG04.pdb
 264 258 0 0 0
SMALL
GASTEIGER

@<TRIPOS>ATOM
      1  N        -38.3170   23.6440  -20.7310 N.3    40  ASN40      -0.1240
      2  CA       -38.2920   24.2130  -19.3890 C.3    40  ASN40       0.1653
      3  C        -37.0930   25.1330  -19.1870 C.2    40  ASN40       0.2266
      4  O        -36.2840   25.3500  -20.0980 O.2    40  ASN40      -0.2867
      5  CB       -38.3440   23.0790  -18.3390 C.3    40  ASN40       0.1155
      6  CG       -37.2000   22.0580  -18.4640 C.2    40  ASN40       0.2627
      7  OD1      -36.0810   22.3520  -18.8860 O.2    40  ASN40      -0.2716
      8  ND2      -37.5410   20.8080  -18.1790 N.am   40  ASN40      -0.0877
      9  N        -34.2550   24.8720  -18.0240 N.3    42  MET42      -0.1245
     10  CA       -32.8960   24.4160  -18.2650 C.3    42  MET42       0.1570
     11  C        -32.4770   24.6570  -19.7160 C.2    42  MET42       0.2261
     12  O        -31.3390   24.3500  -20.0780 O.2    42  MET42      -0.2867
     13  CB       -32.7360   22.9210  -17.9220 C.3    42  MET42       0.0387
     14  CG       -32.5590   22.5490  -16.4070 C.3    42  MET42       0.0595
     15  SD       -31.0120   23.1630  -15.6290 S.3    42  MET42      -0.1393
     16  CE       -31.7900   24.2470  -14.4210 C.3    42  MET42       0.0692
     17  N        -29.5660   28.1590  -20.8540 N.3    45  TRP45      -0.1241
     18  CA       -28.1340   28.3230  -20.6460 C.3    45  TRP45       0.1605
     19  C        -27.3860   28.4500  -21.9730 C.2    45  TRP45       0.2264
     20  O        -26.2640   28.9600  -21.9820 O.2    45  TRP45      -0.2867
     21  CB       -27.5830   27.1510  -19.7670 C.3    45  TRP45       0.0550
     22  CG       -28.3340   27.1010  -18.4230 C.ar   45  TRP45       0.0003
     23  CD1      -29.2100   26.1220  -18.0120 C.ar   45  TRP45       0.0946
     24  CD2      -28.3170   28.0680  -17.3790 C.ar   45  TRP45       0.0152
     25  NE1      -29.7610   26.4380  -16.7890 N.ar   45  TRP45      -0.2442
     26  CE2      -29.2210   27.6270  -16.3740 C.ar   45  TRP45       0.0810
     27  CE3      -27.6370   29.2630  -17.1870 C.ar   45  TRP45       0.0012
     28  CZ2      -29.4430   28.3380  -15.1980 C.ar   45  TRP45       0.0191
     29  CZ3      -27.8650   29.9740  -16.0190 C.ar   45  TRP45       0.0001
     30  CH2      -28.7590   29.5050  -15.0400 C.ar   45  TRP45       0.0015
     31  N        -15.4280   38.5540  -13.5680 N.3    97  ASN97      -0.1240
     32  CA       -16.6250   37.8230  -13.1620 C.3    97  ASN97       0.1653
     33  C        -17.3870   37.2220  -14.3520 C.2    97  ASN97       0.2266
     34  O        -18.0340   36.1730  -14.2020 O.2    97  ASN97      -0.2867
     35  CB       -17.5560   38.7500  -12.3970 C.3    97  ASN97       0.1155
     36  CG       -17.0850   38.9950  -11.0320 C.2    97  ASN97       0.2627
     37  OD1      -17.2640   38.1620  -10.1490 O.2    97  ASN97      -0.2716
     38  ND2      -16.4050   40.1190  -10.8410 N.am   97  ASN97      -0.0877
     39  N        -16.5540   33.7210  -14.7340 N.3   100  SER100     -0.1202
     40  CA       -17.2320   32.8380  -13.8010 C.3   100  SER100      0.2020
     41  C        -18.6270   32.5460  -14.2870 C.2   100  SER100      0.2618
     42  O        -19.1070   31.4090  -14.1610 O.2   100  SER100     -0.2717
     43  CB       -17.2750   33.4040  -12.3820 C.3   100  SER100      0.2103
     44  OG       -16.0000   33.3590  -11.7410 O.3   100  SER100     -0.2182
     45  N        -19.3390   33.5970  -14.7300 N.am  101  LEU101     -0.1979
     46  CA       -20.6850   33.4070  -15.2740 C.3   101  LEU101      0.1596
     47  C        -20.6200   32.4700  -16.4700 C.2   101  LEU101      0.2287
     48  O        -21.3920   31.5080  -16.5650 O.2   101  LEU101     -0.2864
     49  CB       -21.2810   34.7560  -15.6870 C.3   101  LEU101      0.0297
     50  CG       -22.6460   34.7710  -16.3880 C.3   101  LEU101      0.0022
     51  CD1      -23.6740   34.1320  -15.4520 C.3   101  LEU101      0.0001
     52  CD2      -23.0790   36.1820  -16.8090 C.3   101  LEU101      0.0001
     53  N        -20.1740   28.8040  -14.8690 N.3   104  ILE104     -0.1245
     54  CA       -21.3740   28.2660  -14.2270 C.3   104  ILE104      0.1561
     55  C        -22.3740   27.8290  -15.3000 C.2   104  ILE104      0.2260
     56  O        -23.1420   26.8700  -15.1230 O.2   104  ILE104     -0.2867
     57  CB       -21.9610   29.2410  -13.1760 C.3   104  ILE104      0.0252
     58  CG1      -23.0600   28.5870  -12.3550 C.3   104  ILE104      0.0019
     59  CG2      -22.5960   30.4520  -13.7910 C.3   104  ILE104      0.0019
     60  CD1      -22.6340   27.4150  -11.5050 C.3   104  ILE104      0.0001
     61  N        -21.5330   24.3190  -17.0950 N.3   107  TYR107     -0.1227
     62  CA       -21.7110   23.1240  -16.2860 C.3   107  TYR107      0.1736
     63  C        -23.1970   22.8300  -16.1530 C.2   107  TYR107      0.2595
     64  O        -23.6190   21.6840  -16.3200 O.2   107  TYR107     -0.2718
     65  CB       -21.0070   23.2790  -14.9230 C.3   107  TYR107      0.0548
     66  CG       -19.4940   23.2720  -15.0550 C.ar  107  TYR107     -0.0200
     67  CD1      -18.8440   22.4120  -15.9350 C.ar  107  TYR107     -0.0009
     68  CD2      -18.7070   24.1770  -14.3220 C.ar  107  TYR107     -0.0009
     69  CE1      -17.4700   22.4450  -16.0850 C.ar  107  TYR107      0.0417
     70  CE2      -17.3220   24.2070  -14.4670 C.ar  107  TYR107      0.0417
     71  CZ       -16.7290   23.3360  -15.3500 C.ar  107  TYR107      0.1957
     72  OH       -15.3910   23.3240  -15.5320 O.3   107  TYR107     -0.2866
     73  N        -24.0230   23.8630  -15.9880 N.am  108  LEU108     -0.1980
     74  CA       -25.4620   23.6400  -15.9970 C.3   108  LEU108      0.1596
     75  C        -25.9500   23.1540  -17.3780 C.2   108  LEU108      0.2287
     76  O        -26.8010   22.2440  -17.4910 O.2   108  LEU108     -0.2864
     77  CB       -26.1500   24.9230  -15.5280 C.3   108  LEU108      0.0297
     78  CG       -26.0810   25.2170  -14.0240 C.3   108  LEU108      0.0022
     79  CD1      -26.5260   26.6270  -13.6530 C.3   108  LEU108      0.0001
     80  CD2      -27.0100   24.2600  -13.3000 C.3   108  LEU108      0.0001
     81  N        -24.7910   19.4340  -17.6760 N.3   111  PHE111     -0.1227
     82  CA       -25.5610   18.5020  -16.8470 C.3   111  PHE111      0.1736
     83  C        -27.0140   18.4280  -17.3120 C.2   111  PHE111      0.2595
     84  O        -27.6600   17.3820  -17.1680 O.2   111  PHE111     -0.2718
     85  CB       -25.4410   18.8950  -15.3850 C.3   111  PHE111      0.0547
     86  CG       -24.2610   18.2740  -14.6960 C.ar  111  PHE111     -0.0202
     87  CD1      -24.3480   16.9920  -14.1690 C.ar  111  PHE111     -0.0042
     88  CD2      -23.0530   18.9410  -14.6140 C.ar  111  PHE111     -0.0042
     89  CE1      -23.2620   16.3970  -13.5120 C.ar  111  PHE111     -0.0003
     90  CE2      -21.9610   18.3740  -13.9920 C.ar  111  PHE111     -0.0003
     91  CZ       -22.0620   17.0770  -13.4400 C.ar  111  PHE111     -0.0000
     92  N        -27.5210   19.5030  -17.9180 N.am  112  ARG112     -0.1980
     93  CA       -28.8100   19.4250  -18.5940 C.3   112  ARG112      0.1597
     94  C        -28.7310   18.3380  -19.6570 C.2   112  ARG112      0.2287
     95  O        -29.6130   17.4720  -19.7720 O.2   112  ARG112     -0.2864
     96  CB       -29.0950   20.7580  -19.2720 C.3   112  ARG112      0.0334
     97  CG       -30.4300   20.9690  -19.9530 C.3   112  ARG112      0.0492
     98  CD       -30.5580   20.2700  -21.3330 C.3   112  ARG112      0.2205
     99  NE       -29.4410   20.5310  -22.2400 N.pl3 112  ARG112     -0.0865
    100  CZ       -29.3660   21.4950  -23.1400 C.cat 112  ARG112      0.5346
    101  NH1      -30.3710   22.3840  -23.2970 N.pl3 112  ARG112      0.1354
    102  NH2      -28.2520   21.5470  -23.8850 N.pl3 112  ARG112      0.1354
    103  N        -28.6020   14.7280  -18.3970 N.3   115  TYR115     -0.1227
    104  CA       -29.8480   14.1890  -17.8410 C.3   115  TYR115      0.1736
    105  C        -30.8680   13.7980  -18.9120 C.2   115  TYR115      0.2595
    106  O        -31.4620   12.7150  -18.8330 O.2   115  TYR115     -0.2718
    107  CB       -30.4920   15.2100  -16.9010 C.3   115  TYR115      0.0548
    108  CG       -31.7610   14.7100  -16.2240 C.ar  115  TYR115     -0.0200
    109  CD1      -31.7100   13.8920  -15.1110 C.ar  115  TYR115     -0.0009
    110  CD2      -33.0080   15.0880  -16.7030 C.ar  115  TYR115     -0.0009
    111  CE1      -32.8830   13.4480  -14.4810 C.ar  115  TYR115      0.0417
    112  CE2      -34.1630   14.6710  -16.1040 C.ar  115  TYR115      0.0417
    113  CZ       -34.1100   13.8430  -14.9840 C.ar  115  TYR115      0.1957
    114  OH       -35.2870   13.4160  -14.3780 O.3   115  TYR115     -0.2866
    115  N        -31.0940   14.6740  -19.9030 N.am  116  TYR116     -0.1976
    116  CA       -32.1470   14.5250  -20.9120 C.3   116  TYR116      0.1639
    117  C        -31.6730   13.8110  -22.1700 C.2   116  TYR116      0.2290
    118  O        -32.4630   13.6140  -23.0920 O.2   116  TYR116     -0.2864
    119  CB       -32.6940   15.9030  -21.2910 C.3   116  TYR116      0.0560
    120  CG       -33.4360   16.5400  -20.1560 C.ar  116  TYR116     -0.0198
    121  CD1      -34.6700   16.0660  -19.7640 C.ar  116  TYR116     -0.0009
    122  CD2      -32.8910   17.6190  -19.4720 C.ar  116  TYR116     -0.0009
    123  CE1      -35.3510   16.6390  -18.7210 C.ar  116  TYR116      0.0417
    124  CE2      -33.5620   18.2070  -18.4290 C.ar  116  TYR116      0.0417
    125  CZ       -34.7900   17.7090  -18.0590 C.ar  116  TYR116      0.1957
    126  OH       -35.4730   18.2860  -17.0160 O.3   116  TYR116     -0.2866
    127  N        -37.5860   18.0970  -22.8170 N.3   222  PRO222     -0.2116
    128  CA       -37.5910   17.3110  -21.5790 C.3   222  PRO222      0.1372
    129  C        -38.1300   15.8720  -21.7050 C.2   222  PRO222      0.2244
    130  O        -37.8050   15.0340  -20.8520 O.2   222  PRO222     -0.2868
    131  CB       -38.4850   18.1490  -20.6640 C.3   222  PRO222      0.0268
    132  CG       -38.2930   19.5200  -21.1120 C.3   222  PRO222      0.0207
    133  CD       -38.1650   19.4360  -22.6080 C.3   222  PRO222      0.0892
    134  N        -30.6790   36.5660  -14.8650 N.3   257  VAL257     -0.1245
    135  CA       -29.3050   36.1440  -14.6760 C.3   257  VAL257      0.1561
    136  C        -28.4230   37.3560  -14.5700 C.2   257  VAL257      0.2260
    137  O        -27.5740   37.4420  -13.6770 O.2   257  VAL257     -0.2867
    138  CB       -28.8540   35.2600  -15.8590 C.3   257  VAL257      0.0252
    139  CG1      -27.3400   35.0560  -15.9190 C.3   257  VAL257      0.0019
    140  CG2      -29.5350   33.9060  -15.8250 C.3   257  VAL257      0.0019
    141  N        -28.6210   39.1210  -11.0950 N.3   260  VAL260     -0.1231
    142  CA       -27.7440   38.5530  -10.0750 C.3   260  VAL260      0.1692
    143  C        -26.2910   38.8810  -10.3710 C.2   260  VAL260      0.2592
    144  O        -25.5470   39.2980   -9.4840 O.2   260  VAL260     -0.2718
    145  CB       -27.9370   37.0280   -9.9940 C.3   260  VAL260      0.0266
    146  CG1      -26.8890   36.3870   -9.0800 C.3   260  VAL260      0.0020
    147  CG2      -29.3580   36.6890   -9.5350 C.3   260  VAL260      0.0020
    148  N        -25.8630   38.6650  -11.6170 N.am  261  PHE261     -0.1976
    149  CA       -24.4770   38.8890  -12.0220 C.3   261  PHE261      0.1639
    150  C        -24.0430   40.3280  -11.7540 C.2   261  PHE261      0.2290
    151  O        -22.8890   40.5930  -11.3740 O.2   261  PHE261     -0.2864
    152  CB       -24.3400   38.5840  -13.4890 C.3   261  PHE261      0.0560
    153  CG       -23.0130   38.9240  -14.0900 C.ar  261  PHE261     -0.0200
    154  CD1      -21.9040   38.2040  -13.7620 C.ar  261  PHE261     -0.0042
    155  CD2      -22.8890   39.9610  -14.9900 C.ar  261  PHE261     -0.0042
    156  CE1      -20.6990   38.4760  -14.3540 C.ar  261  PHE261     -0.0003
    157  CE2      -21.6930   40.2410  -15.5890 C.ar  261  PHE261     -0.0003
    158  CZ       -20.5930   39.4990  -15.2650 C.ar  261  PHE261     -0.0000
    159  N        -23.3340   40.7990   -8.1290 N.3   264  ILE264     -0.1245
    160  CA       -21.9860   40.3430   -7.7950 C.3   264  ILE264      0.1561
    161  C        -20.9680   41.4010   -8.1960 C.2   264  ILE264      0.2260
    162  O        -20.1110   41.7970   -7.3980 O.2   264  ILE264     -0.2867
    163  CB       -21.6730   39.0010   -8.4810 C.3   264  ILE264      0.0252
    164  CG1      -22.7140   37.9310   -8.1350 C.3   264  ILE264      0.0019
    165  CG2      -20.2740   38.5150   -8.1740 C.3   264  ILE264      0.0019
    166  CD1      -23.0060   37.7660   -6.7050 C.3   264  ILE264      0.0001
    167  N        -15.4020   35.7000   -5.8750 N.3   272  LEU272     -0.1245
    168  CA       -15.0050   34.5390   -6.6610 C.3   272  LEU272      0.1561
    169  C        -13.5490   34.5550   -7.0800 C.2   272  LEU272      0.2260
    170  O        -13.1400   33.7270   -7.9080 O.2   272  LEU272     -0.2867
    171  CB       -15.8760   34.4270   -7.9140 C.3   272  LEU272      0.0270
    172  CG       -17.3590   34.2070   -7.6880 C.3   272  LEU272      0.0019
    173  CD1      -18.0550   34.4030   -9.0240 C.3   272  LEU272      0.0001
    174  CD2      -17.6150   32.8250   -7.0890 C.3   272  LEU272      0.0001
    175  N        -12.5390   28.3860   -9.2600 N.3   294  TRP294     -0.1241
    176  CA       -13.4790   27.3530   -8.8530 C.3   294  TRP294      0.1605
    177  C        -13.8740   26.4310   -9.9800 C.2   294  TRP294      0.2264
    178  O        -13.9860   25.2290   -9.7650 O.2   294  TRP294     -0.2867
    179  CB       -14.7140   28.0370   -8.2530 C.3   294  TRP294      0.0550
    180  CG       -15.5520   28.8000   -9.2810 C.ar  294  TRP294      0.0003
    181  CD1      -15.5140   30.1720   -9.5410 C.ar  294  TRP294      0.0946
    182  CD2      -16.5530   28.2690  -10.1670 C.ar  294  TRP294      0.0152
    183  NE1      -16.3940   30.4920  -10.5650 N.ar  294  TRP294     -0.2442
    184  CE2      -17.0400   29.3400  -10.9530 C.ar  294  TRP294      0.0810
    185  CE3      -17.0640   26.9960  -10.3890 C.ar  294  TRP294      0.0012
    186  CZ2      -18.0190   29.1520  -11.9050 C.ar  294  TRP294      0.0191
    187  CZ3      -18.0150   26.8280  -11.3400 C.ar  294  TRP294      0.0001
    188  CH2      -18.4860   27.8880  -12.0830 C.ar  294  TRP294      0.0015
    189  N        -35.6810   11.3350  -17.5730 N.3   356  ARG356     -0.1245
    190  CA       -36.9290   11.4720  -16.8450 C.3   356  ARG356      0.1563
    191  C        -37.6820   10.1510  -16.7510 C.2   356  ARG356      0.2260
    192  O        -38.4190    9.9290  -15.7830 O.2   356  ARG356     -0.2867
    193  CB       -37.7970   12.5030  -17.5660 C.3   356  ARG356      0.0307
    194  CG       -39.2010   12.6720  -17.0330 C.3   356  ARG356      0.0489
    195  CD       -39.9380   13.6810  -17.8540 C.3   356  ARG356      0.2205
    196  NE       -39.5060   15.0170  -17.5010 N.pl3 356  ARG356     -0.0865
    197  CZ       -39.9850   16.1410  -18.0160 C.cat 356  ARG356      0.5346
    198  NH1      -40.9460   16.1220  -18.9510 N.pl3 356  ARG356      0.1354
    199  NH2      -39.4690   17.2980  -17.6000 N.pl3 356  ARG356      0.1354
    200  N        -27.3030    9.6450  -11.8750 N.3   365  PHE365     -0.1227
    201  CA       -27.0810   10.9820  -12.3790 C.3   365  PHE365      0.1736
    202  C        -26.9510   11.9740  -11.2400 C.2   365  PHE365      0.2595
    203  O        -25.9690   12.7190  -11.1570 O.2   365  PHE365     -0.2718
    204  CB       -28.2250   11.3900  -13.2970 C.3   365  PHE365      0.0547
    205  CG       -28.2300   12.8450  -13.5800 C.ar  365  PHE365     -0.0202
    206  CD1      -27.4370   13.3560  -14.5710 C.ar  365  PHE365     -0.0042
    207  CD2      -29.0330   13.7040  -12.8390 C.ar  365  PHE365     -0.0042
    208  CE1      -27.4110   14.6730  -14.7940 C.ar  365  PHE365     -0.0003
    209  CE2      -29.0150   15.0040  -13.0660 C.ar  365  PHE365     -0.0003
    210  CZ       -28.2040   15.5050  -14.0420 C.ar  365  PHE365     -0.0000
    211  N        -27.8860   11.9330  -10.3000 N.am  366  TRP366     -0.1976
    212  CA       -27.8470   12.8960   -9.2150 C.3   366  TRP366      0.1640
    213  C        -26.6600   12.6570   -8.2960 C.2   366  TRP366      0.2290
    214  O        -26.1590   13.6010   -7.6720 O.2   366  TRP366     -0.2864
    215  CB       -29.1670   12.8420   -8.4770 C.3   366  TRP366      0.0576
    216  CG       -30.2340   13.5480   -9.2410 C.ar  366  TRP366      0.0006
    217  CD1      -31.3590   12.9910   -9.7960 C.ar  366  TRP366      0.0946
    218  CD2      -30.2880   14.9390   -9.5540 C.ar  366  TRP366      0.0152
    219  NE1      -32.1020   13.9540  -10.4300 N.ar  366  TRP366     -0.2442
    220  CE2      -31.4670   15.1570  -10.2920 C.ar  366  TRP366      0.0810
    221  CE3      -29.4520   16.0220   -9.2820 C.ar  366  TRP366      0.0012
    222  CZ2      -31.8310   16.3950  -10.7500 C.ar  366  TRP366      0.0191
    223  CZ3      -29.8140   17.2630   -9.7400 C.ar  366  TRP366      0.0001
    224  CH2      -31.0010   17.4370  -10.4720 C.ar  366  TRP366      0.0015
    225  N        -24.0700   14.5740  -10.1110 N.3   369  ALA369     -0.1245
    226  CA       -24.1760   15.9980   -9.8260 C.3   369  ALA369      0.1562
    227  C        -23.5810   16.3200   -8.4620 C.2   369  ALA369      0.2260
    228  O        -22.7760   17.2490   -8.3230 O.2   369  ALA369     -0.2867
    229  CB       -25.6370   16.4190   -9.8780 C.3   369  ALA369      0.0290
    230  N        -19.8890   16.0070   -8.6590 N.3   372  PHE372     -0.1227
    231  CA       -19.2250   17.1340   -9.2990 C.3   372  PHE372      0.1736
    232  C        -19.0400   18.2680   -8.3120 C.2   372  PHE372      0.2595
    233  O        -17.9710   18.8930   -8.2690 O.2   372  PHE372     -0.2718
    234  CB       -20.0140   17.5980  -10.5130 C.3   372  PHE372      0.0547
    235  CG       -19.3380   18.7210  -11.2730 C.ar  372  PHE372     -0.0202
    236  CD1      -18.3060   18.4430  -12.1920 C.ar  372  PHE372     -0.0042
    237  CD2      -19.7520   20.0370  -11.1080 C.ar  372  PHE372     -0.0042
    238  CE1      -17.6820   19.4490  -12.9120 C.ar  372  PHE372     -0.0003
    239  CE2      -19.1550   21.0460  -11.8190 C.ar  372  PHE372     -0.0003
    240  CZ       -18.1100   20.7520  -12.7350 C.ar  372  PHE372     -0.0000
    241  N        -20.0610   18.5140   -7.4860 N.am  373  VAL373     -0.1980
    242  CA       -19.9560   19.5170   -6.4330 C.3   373  VAL373      0.1595
    243  C        -18.9280   19.1030   -5.3870 C.2   373  VAL373      0.2287
    244  O        -18.1160   19.9240   -4.9540 O.2   373  VAL373     -0.2864
    245  CB       -21.3360   19.7260   -5.8130 C.3   373  VAL373      0.0276
    246  CG1      -21.3020   20.6630   -4.6280 C.3   373  VAL373      0.0022
    247  CG2      -22.2110   20.2790   -6.8320 C.3   373  VAL373      0.0022
    248  N        -15.5010   19.6600   -6.7620 N.3   376  THR376     -0.1218
    249  CA       -15.1230   21.0750   -6.7280 C.3   376  THR376      0.1862
    250  C        -14.6210   21.4660   -5.3470 C.2   376  THR376      0.2287
    251  O        -13.5840   22.1210   -5.2150 O.2   376  THR376     -0.2866
    252  CB       -16.3140   21.9790   -7.0620 C.3   376  THR376      0.1770
    253  OG1      -16.8590   21.6400   -8.3170 O.3   376  THR376     -0.2211
    254  CG2      -15.8810   23.4130   -7.1660 C.3   376  THR376      0.0375
    255  N        -49.2740   20.0330  -18.6990 N.3   429  HIS429     -0.1241
    256  CA       -48.6830   21.1210  -17.9230 C.3   429  HIS429      0.1621
    257  C        -49.3390   22.4870  -18.2810 C.2   429  HIS429      0.2264
    258  O        -50.3820   22.5890  -18.9710 O.2   429  HIS429     -0.2867
    259  CB       -47.1680   21.1950  -18.1670 C.3   429  HIS429      0.0745
    260  CG       -46.4180   19.9240  -17.8620 C.ar  429  HIS429      0.0817
    261  ND1      -46.9760   18.8590  -17.1820 N.ar  429  HIS429     -0.2268
    262  CD2      -45.1380   19.5610  -18.1330 C.ar  429  HIS429      0.1154
    263  CE1      -46.0800   17.8950  -17.0580 C.ar  429  HIS429      0.1986
    264  NE2      -44.9560   18.2960  -17.6260 N.ar  429  HIS429     -0.2212
@<TRIPOS>BOND
     1   102   100    1
     2   101   100    1
     3   100    99    2
     4   118   117    2
     5   127   133    1
     6   127   128    1
     7   133   132    1
     8    99    98    1
     9   117   116    1
    10    20    19    2
    11    19    18    1
    12   129   128    1
    13   129   130    2
    14   128   131    1
    15    98    97    1
    16   119   116    1
    17   119   120    1
    18   132   131    1
    19   116   115    1
    20    17    18    1
    21     1     2    1
    22    18    21    1
    23   120   121   ar
    24   120   122   ar
    25     4     3    2
    26    12    11    2
    27    97    96    1
    28   115   105   am
    29    95    94    2
    30    21    22    1
    31   121   123   ar
    32    11    10    1
    33    94    93    1
    34   122   124   ar
    35     2     3    1
    36     2     5    1
    37    96    93    1
    38   258   257    2
    39   198   197    1
    40   105   106    2
    41   105   104    1
    42     7     6    2
    43   123   125   ar
    44   255   256    1
    45    93    92    1
    46     6     5    1
    47     6     8   am
    48   124   125   ar
    49    22    23   ar
    50    22    24   ar
    51   103   104    1
    52   257   256    1
    53    10     9    1
    54    10    13    1
    55   259   256    1
    56   259   260    1
    57   262   260   ar
    58   262   264   ar
    59   125   126    1
    60   197   199    1
    61   197   196    2
    62    23    25   ar
    63    13    14    1
    64    92    83   am
    65   260   261   ar
    66   195   196    1
    67   195   194    1
    68   104   107    1
    69    81    82    1
    70   264   263   ar
    71   189   190    1
    72   193   194    1
    73   193   190    1
    74    76    75    2
    75    24    27   ar
    76    24    26   ar
    77    75    74    1
    78    83    84    2
    79    83    82    1
    80    27    29   ar
    81   261   263   ar
    82    61    62    1
    83   107   108    1
    84    82    85    1
    85   190   191    1
    86    52    50    1
    87    25    26   ar
    88   191   192    2
    89   110   108   ar
    90   110   112   ar
    91    48    47    2
    92    47    46    1
    93    14    15    1
    94    50    49    1
    95    50    51    1
    96    26    28   ar
    97    64    63    2
    98    62    63    1
    99    62    65    1
   100   108   109   ar
   101    63    73   am
   102   112   113   ar
   103    69    67   ar
   104    69    71   ar
   105    29    30   ar
   106    74    73    1
   107    74    77    1
   108    67    66   ar
   109   139   138    1
   110   138   140    1
   111   138   135    1
   112    49    46    1
   113    15    16    1
   114   157   158   ar
   115   157   155   ar
   116    72    71    1
   117    77    78    1
   118    85    86    1
   119    71    70   ar
   120    55    56    2
   121    55    54    1
   122    46    45    1
   123   158   156   ar
   124    28    30   ar
   125   109   111   ar
   126    66    65    1
   127    66    68   ar
   128   155   153   ar
   129   113   111   ar
   130   113   114    1
   131    53    54    1
   132   134   135    1
   133   208   206   ar
   134   208   210   ar
   135    39    40    1
   136    45    41   am
   137    86    88   ar
   138    86    87   ar
   139   135   136    1
   140    88    90   ar
   141   206   205   ar
   142   136   137    2
   143    70    68   ar
   144   156   154   ar
   145    33    34    2
   146    33    32    1
   147    41    42    2
   148    41    40    1
   149    54    57    1
   150    87    89   ar
   151   153   154   ar
   152   153   152    1
   153   210   209   ar
   154    78    79    1
   155    78    80    1
   156    90    91   ar
   157    40    43    1
   158    59    57    1
   159   205   204    1
   160   205   207   ar
   161    31    32    1
   162    89    91   ar
   163   152   149    1
   164   204   201    1
   165    57    58    1
   166    32    35    1
   167   209   207   ar
   168   238   240   ar
   169   238   236   ar
   170   240   239   ar
   171    35    36    1
   172    43    44    1
   173   201   200    1
   174   201   202    1
   175    58    60    1
   176   236   235   ar
   177   188   186   ar
   178   188   187   ar
   179   149   150    1
   180   149   148    1
   181   186   184   ar
   182   239   237   ar
   183   150   151    2
   184   148   143   am
   185   187   185   ar
   186   235   237   ar
   187   235   234    1
   188   202   203    2
   189   202   211   am
   190   141   142    1
   191    36    38   am
   192    36    37    2
   193   184   183   ar
   194   184   182   ar
   195   222   224   ar
   196   222   220   ar
   197   183   181   ar
   198   234   231    1
   199   224   223   ar
   200   219   220   ar
   201   219   217   ar
   202   185   182   ar
   203   143   142    1
   204   143   144    2
   205   211   212    1
   206   220   218   ar
   207   182   180   ar
   208   225   226    1
   209   142   145    1
   210   145   147    1
   211   145   146    1
   212   177   178    2
   213   177   176    1
   214   229   226    1
   215   226   227    1
   216   217   216   ar
   217   223   221   ar
   218   218   221   ar
   219   218   216   ar
   220   181   180   ar
   221   231   230    1
   222   231   232    1
   223   180   179    1
   224   175   176    1
   225   216   215    1
   226   212   215    1
   227   212   213    1
   228   173   172    1
   229   176   179    1
   230   163   165    1
   231   163   164    1
   232   163   160    1
   233   227   228    2
   234   253   252    1
   235   232   233    2
   236   232   241   am
   237   213   214    2
   238   161   160    1
   239   161   162    2
   240   164   166    1
   241   159   160    1
   242   171   172    1
   243   171   168    1
   244   170   169    2
   245   172   174    1
   246   241   242    1
   247   254   252    1
   248   169   168    1
   249   252   249    1
   250   247   245    1
   251   248   249    1
   252   249   250    1
   253   168   167    1
   254   242   245    1
   255   242   243    1
   256   245   246    1
   257   243   244    2
   258   250   251    2
