@<TRIPOS>MOLECULE
tmp/5kkzK01.pdb
 80 79 0 0 0
SMALL
GASTEIGER

@<TRIPOS>ATOM
      1  N         26.4670   42.4280  -51.3720 N.3    14  GLU14      -0.1231
      2  CA        25.4410   42.8320  -52.3190 C.3    14  GLU14       0.1699
      3  C         25.2500   41.7600  -53.3870 C.2    14  GLU14       0.2593
      4  O         26.1620   40.9910  -53.6930 O.2    14  GLU14      -0.2718
      5  CB        25.8390   44.1500  -52.9750 C.3    14  GLU14       0.0402
      6  CG        25.8490   45.3500  -52.0610 C.3    14  GLU14       0.1161
      7  CD        26.4790   46.5710  -52.7170 C.2    14  GLU14       0.3649
      8  OE1       27.3170   46.4210  -53.6360 O.co2  14  GLU14      -0.2457
      9  OE2       26.1510   47.6950  -52.2950 O.co2  14  GLU14      -0.2457
     10  N         24.0600   41.7410  -53.9800 N.am   15  GLY15      -0.1943
     11  CA        23.6910   40.7180  -54.9330 C.3    15  GLY15       0.1998
     12  C         23.0150   39.5390  -54.2630 C.2    15  GLY15       0.2480
     13  O         23.1750   39.3300  -53.0540 O.2    15  GLY15      -0.2729
     14  N         22.2160   38.7620  -55.0140 N.am   16  PRO16      -0.2726
     15  CA        21.4920   37.6410  -54.3790 C.3    16  PRO16       0.1402
     16  C         22.4040   36.5820  -53.7750 C.2    16  PRO16       0.2269
     17  O         22.0390   35.9750  -52.7640 O.2    16  PRO16      -0.2865
     18  CB        20.6310   37.0890  -55.5230 C.3    16  PRO16       0.0296
     19  CG        21.2820   37.5600  -56.7600 C.3    16  PRO16       0.0237
     20  CD        21.8950   38.8720  -56.4450 C.3    16  PRO16       0.0939
     21  N         16.7470   52.6490  -56.6550 N.3   120  GLN120     -0.1231
     22  CA        16.8630   51.6900  -55.5770 C.3   120  GLN120      0.1698
     23  C         16.5710   50.2720  -56.0630 C.2   120  GLN120      0.2592
     24  O         17.1550   49.3080  -55.5550 O.2   120  GLN120     -0.2718
     25  CB        15.9080   52.0880  -54.4630 C.3   120  GLN120      0.0381
     26  CG        16.3620   53.2020  -53.6120 C.3   120  GLN120      0.0905
     27  CD        15.4100   53.4080  -52.4780 C.2   120  GLN120      0.2608
     28  OE1       14.3190   52.8110  -52.4490 O.2   120  GLN120     -0.2717
     29  NE2       15.8040   54.2230  -51.5150 N.am  120  GLN120     -0.0878
     30  N         15.7000   50.1280  -57.0650 N.am  121  LEU121     -0.1966
     31  CA        15.3230   48.7980  -57.5290 C.3   121  LEU121      0.1728
     32  C         16.5060   48.0140  -58.0740 C.2   121  LEU121      0.2616
     33  O         16.5470   46.7890  -57.9220 O.2   121  LEU121     -0.2715
     34  CB        14.2260   48.9080  -58.6010 C.3   121  LEU121      0.0311
     35  CG        13.5840   47.6060  -59.1120 C.3   121  LEU121      0.0022
     36  CD1       12.6340   47.0200  -58.0570 C.3   121  LEU121      0.0001
     37  CD2       12.8390   47.8480  -60.4210 C.3   121  LEU121      0.0001
     38  N         17.5120   48.6960  -58.6150 N.am  122  PHE122     -0.1960
     39  CA        18.6610   48.0400  -59.2300 C.3   122  PHE122      0.1771
     40  C         19.9340   48.1400  -58.4030 C.2   122  PHE122      0.2620
     41  O         20.7960   47.2710  -58.5250 O.2   122  PHE122     -0.2715
     42  CB        18.9430   48.6470  -60.6160 C.3   122  PHE122      0.0574
     43  CG        17.9630   48.2590  -61.7140 C.ar  122  PHE122     -0.0200
     44  CD1       17.3080   47.0340  -61.7350 C.ar  122  PHE122     -0.0042
     45  CD2       17.7340   49.1410  -62.7600 C.ar  122  PHE122     -0.0042
     46  CE1       16.4440   46.7140  -62.7590 C.ar  122  PHE122     -0.0003
     47  CE2       16.8720   48.8200  -63.7860 C.ar  122  PHE122     -0.0003
     48  CZ        16.2270   47.6040  -63.7820 C.ar  122  PHE122     -0.0000
     49  N         20.0990   49.1960  -57.6120 N.am  123  ASN123     -0.1958
     50  CA        21.3070   49.4330  -56.8350 C.3   123  ASN123      0.1819
     51  C         21.1070   49.2160  -55.3410 C.2   123  ASN123      0.2621
     52  O         22.0720   49.3420  -54.5700 O.2   123  ASN123     -0.2715
     53  CB        21.8240   50.8440  -57.0970 C.3   123  ASN123      0.1195
     54  CG        22.2970   51.0260  -58.5240 C.2   123  ASN123      0.2630
     55  OD1       22.9800   50.1600  -59.0780 O.2   123  ASN123     -0.2716
     56  ND2       21.9240   52.1480  -59.1350 N.am  123  ASN123     -0.0877
     57  N         19.8930   48.8800  -54.9080 N.am  124  GLY124     -0.1954
     58  CA        19.6060   48.7350  -53.4980 C.3   124  GLY124      0.1869
     59  C         19.3200   50.0790  -52.8820 C.2   124  GLY124      0.2309
     60  O         19.2680   51.1000  -53.5560 O.2   124  GLY124     -0.2863
     61  N         18.6670   35.1280  -44.4860 N.3   226  ARG226     -0.1231
     62  CA        17.5170   35.5580  -45.2690 C.3   226  ARG226      0.1694
     63  C         17.6620   35.1670  -46.7410 C.2   226  ARG226      0.2591
     64  O         16.6870   34.7430  -47.3760 O.2   226  ARG226     -0.2718
     65  CB        17.3490   37.0660  -45.1100 C.3   226  ARG226      0.0321
     66  CG        16.0330   37.6360  -45.6450 C.3   226  ARG226      0.0489
     67  CD        16.0960   39.1550  -45.7340 C.3   226  ARG226      0.2205
     68  NE        17.0060   39.5580  -46.8020 N.pl3 226  ARG226     -0.0865
     69  CZ        17.7690   40.6410  -46.7970 C.cat 226  ARG226      0.5346
     70  NH1       17.7570   41.4780  -45.7590 N.pl3 226  ARG226      0.1354
     71  NH2       18.5600   40.8830  -47.8490 N.pl3 226  ARG226      0.1354
     72  N         18.8680   35.3070  -47.3010 N.am  227  LYS227     -0.1980
     73  CA        19.0930   34.9580  -48.7020 C.3   227  LYS227      0.1596
     74  C         19.0590   33.4490  -48.9270 C.2   227  LYS227      0.2287
     75  O         18.5640   32.9950  -49.9660 O.2   227  LYS227     -0.2864
     76  CB        20.3980   35.5810  -49.2120 C.3   227  LYS227      0.0298
     77  CG        20.1790   37.0800  -49.5300 C.3   227  LYS227      0.0038
     78  CD        21.3880   37.9770  -49.3760 C.3   227  LYS227      0.0206
     79  CE        21.1050   39.3810  -49.9150 C.3   227  LYS227      0.1093
     80  NZ        22.2600   40.0140  -50.6040 N.3   227  LYS227     -0.1314
@<TRIPOS>BOND
     1    47    48   ar
     2    47    45   ar
     3    48    46   ar
     4    45    43   ar
     5    46    44   ar
     6    44    43   ar
     7    43    42    1
     8    42    39    1
     9    37    35    1
    10    39    38    1
    11    39    40    1
    12    56    54   am
    13    35    34    1
    14    35    36    1
    15    55    54    2
    16    38    32   am
    17    34    31    1
    18    41    40    2
    19    54    53    1
    20    40    49   am
    21    32    33    2
    22    32    31    1
    23    49    50    1
    24    31    30    1
    25    53    50    1
    26    30    23   am
    27    50    51    1
    28    19    20    1
    29    19    18    1
    30    21    22    1
    31    20    14    1
    32    23    22    1
    33    23    24    2
    34    22    25    1
    35    18    15    1
    36    51    57   am
    37    51    52    2
    38    14    15    1
    39    14    12   am
    40    11    12    1
    41    11    10    1
    42    57    58    1
    43    25    26    1
    44    15    16    1
    45    12    13    2
    46    10     3   am
    47    16    17    2
    48     4     3    2
    49     8     7   ar
    50    26    27    1
    51    60    59    2
    52    58    59    1
    53     3     2    1
    54     5     2    1
    55     5     6    1
    56     7     9   ar
    57     7     6    1
    58    27    28    2
    59    27    29   am
    60     2     1    1
    61    80    79    1
    62    75    74    2
    63    79    78    1
    64    77    78    1
    65    77    76    1
    66    76    73    1
    67    74    73    1
    68    73    72    1
    69    71    69    1
    70    64    63    2
    71    72    63   am
    72    68    69    2
    73    68    67    1
    74    69    70    1
    75    63    62    1
    76    67    66    1
    77    66    65    1
    78    62    65    1
    79    62    61    1
