@<TRIPOS>MOLECULE
tmp/5kl0A00.pdb
 197 186 0 0 0
SMALL
GASTEIGER

@<TRIPOS>ATOM
      1  N        -11.6230   -8.2030   10.3800 N.3     9  TYR9       -0.1227
      2  CA       -10.7270   -7.9200   11.4980 C.3     9  TYR9        0.1736
      3  C        -10.1240   -9.1450   12.1660 C.2     9  TYR9        0.2595
      4  O         -9.1860   -8.9900   12.9570 O.2     9  TYR9       -0.2718
      5  CB       -11.4570   -7.1330   12.5920 C.3     9  TYR9        0.0548
      6  CG       -11.9090   -5.7610   12.1890 C.ar    9  TYR9       -0.0200
      7  CD1      -11.1270   -4.9600   11.3690 C.ar    9  TYR9       -0.0009
      8  CD2      -13.1210   -5.2610   12.6430 C.ar    9  TYR9       -0.0009
      9  CE1      -11.5470   -3.6900   11.0050 C.ar    9  TYR9        0.0417
     10  CE2      -13.5510   -3.9960   12.2880 C.ar    9  TYR9        0.0417
     11  CZ       -12.7610   -3.2160   11.4690 C.ar    9  TYR9        0.1957
     12  OH       -13.1970   -1.9550   11.1240 O.3     9  TYR9       -0.2866
     13  N        -10.6460  -10.3360   11.9170 N.am   10  ASP10      -0.1974
     14  CA       -10.2190  -11.5150   12.6650 C.3    10  ASP10       0.1709
     15  C        -10.7340  -12.7540   11.9470 C.2    10  ASP10       0.2293
     16  O        -11.3300  -12.6660   10.8720 O.2    10  ASP10      -0.2864
     17  CB       -10.7050  -11.4770   14.1130 C.3    10  ASP10       0.1436
     18  CG       -12.2260  -11.3790   14.2380 C.2    10  ASP10       0.3671
     19  OD1      -12.9610  -11.5630   13.2430 O.co2  10  ASP10      -0.2456
     20  OD2      -12.6870  -11.1240   15.3670 O.co2  10  ASP10      -0.2456
     21  N        -13.1450  -16.1480   12.3400 N.3    12  ARG12      -0.1245
     22  CA       -14.3260  -16.5090   13.1230 C.3    12  ARG12       0.1563
     23  C        -15.0950  -17.5510   12.3350 C.2    12  ARG12       0.2260
     24  O        -15.4280  -17.2990   11.1760 O.2    12  ARG12      -0.2867
     25  CB       -15.2270  -15.2890   13.3780 C.3    12  ARG12       0.0307
     26  CG       -14.6740  -14.2530   14.3410 C.3    12  ARG12       0.0489
     27  CD       -15.7110  -13.2120   14.7410 C.3    12  ARG12       0.2205
     28  NE       -15.7820  -12.0790   13.8190 N.pl3  12  ARG12      -0.0865
     29  CZ       -16.7920  -11.8530   12.9800 C.cat  12  ARG12       0.5346
     30  NH1      -17.8230  -12.6860   12.9360 N.pl3  12  ARG12       0.1354
     31  NH2      -16.7770  -10.7860   12.1870 N.pl3  12  ARG12       0.1354
     32  N        -18.5690  -13.8320   21.4330 N.3    97  HIS97      -0.1241
     33  CA       -19.8990  -14.2720   21.8610 C.3    97  HIS97       0.1621
     34  C        -20.6450  -15.0430   20.7690 C.2    97  HIS97       0.2264
     35  O        -21.8800  -15.0360   20.7150 O.2    97  HIS97      -0.2867
     36  CB       -20.7460  -13.0810   22.3440 C.3    97  HIS97       0.0745
     37  CG       -21.1290  -12.1190   21.2620 C.ar   97  HIS97       0.0817
     38  ND1      -20.3790  -11.0030   20.9580 N.ar   97  HIS97      -0.2268
     39  CD2      -22.1930  -12.0980   20.4240 C.ar   97  HIS97       0.1154
     40  CE1      -20.9620  -10.3390   19.9750 C.ar   97  HIS97       0.1986
     41  NE2      -22.0620  -10.9840   19.6310 N.ar   97  HIS97      -0.2212
     42  N         -7.7560  -13.7980   16.9520 N.3   106  LYS106     -0.1245
     43  CA        -7.4020  -12.3990   16.7490 C.3   106  LYS106      0.1561
     44  C         -5.8860  -12.3250   16.6370 C.2   106  LYS106      0.2260
     45  O         -5.1780  -12.8130   17.5150 O.2   106  LYS106     -0.2867
     46  CB        -7.9290  -11.5450   17.9130 C.3   106  LYS106      0.0271
     47  CG        -9.4620  -11.5710   17.9800 C.3   106  LYS106      0.0035
     48  CD       -10.0150  -10.7960   19.1710 C.3   106  LYS106      0.0206
     49  CE       -11.5420  -10.8440   19.1600 C.3   106  LYS106      0.1093
     50  NZ       -12.1600  -10.0970   20.2860 N.3   106  LYS106     -0.1314
     51  N        -17.6520   -9.4090   28.4170 N.3   236  ASP236     -0.1239
     52  CA       -17.8020  -10.5200   27.4920 C.3   236  ASP236      0.1674
     53  C        -16.7480  -11.5690   27.8300 C.2   236  ASP236      0.2266
     54  O        -15.9880  -11.4210   28.7950 O.2   236  ASP236     -0.2867
     55  CB       -17.7470  -10.0420   26.0340 C.3   236  ASP236      0.1410
     56  CG       -16.4090   -9.4150   25.6450 C.2   236  ASP236      0.3668
     57  OD1      -15.5650   -9.1690   26.5310 O.co2 236  ASP236     -0.2456
     58  OD2      -16.2400   -9.1480   24.4300 O.co2 236  ASP236     -0.2456
     59  N        -12.4070   -8.1420   26.7430 N.3   240  ASP240     -0.1225
     60  CA       -11.9650   -6.8590   26.2050 C.3   240  ASP240      0.1805
     61  C        -13.1000   -5.8400   26.1120 C.2   240  ASP240      0.2597
     62  O        -12.8360   -4.6740   25.7930 O.2   240  ASP240     -0.2718
     63  CB       -11.2740   -7.0230   24.8410 C.3   240  ASP240      0.1424
     64  CG       -12.1410   -7.7240   23.8030 C.2   240  ASP240      0.3668
     65  OD1      -13.2680   -8.1300   24.1240 O.co2 240  ASP240     -0.2456
     66  OD2      -11.6650   -7.8910   22.6530 O.co2 240  ASP240     -0.2456
     67  N        -14.3360   -6.2290   26.4580 N.am  241  ARG241     -0.1979
     68  CA       -15.4700   -5.3150   26.5700 C.3   241  ARG241      0.1597
     69  C        -15.9910   -5.3430   28.0020 C.2   241  ARG241      0.2287
     70  O        -16.1490   -6.4180   28.5850 O.2   241  ARG241     -0.2864
     71  CB       -16.6190   -5.6970   25.6090 C.3   241  ARG241      0.0334
     72  CG       -16.2720   -5.5280   24.1280 C.3   241  ARG241      0.0492
     73  CD       -17.5250   -5.7350   23.2570 C.3   241  ARG241      0.2205
     74  NE       -18.0790   -7.0760   23.4480 N.pl3 241  ARG241     -0.0865
     75  CZ       -19.3310   -7.4430   23.1610 C.cat 241  ARG241      0.5346
     76  NH1      -20.1990   -6.5690   22.6730 N.pl3 241  ARG241      0.1354
     77  NH2      -19.7130   -8.6980   23.3640 N.pl3 241  ARG241      0.1354
     78  N        -20.1240    7.7940   15.5780 N.3   279  ARG279     -0.1245
     79  CA       -21.5230    7.4030   15.7180 C.3   279  ARG279      0.1563
     80  C        -22.2670    8.3360   16.6590 C.2   279  ARG279      0.2260
     81  O        -23.3710    8.8090   16.3470 O.2   279  ARG279     -0.2867
     82  CB       -21.5900    5.9700   16.2230 C.3   279  ARG279      0.0307
     83  CG       -21.0720    4.9750   15.2060 C.3   279  ARG279      0.0489
     84  CD       -21.1170    3.5880   15.8020 C.3   279  ARG279      0.2205
     85  NE       -20.0740    3.3710   16.7820 N.pl3 279  ARG279     -0.0865
     86  CZ       -19.2220    2.3540   16.7250 C.cat 279  ARG279      0.5346
     87  NH1      -19.3130    1.4700   15.7410 N.pl3 279  ARG279      0.1354
     88  NH2      -18.2910    2.2110   17.6560 N.pl3 279  ARG279      0.1354
     89  N        -14.8920    4.3980   13.0390 N.3   300  SER300     -0.1202
     90  CA       -14.9960    3.3770   14.0700 C.3   300  SER300      0.2020
     91  C        -14.2880    2.1020   13.6260 C.2   300  SER300      0.2619
     92  O        -14.0360    1.8850   12.4440 O.2   300  SER300     -0.2717
     93  CB       -16.4560    3.0640   14.4140 C.3   300  SER300      0.2103
     94  OG       -17.0360    2.2280   13.4350 O.3   300  SER300     -0.2182
     95  N        -13.9590    1.2710   14.5960 N.am  301  GLY301     -0.1942
     96  CA       -13.2740    0.0070   14.3760 C.3   301  GLY301      0.2014
     97  C        -11.8780    0.1020   14.9630 C.2   301  GLY301      0.2638
     98  O        -11.1790    1.1070   14.7800 O.2   301  GLY301     -0.2714
     99  N        -11.4570   -0.9630   15.6600 N.am  302  HIS302     -0.1973
    100  CA       -10.2420   -0.8790   16.4710 C.3   302  HIS302      0.1656
    101  C         -9.0100   -0.5390   15.6340 C.2   302  HIS302      0.2291
    102  O         -8.1280    0.1930   16.0980 O.2   302  HIS302     -0.2864
    103  CB       -10.0330   -2.1810   17.2450 C.3   302  HIS302      0.0771
    104  CG        -9.6260   -3.3350   16.3870 C.ar  302  HIS302      0.0820
    105  ND1       -8.3870   -3.9320   16.4900 N.ar  302  HIS302     -0.2267
    106  CD2      -10.2820   -3.9940   15.4030 C.ar  302  HIS302      0.1154
    107  CE1       -8.2950   -4.9050   15.6010 C.ar  302  HIS302      0.1986
    108  NE2       -9.4290   -4.9630   14.9270 N.ar  302  HIS302     -0.2212
    109  N        -14.7950    3.8390   22.0210 N.3   319  GLU319     -0.1245
    110  CA       -15.9480    3.6540   21.1590 C.3   319  GLU319      0.1567
    111  C        -17.2080    3.4610   21.9860 C.2   319  GLU319      0.2260
    112  O        -17.1740    2.9170   23.0930 O.2   319  GLU319     -0.2867
    113  CB       -15.7630    2.4390   20.2470 C.3   319  GLU319      0.0388
    114  CG       -14.5810    2.5530   19.3240 C.3   319  GLU319      0.1160
    115  CD       -14.4990    1.3730   18.3950 C.2   319  GLU319      0.3649
    116  OE1      -13.8240    0.3940   18.7460 O.co2 319  GLU319     -0.2457
    117  OE2      -15.1440    1.4070   17.3330 O.co2 319  GLU319     -0.2457
    118  N        -19.2600    1.2890   21.5530 N.3   321  SER321     -0.1217
    119  CA       -19.4960   -0.1530   21.5970 C.3   321  SER321      0.1889
    120  C        -18.6710   -0.8730   22.6700 C.2   321  SER321      0.2288
    121  O        -18.3870   -2.0750   22.5220 O.2   321  SER321     -0.2866
    122  CB       -19.2020   -0.7540   20.2220 C.3   321  SER321      0.2089
    123  OG       -17.8800   -0.4190   19.8360 O.3   321  SER321     -0.2183
    124  N        -15.4740   -0.4480   23.8530 N.3   323  HIS323     -0.1241
    125  CA       -14.0570   -0.7050   23.6140 C.3   323  HIS323      0.1621
    126  C        -13.2970    0.5430   24.0480 C.2   323  HIS323      0.2264
    127  O        -13.6200    1.6460   23.6000 O.2   323  HIS323     -0.2867
    128  CB       -13.7680   -1.0250   22.1320 C.3   323  HIS323      0.0745
    129  CG       -14.4540   -2.2640   21.6230 C.ar  323  HIS323      0.0817
    130  ND1      -15.5760   -2.2160   20.8220 N.ar  323  HIS323     -0.2268
    131  CD2      -14.1880   -3.5790   21.8150 C.ar  323  HIS323      0.1154
    132  CE1      -15.9650   -3.4460   20.5320 C.ar  323  HIS323      0.1986
    133  NE2      -15.1380   -4.2930   21.1190 N.ar  323  HIS323     -0.2212
    134  N         -9.3780    2.1370   24.7400 N.3   325  TYR325     -0.1241
    135  CA        -7.9820    1.9370   24.3540 C.3   325  TYR325      0.1605
    136  C         -7.0850    2.9050   25.1160 C.2   325  TYR325      0.2264
    137  O         -7.4510    4.0710   25.3180 O.2   325  TYR325     -0.2867
    138  CB        -7.7930    2.1600   22.8430 C.3   325  TYR325      0.0534
    139  CG        -8.7720    1.3990   21.9740 C.ar  325  TYR325     -0.0201
    140  CD1      -10.0570    1.8840   21.7430 C.ar  325  TYR325     -0.0009
    141  CD2       -8.4180    0.2020   21.3900 C.ar  325  TYR325     -0.0009
    142  CE1      -10.9500    1.1940   20.9400 C.ar  325  TYR325      0.0417
    143  CE2       -9.3150   -0.5080   20.5910 C.ar  325  TYR325      0.0417
    144  CZ       -10.5840   -0.0010   20.3770 C.ar  325  TYR325      0.1957
    145  OH       -11.4900   -0.6830   19.5900 O.3   325  TYR325     -0.2866
    146  N        -27.7080    2.1900   19.6020 N.3   369  GLU369     -0.1245
    147  CA       -27.4950    1.7120   18.2440 C.3   369  GLU369      0.1567
    148  C        -28.6540    0.8140   17.8510 C.2   369  GLU369      0.2260
    149  O        -28.9980   -0.1290   18.5720 O.2   369  GLU369     -0.2867
    150  CB       -26.1680    0.9720   18.1280 C.3   369  GLU369      0.0388
    151  CG       -25.7690    0.6650   16.7020 C.3   369  GLU369      0.1160
    152  CD       -24.2830    0.3720   16.5870 C.2   369  GLU369      0.3649
    153  OE1      -23.8980   -0.7930   16.8420 O.co2 369  GLU369     -0.2457
    154  OE2      -23.5120    1.3160   16.2910 O.co2 369  GLU369     -0.2457
    155  N        -24.4390    3.9050    9.1780 N.3   413  ARG413     -0.1245
    156  CA       -23.2910    3.1570    8.6790 C.3   413  ARG413      0.1563
    157  C        -23.6870    1.7760    8.1920 C.2   413  ARG413      0.2260
    158  O        -24.5690    1.1340    8.7650 O.2   413  ARG413     -0.2867
    159  CB       -22.2400    2.8830    9.7780 C.3   413  ARG413      0.0307
    160  CG       -21.5620    4.0490   10.3690 C.3   413  ARG413      0.0489
    161  CD       -20.6690    3.5780   11.5030 C.3   413  ARG413      0.2205
    162  NE       -19.6860    2.5820   11.0890 N.pl3 413  ARG413     -0.0865
    163  CZ       -19.6540    1.3220   11.5110 C.cat 413  ARG413      0.5346
    164  NH1      -20.5660    0.8830   12.3730 N.pl3 413  ARG413      0.1354
    165  NH2      -18.6940    0.5070   11.0730 N.pl3 413  ARG413      0.1354
    166  N        -22.1900   -1.8960    8.5250 N.3   415  SER415     -0.1202
    167  CA       -21.2800   -2.5870    9.4250 C.3   415  SER415      0.2020
    168  C        -20.1660   -3.2650    8.6330 C.2   415  SER415      0.2619
    169  O        -20.3810   -3.7620    7.5220 O.2   415  SER415     -0.2717
    170  CB       -22.0430   -3.6170   10.2620 C.3   415  SER415      0.2103
    171  OG       -21.1590   -4.5210   10.9100 O.3   415  SER415     -0.2182
    172  N        -18.9630   -3.2690    9.2060 N.am  416  ASN416     -0.1960
    173  CA       -17.8360   -3.9730    8.6070 C.3   416  ASN416      0.1819
    174  C        -17.7110   -5.4080    9.1000 C.2   416  ASN416      0.2621
    175  O        -16.8990   -6.1660    8.5540 O.2   416  ASN416     -0.2715
    176  CB       -16.5270   -3.2200    8.8830 C.3   416  ASN416      0.1195
    177  CG       -16.4850   -1.8570    8.2120 C.2   416  ASN416      0.2630
    178  OD1      -16.9080   -1.7030    7.0640 O.2   416  ASN416     -0.2716
    179  ND2      -15.9790   -0.8580    8.9300 N.am  416  ASN416     -0.0877
    180  N        -18.4890   -5.7930   10.1150 N.am  417  THR417     -0.1951
    181  CA       -18.5070   -7.1650   10.6030 C.3   417  THR417      0.1897
    182  C        -19.7910   -7.9150   10.2700 C.2   417  THR417      0.2313
    183  O        -19.8050   -9.1470   10.3590 O.2   417  THR417     -0.2863
    184  CB       -18.2900   -7.1930   12.1240 C.3   417  THR417      0.1794
    185  OG1      -19.3770   -6.5300   12.7830 O.3   417  THR417     -0.2208
    186  CG2      -16.9860   -6.4900   12.4870 C.3   417  THR417      0.0378
    187  N        -26.5270    0.3530   10.5610 N.3   422  ARG422     -0.1245
    188  CA       -26.5650    0.7200   11.9690 C.3   422  ARG422      0.1563
    189  C        -26.8730    2.2030   12.0950 C.2   422  ARG422      0.2260
    190  O        -26.2040    3.0280   11.4650 O.2   422  ARG422     -0.2867
    191  CB       -25.2340    0.4210   12.6440 C.3   422  ARG422      0.0307
    192  CG       -24.7280   -1.0010   12.4180 C.3   422  ARG422      0.0489
    193  CD       -23.6660   -1.3230   13.4510 C.3   422  ARG422      0.2205
    194  NE       -23.0400   -2.6240   13.2520 N.pl3 422  ARG422     -0.0865
    195  CZ       -23.5380   -3.7670   13.7080 C.cat 422  ARG422      0.5346
    196  NH1      -24.6830   -3.7720   14.3810 N.pl3 422  ARG422      0.1354
    197  NH2      -22.8920   -4.9040   13.4890 N.pl3 422  ARG422      0.1354
@<TRIPOS>BOND
     1   178   177    2
     2   169   168    2
     3   157   156    1
     4   157   158    2
     5   177   176    1
     6   177   179   am
     7   166   167    1
     8   175   174    2
     9   173   176    1
    10   173   174    1
    11   173   172    1
    12   168   172   am
    13   168   167    1
    14   156   155    1
    15   156   159    1
    16   174   180   am
    17   167   170    1
    18   159   160    1
    19   180   181    1
    20   170   171    1
    21   182   183    2
    22   182   181    1
    23   160   161    1
    24     1     2    1
    25   187   188    1
    26   181   184    1
    27    16    15    2
    28     9     7   ar
    29     9    11   ar
    30   165   163    1
    31   162   161    1
    32   162   163    2
    33    12    11    1
    34    24    23    2
    35     7     6   ar
    36   190   189    2
    37    11    10   ar
    38     2     3    1
    39     2     5    1
    40   163   164    1
    41    13     3   am
    42    13    14    1
    43    15    14    1
    44   188   189    1
    45   188   191    1
    46   184   186    1
    47   184   185    1
    48     3     4    2
    49    31    29    1
    50     6     5    1
    51     6     8   ar
    52    10     8   ar
    53    23    22    1
    54    21    22    1
    55   192   191    1
    56   192   193    1
    57    92    91    2
    58    14    17    1
    59    30    29    1
    60    29    28    2
    61    89    90    1
    62    22    25    1
    63    19    18   ar
    64   194   193    1
    65   194   195    2
    66    25    26    1
    67    94    93    1
    68   197   195    1
    69    91    90    1
    70    91    95   am
    71   195   196    1
    72    28    27    1
    73    90    93    1
    74    17    18    1
    75    18    20   ar
    76    26    27    1
    77    96    95    1
    78    96    97    1
    79    98    97    2
    80   108   106   ar
    81   108   107   ar
    82    97    99   am
    83    83    84    1
    84    83    82    1
    85   106   104   ar
    86    78    79    1
    87   107   105   ar
    88   101   102    2
    89   101   100    1
    90    99   100    1
    91    79    82    1
    92    79    80    1
    93    87    86    1
    94    84    85    1
    95   154   152   ar
    96    81    80    2
    97   104   105   ar
    98   104   103    1
    99   100   103    1
   100   152   151    1
   101   152   153   ar
   102    44    43    1
   103    44    45    2
   104   151   150    1
   105    86    85    2
   106    86    88    1
   107    43    42    1
   108    43    46    1
   109   117   115   ar
   110   148   147    1
   111   148   149    2
   112    46    47    1
   113    47    48    1
   114   150   147    1
   115   147   146    1
   116   115   116   ar
   117   115   114    1
   118    49    48    1
   119    49    50    1
   120   114   113    1
   121   145   144    1
   122    41    40   ar
   123    41    39   ar
   124   123   122    1
   125    40    38   ar
   126   122   119    1
   127   113   110    1
   128   144   143   ar
   129   144   142   ar
   130    39    37   ar
   131   132   130   ar
   132   132   133   ar
   133   143   141   ar
   134    35    34    2
   135    34    33    1
   136   130   129   ar
   137   142   140   ar
   138    38    37   ar
   139   133   131   ar
   140   110   111    1
   141   110   109    1
   142    37    36    1
   143   141   139   ar
   144    32    33    1
   145   118   119    1
   146   119   120    1
   147   129   131   ar
   148   129   128    1
   149   140   139   ar
   150    33    36    1
   151   139   138    1
   152   111   112    2
   153   128   125    1
   154   121   120    2
   155    66    64   ar
   156    76    75    1
   157   138   135    1
   158    75    77    1
   159    75    74    2
   160    73    74    1
   161    73    72    1
   162   127   126    2
   163   125   124    1
   164   125   126    1
   165    64    65   ar
   166    64    63    1
   167    72    71    1
   168   135   134    1
   169   135   136    1
   170    58    56   ar
   171    63    60    1
   172   136   137    2
   173    71    68    1
   174    56    55    1
   175    56    57   ar
   176    62    61    2
   177    55    52    1
   178    61    60    1
   179    61    67   am
   180    60    59    1
   181    67    68    1
   182    68    69    1
   183    52    53    1
   184    52    51    1
   185    53    54    2
   186    69    70    2
