@<TRIPOS>MOLECULE
tmp/5kl9A00.pdb
 118 118 0 0 0
SMALL
GASTEIGER

@<TRIPOS>ATOM
      1  N          8.6120    4.0160   -6.2450 N.3    18  ASP18      -0.1239
      2  CA         7.7800    4.8310   -5.3700 C.3    18  ASP18       0.1674
      3  C          6.7540    5.5930   -6.1940 C.2    18  ASP18       0.2266
      4  O          6.7100    5.4580   -7.4170 O.2    18  ASP18      -0.2867
      5  CB         8.6290    5.7990   -4.5270 C.3    18  ASP18       0.1410
      6  CG         9.5310    6.7010   -5.3670 C.2    18  ASP18       0.3668
      7  OD1        9.0900    7.2180   -6.4150 O.co2  18  ASP18      -0.2456
      8  OD2       10.6930    6.9090   -4.9620 O.co2  18  ASP18      -0.2456
      9  N          9.9350    6.6190   -9.9390 N.3    22  VAL22      -0.1231
     10  CA        11.3150    6.1720  -10.0450 C.3    22  VAL22       0.1692
     11  C         11.6450    5.2260   -8.8970 C.2    22  VAL22       0.2592
     12  O         10.8040    4.9690   -8.0330 O.2    22  VAL22      -0.2718
     13  CB        12.3000    7.3590  -10.0390 C.3    22  VAL22       0.0266
     14  CG1       11.9910    8.3140  -11.1930 C.3    22  VAL22       0.0020
     15  CG2       12.2390    8.0930   -8.7030 C.3    22  VAL22       0.0020
     16  N         12.8680    4.7070   -8.8970 N.am   23  VAL23      -0.1966
     17  CA        13.3290    3.8200   -7.8380 C.3    23  VAL23       0.1727
     18  C         13.5460    4.5720   -6.5270 C.2    23  VAL23       0.2616
     19  O         14.2370    5.5940   -6.4810 O.2    23  VAL23      -0.2715
     20  CB        14.6400    3.1040   -8.2330 C.3    23  VAL23       0.0290
     21  CG1       15.2550    2.4050   -7.0320 C.3    23  VAL23       0.0023
     22  CG2       14.3800    2.1120   -9.3560 C.3    23  VAL23       0.0023
     23  N         12.9290    4.0590   -5.4700 N.am   24  TYR24      -0.1960
     24  CA        13.1350    4.5550   -4.1160 C.3    24  TYR24       0.1771
     25  C         14.6210    4.6070   -3.7700 C.2    24  TYR24       0.2619
     26  O         15.3610    3.6690   -4.0780 O.2    24  TYR24      -0.2715
     27  CB        12.3940    3.6670   -3.1230 C.3    24  TYR24       0.0574
     28  CG        12.3500    4.2310   -1.7310 C.ar   24  TYR24      -0.0198
     29  CD1       11.7230    5.4430   -1.4770 C.ar   24  TYR24      -0.0009
     30  CD2       12.9250    3.5540   -0.6710 C.ar   24  TYR24      -0.0009
     31  CE1       11.6760    5.9610   -0.2130 C.ar   24  TYR24       0.0417
     32  CE2       12.8770    4.0650    0.6040 C.ar   24  TYR24       0.0417
     33  CZ        12.2570    5.2680    0.8290 C.ar   24  TYR24       0.1957
     34  OH        12.2190    5.7740    2.1050 O.3    24  TYR24      -0.2866
     35  N         15.0620    5.6870   -3.1270 N.am   25  HIS25      -0.1973
     36  CA        16.5000    5.8920   -2.9550 C.3    25  HIS25       0.1656
     37  C         17.1400    4.8840   -1.9960 C.2    25  HIS25       0.2291
     38  O         18.3490    4.6650   -2.0530 O.2    25  HIS25      -0.2864
     39  CB        16.8000    7.3320   -2.5060 C.3    25  HIS25       0.0771
     40  CG        16.2950    7.6760   -1.1390 C.ar   25  HIS25       0.0820
     41  ND1       14.9520    7.7780   -0.8420 N.ar   25  HIS25      -0.2267
     42  CD2       16.9550    7.9840    0.0030 C.ar   25  HIS25       0.1154
     43  CE1       14.8070    8.1130    0.4290 C.ar   25  HIS25       0.1986
     44  NE2       16.0090    8.2450    0.9630 N.ar   25  HIS25      -0.2212
     45  N         18.3570    1.5050   -3.9070 N.3    28  TYR28      -0.1241
     46  CA        19.7050    1.5410   -4.4660 C.3    28  TYR28       0.1605
     47  C         20.7050    0.9810   -3.4580 C.2    28  TYR28       0.2264
     48  O         21.6580    0.2920   -3.8270 O.2    28  TYR28      -0.2867
     49  CB        20.1010    2.9680   -4.8580 C.3    28  TYR28       0.0534
     50  CG        19.3660    3.5470   -6.0580 C.ar   28  TYR28      -0.0201
     51  CD1       19.7290    3.2050   -7.3540 C.ar   28  TYR28      -0.0009
     52  CD2       18.3280    4.4560   -5.8890 C.ar   28  TYR28      -0.0009
     53  CE1       19.0660    3.7460   -8.4540 C.ar   28  TYR28       0.0417
     54  CE2       17.6620    5.0020   -6.9770 C.ar   28  TYR28       0.0417
     55  CZ        18.0340    4.6450   -8.2540 C.ar   28  TYR28       0.1957
     56  OH        17.3740    5.1880   -9.3320 O.3    28  TYR28      -0.2866
     57  N         23.4290   10.2640   -6.1290 N.3    66  TYR66      -0.1227
     58  CA        22.4050    9.9540   -7.1280 C.3    66  TYR66       0.1736
     59  C         22.4580   10.9130   -8.3070 C.2    66  TYR66       0.2595
     60  O         22.1400   12.0930   -8.1640 O.2    66  TYR66      -0.2718
     61  CB        21.0070   10.0010   -6.5050 C.3    66  TYR66       0.0548
     62  CG        20.8370    9.1210   -5.2920 C.ar   66  TYR66      -0.0200
     63  CD1       21.2030    9.5660   -4.0280 C.ar   66  TYR66      -0.0009
     64  CD2       20.2960    7.8480   -5.4080 C.ar   66  TYR66      -0.0009
     65  CE1       21.0480    8.7600   -2.9140 C.ar   66  TYR66       0.0417
     66  CE2       20.1310    7.0380   -4.3040 C.ar   66  TYR66       0.0417
     67  CZ        20.5080    7.4980   -3.0600 C.ar   66  TYR66       0.1957
     68  OH        20.3490    6.6880   -1.9600 O.3    66  TYR66      -0.2866
     69  N         22.8430   10.4030   -9.4730 N.am   67  TYR67      -0.1962
     70  CA        22.9660   11.2380  -10.6660 C.3    67  TYR67       0.1771
     71  C         21.7330   11.1870  -11.5570 C.2    67  TYR67       0.2619
     72  O         21.2920   12.2130  -12.0730 O.2    67  TYR67      -0.2715
     73  CB        24.1870   10.8260  -11.4860 C.3    67  TYR67       0.0574
     74  CG        25.4890   10.9240  -10.7410 C.ar   67  TYR67      -0.0198
     75  CD1       25.9930   12.1560  -10.3390 C.ar   67  TYR67      -0.0009
     76  CD2       26.2270    9.7860  -10.4490 C.ar   67  TYR67      -0.0009
     77  CE1       27.1930   12.2480   -9.6570 C.ar   67  TYR67       0.0417
     78  CE2       27.4240    9.8690   -9.7750 C.ar   67  TYR67       0.0417
     79  CZ        27.9030   11.0990   -9.3810 C.ar   67  TYR67       0.1957
     80  OH        29.0980   11.1710   -8.7100 O.3    67  TYR67      -0.2866
     81  N         21.1920    9.9910  -11.7630 N.am   68  ALA68      -0.1964
     82  CA        20.0420    9.8280  -12.6460 C.3    68  ALA68       0.1713
     83  C         19.1710    8.6660  -12.1660 C.2    68  ALA68       0.2458
     84  O         19.6780    7.7010  -11.5910 O.2    68  ALA68      -0.2730
     85  CB        20.5010    9.6150  -14.0910 C.3    68  ALA68       0.0333
     86  N         17.8510    8.7650  -12.3900 N.am   69  PRO69      -0.2727
     87  CA        16.9100    7.8020  -11.8160 C.3    69  PRO69       0.1402
     88  C         16.8280    6.4970  -12.5940 C.2    69  PRO69       0.2269
     89  O         17.0640    6.4720  -13.7990 O.2    69  PRO69      -0.2865
     90  CB        15.5760    8.5440  -11.8840 C.3    69  PRO69       0.0296
     91  CG        15.7090    9.4130  -13.0820 C.3    69  PRO69       0.0237
     92  CD        17.1550    9.8310  -13.1370 C.3    69  PRO69       0.0939
     93  N         14.0380    3.2880  -13.3870 N.3    71  ARG71      -0.1245
     94  CA        12.5900    3.1330  -13.4500 C.3    71  ARG71       0.1563
     95  C         12.1860    1.6620  -13.5080 C.2    71  ARG71       0.2260
     96  O         13.0290    0.7740  -13.6660 O.2    71  ARG71      -0.2867
     97  CB        12.0220    3.8930  -14.6590 C.3    71  ARG71       0.0307
     98  CG        12.1690    5.4100  -14.5430 C.3    71  ARG71       0.0489
     99  CD        11.6610    6.1530  -15.7700 C.3    71  ARG71       0.2205
    100  NE        11.7930    7.6010  -15.6070 N.pl3  71  ARG71      -0.0865
    101  CZ        12.8850    8.2940  -15.9160 C.cat  71  ARG71       0.5346
    102  NH1       13.9490    7.6760  -16.4150 N.pl3  71  ARG71       0.1354
    103  NH2       12.9150    9.6080  -15.7300 N.pl3  71  ARG71       0.1354
    104  N         24.3350    4.5050  -18.9930 N.3   102  THR102     -0.1203
    105  CA        24.2390    5.7900  -18.3150 C.3   102  THR102      0.1994
    106  C         24.5430    5.5980  -16.8320 C.2   102  THR102      0.2617
    107  O         24.0090    4.6910  -16.2030 O.2   102  THR102     -0.2717
    108  CB        22.8470    6.4130  -18.4740 C.3   102  THR102      0.1784
    109  OG1       22.5910    6.6640  -19.8580 O.3   102  THR102     -0.2211
    110  CG2       22.7570    7.7140  -17.7050 C.3   102  THR102      0.0376
    111  N         25.4070    6.4430  -16.2800 N.am  103  LEU103     -0.1979
    112  CA        25.7770    6.3480  -14.8710 C.3   103  LEU103      0.1596
    113  C         24.6630    6.8810  -13.9710 C.2   103  LEU103      0.2287
    114  O         24.4820    8.0910  -13.8560 O.2   103  LEU103     -0.2864
    115  CB        27.0780    7.1140  -14.6150 C.3   103  LEU103      0.0297
    116  CG        27.6360    7.0990  -13.1890 C.3   103  LEU103      0.0022
    117  CD1       27.9510    5.6820  -12.7390 C.3   103  LEU103      0.0001
    118  CD2       28.8730    7.9900  -13.0830 C.3   103  LEU103      0.0001
@<TRIPOS>BOND
     1   109   108    1
     2   104   105    1
     3   108   105    1
     4   108   110    1
     5   105   106    1
     6   106   111   am
     7   106   107    2
     8   102   101    1
     9   111   112    1
    10   101   103    1
    11   101   100    2
    12    99   100    1
    13    99    98    1
    14   112   115    1
    15   112   113    1
    16    97    98    1
    17    97    94    1
    18   115   116    1
    19    85    82    1
    20   113   114    2
    21    89    88    2
    22    96    95    2
    23    95    94    1
    24    94    93    1
    25   116   118    1
    26   116   117    1
    27    92    91    1
    28    92    86    1
    29    91    90    1
    30    82    83    1
    31    82    81    1
    32    88    87    1
    33    86    83   am
    34    86    87    1
    35    83    84    2
    36    72    71    2
    37    90    87    1
    38    81    71   am
    39    71    70    1
    40    73    74    1
    41    73    70    1
    42    14    13    1
    43    74    76   ar
    44    74    75   ar
    45    70    69    1
    46    76    78   ar
    47    75    77   ar
    48    10    13    1
    49    10     9    1
    50    10    11    1
    51    13    15    1
    52    78    79   ar
    53    77    79   ar
    54    69    59   am
    55    79    80    1
    56    22    20    1
    57    56    55    1
    58    11    16   am
    59    11    12    2
    60    16    17    1
    61    53    55   ar
    62    53    51   ar
    63    59    60    2
    64    59    58    1
    65    55    54   ar
    66    20    17    1
    67    20    21    1
    68    17    18    1
    69     4     3    2
    70    51    50   ar
    71    58    61    1
    72    58    57    1
    73    54    52   ar
    74    18    19    2
    75    18    23   am
    76    61    62    1
    77     7     6   ar
    78     1     2    1
    79     3     2    1
    80    50    52   ar
    81    50    49    1
    82    23    24    1
    83    64    62   ar
    84    64    66   ar
    85     2     5    1
    86     6     8   ar
    87     6     5    1
    88    62    63   ar
    89    49    46    1
    90    46    45    1
    91    46    47    1
    92    66    67   ar
    93    24    25    1
    94    24    27    1
    95    26    25    2
    96    63    65   ar
    97    48    47    2
    98    25    35   am
    99    35    36    1
   100    27    28    1
   101    67    65   ar
   102    67    68    1
   103    36    39    1
   104    36    37    1
   105    39    40    1
   106    38    37    2
   107    28    29   ar
   108    28    30   ar
   109    29    31   ar
   110    40    41   ar
   111    40    42   ar
   112    41    43   ar
   113    30    32   ar
   114    31    33   ar
   115    42    44   ar
   116    43    44   ar
   117    32    33   ar
   118    33    34    1
