@<TRIPOS>MOLECULE
tmp/5klbC03.pdb
 102 95 0 0 0
SMALL
GASTEIGER

@<TRIPOS>ATOM
      1  N         40.9980   27.1420  228.5020 N.3   125  SER125     -0.1202
      2  CA        40.9560   28.0150  229.6750 C.3   125  SER125      0.2020
      3  C         41.9650   29.1650  229.6330 C.2   125  SER125      0.2618
      4  O         41.8090   30.1460  230.3520 O.2   125  SER125     -0.2717
      5  CB        41.1590   27.1930  230.9290 C.3   125  SER125      0.2103
      6  OG        42.5150   26.8760  231.0840 O.3   125  SER125     -0.2182
      7  N         42.9770   29.0700  228.7710 N.am  126  VAL126     -0.1979
      8  CA        43.9000   30.1900  228.5630 C.3   126  VAL126      0.1595
      9  C         43.1960   31.3510  227.8560 C.2   126  VAL126      0.2287
     10  O         43.5640   32.5110  228.0070 O.2   126  VAL126     -0.2864
     11  CB        45.1230   29.8020  227.6910 C.3   126  VAL126      0.0276
     12  CG1       46.1850   30.8680  227.7790 C.3   126  VAL126      0.0022
     13  CG2       45.6870   28.4290  228.0620 C.3   126  VAL126      0.0022
     14  N         40.9680   35.1890  229.2130 N.3   129  GLY129     -0.1210
     15  CA        41.7090   36.3670  229.6090 C.3   129  GLY129      0.1956
     16  C         42.3230   37.0770  228.4220 C.2   129  GLY129      0.2611
     17  O         42.5360   38.2970  228.4490 O.2   129  GLY129     -0.2717
     18  N         42.6040   36.3200  227.3620 N.am  130  MET130     -0.1979
     19  CA        43.3120   36.8790  226.2180 C.3   130  MET130      0.1605
     20  C         42.4230   37.7250  225.3340 C.2   130  MET130      0.2287
     21  O         42.9270   38.5870  224.6170 O.2   130  MET130     -0.2864
     22  CB        43.9480   35.7750  225.3880 C.3   130  MET130      0.0413
     23  CG        45.1030   35.0790  226.0540 C.3   130  MET130      0.0598
     24  SD        45.9080   33.9160  224.9340 S.3   130  MET130     -0.1393
     25  CE        44.4700   33.1900  224.1710 C.3   130  MET130      0.0692
     26  N         41.1160   40.3450  225.2580 N.3   132  SER132     -0.1202
     27  CA        41.3210   41.7810  225.1540 C.3   132  SER132      0.2020
     28  C         42.5250   42.0320  224.2480 C.2   132  SER132      0.2618
     29  O         42.4790   42.8570  223.3360 O.2   132  SER132     -0.2717
     30  CB        41.5380   42.4090  226.5340 C.3   132  SER132      0.2103
     31  OG        42.5450   41.6730  227.2200 O.3   132  SER132     -0.2182
     32  N         43.6050   41.3160  224.5210 N.am  133  VAL133     -0.1979
     33  CA        44.7600   41.3530  223.6670 C.3   133  VAL133      0.1595
     34  C         44.4020   40.8200  222.2590 C.2   133  VAL133      0.2287
     35  O         44.9170   41.3250  221.2630 O.2   133  VAL133     -0.2864
     36  CB        45.9200   40.5570  224.2780 C.3   133  VAL133      0.0276
     37  CG1       47.1050   40.5200  223.3290 C.3   133  VAL133      0.0022
     38  CG2       46.3340   41.1860  225.5780 C.3   133  VAL133      0.0022
     39  N         55.2710   39.2610  224.8790 N.3   211  ASN211     -0.1225
     40  CA        54.7890   39.7360  226.1790 C.3   211  ASN211      0.1785
     41  C         53.4930   39.0830  226.6290 C.2   211  ASN211      0.2597
     42  O         53.2480   38.9700  227.7900 O.2   211  ASN211     -0.2718
     43  CB        54.6100   41.2430  226.1520 C.3   211  ASN211      0.1169
     44  CG        55.9240   41.9580  226.0170 C.2   211  ASN211      0.2627
     45  OD1       56.1130   42.7790  225.1040 O.2   211  ASN211     -0.2716
     46  ND2       56.8640   41.6470  226.9180 N.am  211  ASN211     -0.0877
     47  N         52.6690   38.6380  225.7070 N.am  212  LEU212     -0.1980
     48  CA        51.4720   37.9290  226.0730 C.3   212  LEU212      0.1596
     49  C         51.8290   36.6010  226.7220 C.2   212  LEU212      0.2287
     50  O         51.1740   36.1680  227.6510 O.2   212  LEU212     -0.2864
     51  CB        50.6010   37.7120  224.8340 C.3   212  LEU212      0.0297
     52  CG        49.2710   36.9900  225.0190 C.3   212  LEU212      0.0022
     53  CD1       48.4680   37.6010  226.1650 C.3   212  LEU212      0.0001
     54  CD2       48.4840   37.0580  223.7240 C.3   212  LEU212      0.0001
     55  N         54.8040   36.0190  228.1700 N.3   214  VAL214     -0.1231
     56  CA        55.4770   36.4350  229.3820 C.3   214  VAL214      0.1692
     57  C         54.4720   36.7050  230.5170 C.2   214  VAL214      0.2592
     58  O         54.6180   36.1720  231.6200 O.2   214  VAL214     -0.2718
     59  CB        56.3290   37.6850  229.1370 C.3   214  VAL214      0.0266
     60  CG1       56.8040   38.2710  230.4640 C.3   214  VAL214      0.0020
     61  CG2       57.5240   37.3650  228.1890 C.3   214  VAL214      0.0020
     62  N         53.4490   37.5110  230.2330 N.am  215  ALA215     -0.1966
     63  CA        52.4660   37.9080  231.2370 C.3   215  ALA215      0.1728
     64  C         51.5890   36.7350  231.6800 C.2   215  ALA215      0.2616
     65  O         51.1330   36.7140  232.8390 O.2   215  ALA215     -0.2715
     66  CB        51.6100   39.0290  230.7250 C.3   215  ALA215      0.0334
     67  N         51.3560   35.7570  230.7950 N.am  216  ILE216     -0.1977
     68  CA        50.6340   34.5590  231.2360 C.3   216  ILE216      0.1596
     69  C         51.4280   33.8130  232.3240 C.2   216  ILE216      0.2287
     70  O         50.9410   33.6210  233.4510 O.2   216  ILE216     -0.2864
     71  CB        50.3170   33.6210  230.0820 C.3   216  ILE216      0.0276
     72  CG1       49.1880   34.2410  229.2530 C.3   216  ILE216      0.0022
     73  CG2       49.9040   32.2260  230.5950 C.3   216  ILE216      0.0022
     74  CD1       48.9700   33.6010  227.8900 C.3   216  ILE216      0.0001
     75  N         53.9860   34.7930  234.1960 N.3   218  VAL218     -0.1231
     76  CA        54.2580   35.5680  235.4010 C.3   218  VAL218      0.1692
     77  C         53.0180   35.7700  236.2370 C.2   218  VAL218      0.2592
     78  O         53.0660   35.5790  237.4570 O.2   218  VAL218     -0.2718
     79  CB        54.8820   36.9680  235.0870 C.3   218  VAL218      0.0266
     80  CG1       55.0090   37.8210  236.3390 C.3   218  VAL218      0.0020
     81  CG2       56.2410   36.8340  234.4500 C.3   218  VAL218      0.0020
     82  N         51.9000   36.1410  235.6200 N.am  219  ASP219     -0.1960
     83  CA        50.6950   36.3360  236.4290 C.3   219  ASP219      0.1840
     84  C         50.1540   35.0130  237.0010 C.2   219  ASP219      0.2621
     85  O         49.4740   35.0100  238.0170 O.2   219  ASP219     -0.2715
     86  CB        49.5980   37.0350  235.6280 C.3   219  ASP219      0.1450
     87  CG        49.8940   38.4920  235.4050 C.2   219  ASP219      0.3671
     88  OD1       50.9180   38.9580  235.9490 O.co2 219  ASP219     -0.2456
     89  OD2       49.1140   39.1700  234.6960 O.co2 219  ASP219     -0.2456
     90  N         50.4900   33.8930  236.3690 N.am  220  ALA220     -0.1977
     91  CA        50.1230   32.5960  236.9010 C.3   220  ALA220      0.1597
     92  C         50.9040   32.3520  238.1900 C.2   220  ALA220      0.2287
     93  O         50.3480   31.8740  239.1860 O.2   220  ALA220     -0.2864
     94  CB        50.3880   31.4720  235.8660 C.3   220  ALA220      0.0319
     95  N         49.4640   34.3520  241.1300 N.3   223  ILE223     -0.1245
     96  CA        48.3280   33.6110  241.6670 C.3   223  ILE223      0.1561
     97  C         48.8070   32.3820  242.4500 C.2   223  ILE223      0.2260
     98  O         48.2920   32.1030  243.5270 O.2   223  ILE223     -0.2867
     99  CB        47.3540   33.1800  240.5300 C.3   223  ILE223      0.0252
    100  CG1       46.7140   34.4080  239.8760 C.3   223  ILE223      0.0019
    101  CG2       46.2790   32.2230  241.0310 C.3   223  ILE223      0.0019
    102  CD1       45.8280   34.0830  238.6900 C.3   223  ILE223      0.0001
@<TRIPOS>BOND
     1    35    34    2
     2    34    33    1
     3    37    36    1
     4    29    28    2
     5    33    36    1
     6    33    32    1
     7    54    52    1
     8    25    24    1
     9    28    32   am
    10    28    27    1
    11    36    38    1
    12    21    20    2
    13    51    52    1
    14    51    48    1
    15    39    40    1
    16    24    23    1
    17    52    53    1
    18    45    44    2
    19    27    26    1
    20    27    30    1
    21    20    19    1
    22    22    23    1
    23    22    19    1
    24    47    48    1
    25    47    41   am
    26    44    43    1
    27    44    46   am
    28    48    49    1
    29    43    40    1
    30    40    41    1
    31    19    18    1
    32    30    31    1
    33    41    42    2
    34    49    50    2
    35    18    16   am
    36    11    12    1
    37    11    13    1
    38    11     8    1
    39     9    10    2
    40     9     8    1
    41    74    72    1
    42    55    56    1
    43    61    59    1
    44    16    17    2
    45    16    15    1
    46     1     2    1
    47     8     7    1
    48     7     3   am
    49    59    56    1
    50    59    60    1
    51    14    15    1
    52    72    71    1
    53    56    57    1
    54     3     2    1
    55     3     4    2
    56     2     5    1
    57    71    73    1
    58    71    68    1
    59    62    57   am
    60    62    63    1
    61    57    58    2
    62    66    63    1
    63    67    68    1
    64    67    64   am
    65     5     6    1
    66    68    69    1
    67    63    64    1
    68    64    65    2
    69    69    70    2
    70    75    76    1
    71    81    79    1
    72    89    87   ar
    73    79    76    1
    74    79    80    1
    75    76    77    1
    76    87    86    1
    77    87    88   ar
    78    82    77   am
    79    82    83    1
    80    86    83    1
    81    94    91    1
    82    77    78    2
    83    90    91    1
    84    90    84   am
    85    83    84    1
    86    91    92    1
    87    84    85    2
    88    92    93    2
    89   102   100    1
    90   100    99    1
    91    99   101    1
    92    99    96    1
    93    95    96    1
    94    96    97    1
    95    97    98    2
