@<TRIPOS>MOLECULE
tmp/5klgC02.pdb
 75 70 0 0 0
SMALL
GASTEIGER

@<TRIPOS>ATOM
      1  N        180.1230   38.6850   18.3140 N.3   174  MET174     -0.1230
      2  CA       180.1610   38.4680   19.7710 C.3   174  MET174      0.1702
      3  C        180.8650   37.1740   20.1220 C.2   174  MET174      0.2593
      4  O        181.6820   37.1260   21.0440 O.2   174  MET174     -0.2718
      5  CB       178.7620   38.4440   20.3720 C.3   174  MET174      0.0401
      6  CG       178.7910   38.1170   21.8570 C.3   174  MET174      0.0596
      7  SD       177.2090   38.1230   22.7410 S.3   174  MET174     -0.1393
      8  CE       177.5530   36.9470   24.0630 C.3   174  MET174      0.0692
      9  N        180.5500   36.1650   19.3490 N.am  175  THR175     -0.1939
     10  CA       181.1910   34.9450   19.5640 C.3   175  THR175      0.2028
     11  C        182.5810   35.0670   19.0340 C.2   175  THR175      0.2642
     12  O        183.3230   34.0750   19.0960 O.2   175  THR175     -0.2714
     13  CB       180.5400   33.8670   18.7450 C.3   175  THR175      0.1808
     14  OG1      180.9030   34.1020   17.3820 O.3   175  THR175     -0.2208
     15  CG2      179.0070   33.8940   18.8840 C.3   175  THR175      0.0379
     16  N        182.9470   36.2490   18.5380 N.am  176  LEU176     -0.1977
     17  CA       184.2360   36.4170   17.9180 C.3   176  LEU176      0.1596
     18  C        184.5260   35.4390   16.7580 C.2   176  LEU176      0.2287
     19  O        185.7050   35.0500   16.5720 O.2   176  LEU176     -0.2864
     20  CB       185.3410   36.2400   18.9330 C.3   176  LEU176      0.0297
     21  CG       185.4800   37.1960   20.0750 C.3   176  LEU176      0.0022
     22  CD1      186.6220   36.7070   20.9780 C.3   176  LEU176      0.0001
     23  CD2      185.7910   38.6210   19.6070 C.3   176  LEU176      0.0001
     24  N        181.0270   43.8670   24.9500 N.3   205  VAL205     -0.1231
     25  CA       180.4840   42.5520   24.8670 C.3   205  VAL205      0.1692
     26  C        181.3820   41.5160   25.5730 C.2   205  VAL205      0.2592
     27  O        180.8780   40.5480   26.1130 O.2   205  VAL205     -0.2718
     28  CB       180.2650   42.2010   23.3570 C.3   205  VAL205      0.0266
     29  CG1      180.0430   40.7220   23.1610 C.3   205  VAL205      0.0020
     30  CG2      179.1010   42.9910   22.7690 C.3   205  VAL205      0.0020
     31  N        182.6880   41.6940   25.5910 N.am  206  THR206     -0.1953
     32  CA       183.5290   40.6980   26.2820 C.3   206  THR206      0.1897
     33  C        183.6360   40.9650   27.7730 C.2   206  THR206      0.2313
     34  O        183.5880   40.0290   28.5570 O.2   206  THR206     -0.2863
     35  CB       184.9510   40.5490   25.7010 C.3   206  THR206      0.1794
     36  OG1      185.5550   41.8320   25.4930 O.3   206  THR206     -0.2208
     37  CG2      184.9090   39.8280   24.3830 C.3   206  THR206      0.0378
     38  N        180.5600   39.8980   29.7080 N.3   209  MET209     -0.1230
     39  CA       180.5680   38.4710   29.7560 C.3   209  MET209      0.1702
     40  C        181.3820   37.9510   30.9500 C.2   209  MET209      0.2592
     41  O        180.9810   37.0130   31.6310 O.2   209  MET209     -0.2718
     42  CB       181.0750   37.9230   28.4170 C.3   209  MET209      0.0401
     43  CG       179.9960   37.8530   27.3350 C.3   209  MET209      0.0596
     44  SD       178.6860   36.6600   27.6920 S.3   209  MET209     -0.1393
     45  CE       179.6530   35.2060   28.1030 C.3   209  MET209      0.0692
     46  N        182.5300   38.5680   31.1820 N.am  210  ILE210     -0.1980
     47  CA       183.3950   38.1720   32.2700 C.3   210  ILE210      0.1595
     48  C        182.6410   38.2670   33.5640 C.2   210  ILE210      0.2287
     49  O        182.5630   37.3450   34.3590 O.2   210  ILE210     -0.2864
     50  CB       184.5320   39.1820   32.4350 C.3   210  ILE210      0.0276
     51  CG1      185.2690   39.4030   31.1300 C.3   210  ILE210      0.0022
     52  CG2      185.4190   38.7550   33.5880 C.3   210  ILE210      0.0022
     53  CD1      186.2200   40.5870   31.1370 C.3   210  ILE210      0.0001
     54  N        179.9410   35.9030   34.6300 N.3   213  VAL213     -0.1231
     55  CA       180.5290   34.7750   35.3720 C.3   213  VAL213      0.1692
     56  C        181.0660   35.0870   36.7830 C.2   213  VAL213      0.2591
     57  O        180.8210   34.3460   37.7160 O.2   213  VAL213     -0.2718
     58  CB       181.6610   34.1140   34.5590 C.3   213  VAL213      0.0266
     59  CG1      182.2030   32.8990   35.3010 C.3   213  VAL213      0.0020
     60  CG2      181.1770   33.7170   33.1550 C.3   213  VAL213      0.0020
     61  N        181.7830   36.2010   36.9160 N.am  214  VAL214     -0.1980
     62  CA       182.3260   36.6710   38.2080 C.3   214  VAL214      0.1595
     63  C        181.1710   36.7680   39.1780 C.2   214  VAL214      0.2287
     64  O        181.2110   36.2140   40.2510 O.2   214  VAL214     -0.2864
     65  CB       183.0140   38.0770   38.1220 C.3   214  VAL214      0.0276
     66  CG1      183.2260   38.6990   39.5070 C.3   214  VAL214      0.0022
     67  CG2      184.3140   38.0020   37.3250 C.3   214  VAL214      0.0022
     68  N        180.0360   33.2560   39.9470 N.3   217  ILE217     -0.1245
     69  CA       180.9930   32.6930   40.8740 C.3   217  ILE217      0.1561
     70  C        180.8440   33.3770   42.2420 C.2   217  ILE217      0.2260
     71  O        180.6420   32.7030   43.2370 O.2   217  ILE217     -0.2867
     72  CB       182.4340   32.8240   40.3310 C.3   217  ILE217      0.0252
     73  CG1      182.5600   32.0500   39.0110 C.3   217  ILE217      0.0019
     74  CG2      183.4330   32.2900   41.3560 C.3   217  ILE217      0.0019
     75  CD1      183.9140   32.1130   38.3520 C.3   217  ILE217      0.0001
@<TRIPOS>BOND
     1    19    18    2
     2    18    17    1
     3    14    13    1
     4    17    16    1
     5    17    20    1
     6     1     2    1
     7    16    11   am
     8    13    15    1
     9    13    10    1
    10    20    21    1
    11    11    12    2
    12    11    10    1
    13     9    10    1
    14     9     3   am
    15    23    21    1
    16     2     3    1
    17     2     5    1
    18    21    22    1
    19     3     4    2
    20     5     6    1
    21     6     7    1
    22     7     8    1
    23    30    28    1
    24    29    28    1
    25    28    25    1
    26    37    35    1
    27    25    24    1
    28    25    26    1
    29    36    35    1
    30    26    31   am
    31    26    27    2
    32    31    32    1
    33    35    32    1
    34    32    33    1
    35    43    44    1
    36    43    42    1
    37    44    45    1
    38    33    34    2
    39    42    39    1
    40    38    39    1
    41    39    40    1
    42    40    46   am
    43    40    41    2
    44    51    53    1
    45    51    50    1
    46    46    47    1
    47    47    50    1
    48    47    48    1
    49    50    52    1
    50    60    58    1
    51    48    49    2
    52    58    59    1
    53    58    55    1
    54    54    55    1
    55    55    56    1
    56    56    61   am
    57    56    57    2
    58    61    62    1
    59    67    65    1
    60    65    62    1
    61    65    66    1
    62    62    63    1
    63    75    73    1
    64    73    72    1
    65    63    64    2
    66    68    69    1
    67    72    69    1
    68    72    74    1
    69    69    70    1
    70    70    71    2
