@<TRIPOS>MOLECULE
tmp/5kliG03.pdb
 192 182 0 0 0
SMALL
GASTEIGER

@<TRIPOS>ATOM
      1  N        -30.5250   29.7340  -38.8880 N.3    30  THR30      -0.1203
      2  CA       -29.8790   29.4370  -37.6190 C.3    30  THR30       0.1994
      3  C        -30.7810   29.8100  -36.4510 C.2    30  THR30       0.2617
      4  O        -30.9820   29.0090  -35.5330 O.2    30  THR30      -0.2717
      5  CB       -28.5560   30.2100  -37.5350 C.3    30  THR30       0.1784
      6  OG1      -27.6140   29.6340  -38.4500 O.3    30  THR30      -0.2211
      7  CG2      -27.9540   30.2310  -36.1030 C.3    30  THR30       0.0376
      8  N        -31.3120   31.0370  -36.4610 N.am   31  ILE31      -0.1979
      9  CA       -32.0150   31.5470  -35.2870 C.3    31  ILE31       0.1595
     10  C        -33.4560   31.0610  -35.2160 C.2    31  ILE31       0.2287
     11  O        -34.1300   31.3470  -34.2210 O.2    31  ILE31      -0.2864
     12  CB       -31.8840   33.0840  -35.2380 C.3    31  ILE31       0.0276
     13  CG1      -31.6890   33.5350  -33.7880 C.3    31  ILE31       0.0022
     14  CG2      -33.1270   33.8290  -35.7810 C.3    31  ILE31       0.0022
     15  CD1      -30.2720   33.1990  -33.2330 C.3    31  ILE31       0.0001
     16  N        -34.3670   27.7600  -35.9800 N.3    33  ILE33      -0.1245
     17  CA       -34.3390   26.2970  -35.9320 C.3    33  ILE33       0.1561
     18  C        -35.4340   25.8100  -34.9780 C.2    33  ILE33       0.2260
     19  O        -35.5660   26.3530  -33.8640 O.2    33  ILE33      -0.2867
     20  CB       -32.9400   25.8030  -35.4890 C.3    33  ILE33       0.0252
     21  CG1      -32.8550   24.2660  -35.4210 C.3    33  ILE33       0.0019
     22  CG2      -32.5320   26.3920  -34.1220 C.3    33  ILE33       0.0019
     23  CD1      -32.6540   23.6410  -36.7880 C.3    33  ILE33       0.0001
     24  N        -36.6580   23.9880  -32.0560 N.3    35  THR35      -0.1218
     25  CA       -35.9570   23.4570  -30.8930 C.3    35  THR35       0.1862
     26  C        -36.9730   22.7460  -30.0030 C.2    35  THR35       0.2287
     27  O        -38.1060   23.2280  -29.9040 O.2    35  THR35      -0.2866
     28  CB       -35.2790   24.5920  -30.1040 C.3    35  THR35       0.1770
     29  OG1      -34.5130   25.4060  -30.9950 O.3    35  THR35      -0.2211
     30  CG2      -34.3480   24.0590  -29.0140 C.3    35  THR35       0.0375
     31  N        -37.3040   21.8550  -23.0770 N.3    39  LEU39      -0.1245
     32  CA       -35.9920   22.1130  -22.4860 C.3    39  LEU39       0.1561
     33  C        -36.1310   22.8000  -21.1360 C.2    39  LEU39       0.2260
     34  O        -36.9580   23.6960  -20.9610 O.2    39  LEU39      -0.2867
     35  CB       -35.1370   22.9690  -23.4190 C.3    39  LEU39       0.0270
     36  CG       -34.8530   22.4300  -24.8220 C.3    39  LEU39       0.0019
     37  CD1      -33.8890   23.3210  -25.5730 C.3    39  LEU39       0.0001
     38  CD2      -34.2750   21.0240  -24.7830 C.3    39  LEU39       0.0001
     39  N        -30.3160   23.7980  -20.0940 N.3    43  TRP43      -0.1227
     40  CA       -29.9110   24.0190  -21.4720 C.3    43  TRP43       0.1737
     41  C        -29.4060   25.4510  -21.6890 C.2    43  TRP43       0.2595
     42  O        -29.1120   25.8240  -22.8260 O.2    43  TRP43      -0.2718
     43  CB       -31.0760   23.6960  -22.4210 C.3    43  TRP43       0.0564
     44  CG       -30.9440   22.3190  -23.0500 C.ar   43  TRP43       0.0003
     45  CD1      -30.5710   22.0160  -24.3350 C.ar   43  TRP43       0.0946
     46  CD2      -31.2050   21.0660  -22.4050 C.ar   43  TRP43       0.0152
     47  NE1      -30.5740   20.6520  -24.5170 N.ar   43  TRP43      -0.2442
     48  CE2      -30.9570   20.0480  -23.3460 C.ar   43  TRP43       0.0810
     49  CE3      -31.6180   20.7070  -21.1170 C.ar   43  TRP43       0.0012
     50  CZ2      -31.1070   18.6990  -23.0400 C.ar   43  TRP43       0.0191
     51  CZ3      -31.7710   19.3640  -20.8160 C.ar   43  TRP43       0.0001
     52  CH2      -31.5160   18.3790  -21.7710 C.ar   43  TRP43       0.0015
     53  N        -29.2810   26.2500  -20.6190 N.am   44  ILE44      -0.1980
     54  CA       -28.8470   27.6460  -20.7360 C.3    44  ILE44       0.1595
     55  C        -27.3290   27.8070  -20.7290 C.2    44  ILE44       0.2287
     56  O        -26.8270   28.8720  -21.1110 O.2    44  ILE44      -0.2864
     57  CB       -29.4380   28.5430  -19.6250 C.3    44  ILE44       0.0276
     58  CG1      -28.8150   28.2340  -18.2460 C.3    44  ILE44       0.0022
     59  CG2      -30.9870   28.4250  -19.6320 C.3    44  ILE44       0.0022
     60  CD1      -29.3200   29.0980  -17.1200 C.3    44  ILE44       0.0001
     61  N        -24.9410   26.8450  -22.4240 N.3    46  GLY46      -0.1210
     62  CA       -24.3020   27.1310  -23.6980 C.3    46  GLY46       0.1956
     63  C        -24.1960   28.6230  -23.9770 C.2    46  GLY46       0.2611
     64  O        -23.1880   29.0900  -24.5160 O.2    46  GLY46      -0.2717
     65  N        -25.2670   29.3780  -23.6940 N.am   47  VAL47      -0.1979
     66  CA       -25.2370   30.8270  -23.9010 C.3    47  VAL47       0.1595
     67  C        -24.3080   31.4820  -22.8930 C.2    47  VAL47       0.2287
     68  O        -23.6170   32.4610  -23.2120 O.2    47  VAL47      -0.2864
     69  CB       -26.6570   31.4180  -23.8060 C.3    47  VAL47       0.0276
     70  CG1      -26.6540   32.9610  -23.6880 C.3    47  VAL47       0.0022
     71  CG2      -27.4270   31.0770  -25.0380 C.3    47  VAL47       0.0022
     72  N        -21.0770   31.0280  -24.1850 N.3    50  ALA50      -0.1245
     73  CA       -20.9160   31.9280  -25.3150 C.3    50  ALA50       0.1562
     74  C        -20.6200   33.3440  -24.8390 C.2    50  ALA50       0.2260
     75  O        -19.6810   33.9880  -25.3190 O.2    50  ALA50      -0.2867
     76  CB       -22.1860   31.9010  -26.1600 C.3    50  ALA50       0.0290
     77  N        -17.0300   33.6140  -23.4420 N.3    53  LEU53      -0.1231
     78  CA       -15.9800   33.6640  -24.4460 C.3    53  LEU53       0.1693
     79  C        -15.8250   35.0690  -25.0150 C.2    53  LEU53       0.2591
     80  O        -14.7000   35.5500  -25.2090 O.2    53  LEU53      -0.2718
     81  CB       -16.2790   32.6530  -25.5570 C.3    53  LEU53       0.0284
     82  CG       -15.2670   32.5840  -26.7090 C.3    53  LEU53       0.0019
     83  CD1      -13.8660   32.3630  -26.2140 C.3    53  LEU53       0.0001
     84  CD2      -15.6230   31.4830  -27.7000 C.3    53  LEU53       0.0001
     85  N        -16.9390   35.7590  -25.2550 N.am   54  VAL54      -0.1980
     86  CA       -16.8610   37.1300  -25.7440 C.3    54  VAL54       0.1595
     87  C        -16.3350   38.0660  -24.6650 C.2    54  VAL54       0.2287
     88  O        -15.4540   38.8940  -24.9230 O.2    54  VAL54      -0.2864
     89  CB       -18.2420   37.5820  -26.2550 C.3    54  VAL54       0.0276
     90  CG1      -18.2360   39.0620  -26.6820 C.3    54  VAL54       0.0022
     91  CG2      -18.6690   36.7090  -27.4100 C.3    54  VAL54       0.0022
     92  N        -12.9960   30.0230  -30.4360 N.3   204  ALA204     -0.1245
     93  CA       -14.1270   30.5990  -31.1450 C.3   204  ALA204      0.1562
     94  C        -14.4060   29.8010  -32.4080 C.2   204  ALA204      0.2260
     95  O        -15.5660   29.5320  -32.7400 O.2   204  ALA204     -0.2867
     96  CB       -13.8630   32.0650  -31.4730 C.3   204  ALA204      0.0290
     97  N        -16.0030   26.5740  -31.3970 N.3   207  VAL207     -0.1231
     98  CA       -17.4040   26.7680  -31.0380 C.3   207  VAL207      0.1692
     99  C        -18.2590   26.8530  -32.2930 C.2   207  VAL207      0.2591
    100  O        -19.4150   26.4210  -32.2950 O.2   207  VAL207     -0.2718
    101  CB       -17.5730   28.0050  -30.1340 C.3   207  VAL207      0.0266
    102  CG1      -19.0490   28.4780  -30.0660 C.3   207  VAL207      0.0020
    103  CG2      -17.0670   27.6800  -28.7240 C.3   207  VAL207      0.0020
    104  N        -17.7300   27.4230  -33.3680 N.am  208  ALA208     -0.1980
    105  CA       -18.5080   27.4840  -34.5990 C.3   208  ALA208      0.1597
    106  C        -18.8270   26.0840  -35.1150 C.2   208  ALA208      0.2287
    107  O        -19.9630   25.8080  -35.5160 O.2   208  ALA208     -0.2864
    108  CB       -17.7620   28.2990  -35.6600 C.3   208  ALA208      0.0319
    109  N        -21.4520   24.4260  -32.8950 N.3   211  ILE211     -0.1245
    110  CA       -22.8080   24.8670  -33.2140 C.3   211  ILE211      0.1561
    111  C        -23.3040   24.2180  -34.4870 C.2   211  ILE211      0.2260
    112  O        -24.4660   23.8080  -34.5860 O.2   211  ILE211     -0.2867
    113  CB       -22.7860   26.3920  -33.3860 C.3   211  ILE211      0.0252
    114  CG1      -22.4670   27.0490  -32.0560 C.3   211  ILE211      0.0019
    115  CG2      -24.1560   26.9180  -33.9540 C.3   211  ILE211      0.0019
    116  CD1      -22.1170   28.4630  -32.2360 C.3   211  ILE211      0.0001
    117  N        -24.4350   20.5130  -33.5980 N.3   214  PHE214     -0.1227
    118  CA       -25.7410   20.2250  -33.0110 C.3   214  PHE214      0.1736
    119  C        -26.8830   20.8500  -33.7950 C.2   214  PHE214      0.2595
    120  O        -28.0460   20.5560  -33.4990 O.2   214  PHE214     -0.2718
    121  CB       -25.8420   20.6530  -31.5320 C.3   214  PHE214      0.0547
    122  CG       -25.7630   22.1490  -31.2500 C.ar  214  PHE214     -0.0202
    123  CD1      -26.8070   23.0130  -31.5520 C.ar  214  PHE214     -0.0042
    124  CD2      -24.6880   22.6620  -30.5480 C.ar  214  PHE214     -0.0042
    125  CE1      -26.7370   24.3540  -31.2470 C.ar  214  PHE214     -0.0003
    126  CE2      -24.6270   24.0000  -30.2220 C.ar  214  PHE214     -0.0003
    127  CZ       -25.6480   24.8460  -30.5810 C.ar  214  PHE214     -0.0000
    128  N        -26.5830   21.6990  -34.7770 N.am  215  HIS215     -0.1975
    129  CA       -27.6080   22.1500  -35.7030 C.3   215  HIS215      0.1656
    130  C        -27.9160   21.0750  -36.7340 C.2   215  HIS215      0.2291
    131  O        -29.0650   20.9480  -37.1660 O.2   215  HIS215     -0.2864
    132  CB       -27.1350   23.4280  -36.4040 C.3   215  HIS215      0.0771
    133  CG       -27.6120   24.6910  -35.7600 C.ar  215  HIS215      0.0820
    134  ND1      -28.7120   25.3890  -36.2060 N.ar  215  HIS215     -0.2267
    135  CD2      -27.1270   25.3890  -34.7050 C.ar  215  HIS215      0.1154
    136  CE1      -28.8850   26.4620  -35.4530 C.ar  215  HIS215      0.1986
    137  NE2      -27.9370   26.4850  -34.5350 N.ar  215  HIS215     -0.2212
    138  N        -31.0240   19.6160  -31.3440 N.3   219  ASN219     -0.1240
    139  CA       -30.7400   19.6010  -29.9200 C.3   219  ASN219      0.1653
    140  C        -31.3490   18.3850  -29.2430 C.2   219  ASN219      0.2266
    141  O        -32.4580   17.9590  -29.5690 O.2   219  ASN219     -0.2867
    142  CB       -31.2700   20.8700  -29.2580 C.3   219  ASN219      0.1155
    143  CG       -30.7420   22.1310  -29.9060 C.2   219  ASN219      0.2627
    144  OD1      -31.4110   22.7280  -30.7480 O.2   219  ASN219     -0.2716
    145  ND2      -29.5310   22.5390  -29.5250 N.am  219  ASN219     -0.0877
    146  N        -36.8070   28.6470  -32.4050 N.3   242  PHE242     -0.1241
    147  CA       -35.7620   29.1420  -31.5120 C.3   242  PHE242      0.1605
    148  C        -35.9970   30.6200  -31.1900 C.2   242  PHE242      0.2264
    149  O        -36.1080   31.0020  -30.0200 O.2   242  PHE242     -0.2867
    150  CB       -34.3770   28.9050  -32.1280 C.3   242  PHE242      0.0534
    151  CG       -33.2410   29.3540  -31.2530 C.ar  242  PHE242     -0.0203
    152  CD1      -33.1860   28.9430  -29.9330 C.ar  242  PHE242     -0.0042
    153  CD2      -32.2760   30.2230  -31.7120 C.ar  242  PHE242     -0.0042
    154  CE1      -32.1790   29.3390  -29.1020 C.ar  242  PHE242     -0.0003
    155  CE2      -31.2560   30.6390  -30.8730 C.ar  242  PHE242     -0.0003
    156  CZ       -31.2140   30.1950  -29.5630 C.ar  242  PHE242     -0.0000
    157  N        -36.8390   30.8650  -27.3070 N.3   246  PHE246     -0.1227
    158  CA       -35.6340   30.5340  -26.5530 C.3   246  PHE246      0.1736
    159  C        -34.6000   31.6500  -26.5560 C.2   246  PHE246      0.2595
    160  O        -33.7290   31.6640  -25.6800 O.2   246  PHE246     -0.2718
    161  CB       -35.0160   29.2590  -27.1240 C.3   246  PHE246      0.0547
    162  CG       -35.7190   27.9900  -26.7030 C.ar  246  PHE246     -0.0202
    163  CD1      -35.7340   27.5890  -25.3750 C.ar  246  PHE246     -0.0042
    164  CD2      -36.4080   27.2270  -27.6350 C.ar  246  PHE246     -0.0042
    165  CE1      -36.3820   26.4370  -24.9970 C.ar  246  PHE246     -0.0003
    166  CE2      -37.0650   26.0790  -27.2570 C.ar  246  PHE246     -0.0003
    167  CZ       -37.0520   25.6820  -25.9390 C.ar  246  PHE246     -0.0000
    168  N        -34.6960   32.5970  -27.4930 N.am  247  ILE247     -0.1980
    169  CA       -33.8840   33.8080  -27.4180 C.3   247  ILE247      0.1595
    170  C        -34.2140   34.5540  -26.1410 C.2   247  ILE247      0.2287
    171  O        -33.3290   34.9380  -25.3700 O.2   247  ILE247     -0.2864
    172  CB       -34.1290   34.6880  -28.6590 C.3   247  ILE247      0.0276
    173  CG1      -33.3770   34.1110  -29.8640 C.3   247  ILE247      0.0022
    174  CG2      -33.8160   36.2000  -28.3960 C.3   247  ILE247      0.0022
    175  CD1      -31.8990   34.3820  -29.8770 C.3   247  ILE247      0.0001
    176  N        -35.8400   33.4800  -23.5130 N.3   249  LYS249     -0.1231
    177  CA       -35.5530   32.6640  -22.3340 C.3   249  LYS249      0.1693
    178  C        -34.0610   32.6840  -22.0170 C.2   249  LYS249      0.2592
    179  O        -33.6720   32.7280  -20.8450 O.2   249  LYS249     -0.2718
    180  CB       -36.0640   31.2290  -22.5390 C.3   249  LYS249      0.0285
    181  CG       -35.7200   30.2180  -21.4150 C.3   249  LYS249      0.0035
    182  CD       -36.6920   29.0030  -21.4100 C.3   249  LYS249      0.0206
    183  CE       -36.2870   27.8430  -20.4410 C.3   249  LYS249      0.1093
    184  NZ       -35.4030   26.7450  -20.9880 N.3   249  LYS249     -0.1314
    185  N        -33.2050   32.7080  -23.0460 N.am  250  ASP250     -0.1974
    186  CA       -31.7670   32.7520  -22.7900 C.3   250  ASP250      0.1709
    187  C        -31.3540   34.1040  -22.2250 C.2   250  ASP250      0.2293
    188  O        -30.6200   34.1770  -21.2270 O.2   250  ASP250     -0.2864
    189  CB       -30.9530   32.5180  -24.0670 C.3   250  ASP250      0.1436
    190  CG       -30.9990   31.1020  -24.5520 C.2   250  ASP250      0.3671
    191  OD1      -31.4090   30.2140  -23.7790 O.co2 250  ASP250     -0.2456
    192  OD2      -30.5410   30.8710  -25.6940 O.co2 250  ASP250     -0.2456
@<TRIPOS>BOND
     1     1     2    1
     2     6     5    1
     3     2     5    1
     4     2     3    1
     5     5     7    1
     6   131   130    2
     7    23    21    1
     8   130   129    1
     9     8     3   am
    10     8     9    1
    11     3     4    2
    12   132   133    1
    13   132   129    1
    14   134   133   ar
    15   134   136   ar
    16    16    17    1
    17    17    20    1
    18    17    18    1
    19    14    12    1
    20   133   135   ar
    21   129   128    1
    22   108   105    1
    23   107   106    2
    24    20    21    1
    25    20    22    1
    26   136   137   ar
    27     9    12    1
    28     9    10    1
    29    12    13    1
    30    10    11    2
    31   106   105    1
    32    18    19    2
    33   128   119   am
    34   135   137   ar
    35   105   104    1
    36   112   111    2
    37   111   110    1
    38   115   113    1
    39   119   120    2
    40   119   118    1
    41    13    15    1
    42   117   118    1
    43   113   110    1
    44   113   114    1
    45   104    99   am
    46   110   109    1
    47   118   121    1
    48    95    94    2
    49    94    93    1
    50   146   147    1
    51   100    99    2
    52    99    98    1
    53   116   114    1
    54   150   147    1
    55   150   151    1
    56    24    25    1
    57   153   151   ar
    58   153   155   ar
    59   123   122   ar
    60   123   125   ar
    61   121   122    1
    62   147   148    1
    63    96    93    1
    64    97    98    1
    65   138   139    1
    66   151   152   ar
    67   122   124   ar
    68   125   127   ar
    69   148   149    2
    70    93    92    1
    71    98   101    1
    72    29    28    1
    73    25    28    1
    74    25    26    1
    75   155   156   ar
    76   144   143    2
    77   127   126   ar
    78   124   126   ar
    79   101   102    1
    80   101   103    1
    81    28    30    1
    82    26    27    2
    83   152   154   ar
    84   139   142    1
    85   139   140    1
    86   143   145   am
    87   143   142    1
    88   175   173    1
    89   173   172    1
    90   141   140    2
    91   156   154   ar
    92   172   174    1
    93   172   169    1
    94    84    82    1
    95   164   166   ar
    96   164   162   ar
    97   168   169    1
    98   168   159   am
    99   169   170    1
   100    91    89    1
   101   157   158    1
   102   166   167   ar
   103   161   162    1
   104   161   158    1
   105    82    83    1
   106    82    81    1
   107   162   163   ar
   108    90    89    1
   109   159   158    1
   110   159   160    2
   111    89    86    1
   112    76    73    1
   113   170   171    2
   114   167   165   ar
   115    86    85    1
   116    86    87    1
   117   192   190   ar
   118    37    36    1
   119    81    78    1
   120   163   165   ar
   121    75    74    2
   122    73    74    1
   123    73    72    1
   124    85    79   am
   125    80    79    2
   126    71    69    1
   127    79    78    1
   128    88    87    2
   129    36    38    1
   130    36    35    1
   131   190   189    1
   132   190   191   ar
   133    47    45   ar
   134    47    48   ar
   135    64    63    2
   136    78    77    1
   137    45    44   ar
   138   189   186    1
   139    63    62    1
   140    63    65   am
   141    66    69    1
   142    66    65    1
   143    66    67    1
   144    69    70    1
   145    62    61    1
   146   176   177    1
   147    35    32    1
   148    48    50   ar
   149    48    46   ar
   150    68    67    2
   151    31    32    1
   152    44    43    1
   153    44    46   ar
   154   185   186    1
   155   185   178   am
   156    50    52   ar
   157    42    41    2
   158   186   187    1
   159   180   177    1
   160   180   181    1
   161    32    33    1
   162    43    40    1
   163    46    49   ar
   164   177   178    1
   165   187   188    2
   166   178   179    2
   167    52    51   ar
   168    41    40    1
   169    41    53   am
   170    40    39    1
   171   181   182    1
   172   182   183    1
   173    33    34    2
   174    49    51   ar
   175    56    55    2
   176   184   183    1
   177    54    55    1
   178    54    53    1
   179    54    57    1
   180    59    57    1
   181    57    58    1
   182    58    60    1
