@<TRIPOS>MOLECULE
tmp/5kloA00.pdb
 143 137 0 0 0
SMALL
GASTEIGER

@<TRIPOS>ATOM
      1  N        -42.4040   12.8320  182.2860 N.3   104  ARG104     -0.1245
      2  CA       -43.7580   12.2930  182.1380 C.3   104  ARG104      0.1563
      3  C        -43.7400   10.8140  181.7390 C.2   104  ARG104      0.2260
      4  O        -44.6110   10.0480  182.1450 O.2   104  ARG104     -0.2867
      5  CB       -44.5630   13.0830  181.1000 C.3   104  ARG104      0.0307
      6  CG       -45.6160   14.0070  181.6710 C.3   104  ARG104      0.0489
      7  CD       -46.6470   13.2520  182.5370 C.3   104  ARG104      0.2205
      8  NE       -47.4380   12.2760  181.7830 N.pl3 104  ARG104     -0.0865
      9  CZ       -48.4340   12.5880  180.9490 C.cat 104  ARG104      0.5346
     10  NH1      -48.7680   13.8630  180.7330 N.pl3 104  ARG104      0.1354
     11  NH2      -49.1000   11.6240  180.3190 N.pl3 104  ARG104      0.1354
     12  N        -48.1630    9.2170  167.9500 N.3   151  PRO151     -0.2116
     13  CA       -47.7420   10.2530  167.0030 C.3   151  PRO151      0.1372
     14  C        -46.4520   10.9530  167.4300 C.2   151  PRO151      0.2244
     15  O        -45.8470   10.6070  168.4500 O.2   151  PRO151     -0.2868
     16  CB       -48.9000   11.2350  167.0750 C.3   151  PRO151      0.0268
     17  CG       -49.2420   11.2300  168.5480 C.3   151  PRO151      0.0207
     18  CD       -49.0470    9.7760  168.9950 C.3   151  PRO151      0.0892
     19  N        -45.9890   14.2590  168.1950 N.3   153  ALA153     -0.1231
     20  CA       -46.1080   15.4930  168.9940 C.3   153  ALA153      0.1694
     21  C        -45.3140   15.4200  170.3030 C.2   153  ALA153      0.2591
     22  O        -44.5220   16.3090  170.6280 O.2   153  ALA153     -0.2718
     23  CB       -47.5790   15.8060  169.2920 C.3   153  ALA153      0.0304
     24  N        -45.5550   14.3720  171.0740 N.am  154  LEU154     -0.1980
     25  CA       -44.8190   14.1830  172.3240 C.3   154  LEU154      0.1596
     26  C        -44.4560   12.7190  172.3200 C.2   154  LEU154      0.2287
     27  O        -45.1580   11.9000  172.9180 O.2   154  LEU154     -0.2864
     28  CB       -45.7240   14.4830  173.5290 C.3   154  LEU154      0.0297
     29  CG       -46.4820   15.8090  173.5410 C.3   154  LEU154      0.0022
     30  CD1      -47.6180   15.7870  174.6120 C.3   154  LEU154      0.0001
     31  CD2      -45.5130   16.9430  173.7910 C.3   154  LEU154      0.0001
     32  N        -43.6700   10.5580  175.6870 N.3   157  LEU157     -0.1231
     33  CA       -44.7980   10.7980  176.5900 C.3   157  LEU157      0.1693
     34  C        -46.0440   10.0630  176.0940 C.2   157  LEU157      0.2591
     35  O        -46.6980    9.3430  176.8540 O.2   157  LEU157     -0.2718
     36  CB       -45.0450   12.3040  176.7480 C.3   157  LEU157      0.0284
     37  CG       -46.1710   12.8230  177.6660 C.3   157  LEU157      0.0019
     38  CD1      -45.9300   14.3000  177.9090 C.3   157  LEU157      0.0001
     39  CD2      -47.6010   12.6120  177.1130 C.3   157  LEU157      0.0001
     40  N        -46.3830   10.2350  174.8200 N.am  158  LEU158     -0.1980
     41  CA       -47.5950    9.6130  174.2840 C.3   158  LEU158      0.1596
     42  C        -47.4720    8.0960  174.1030 C.2   158  LEU158      0.2287
     43  O        -48.4310    7.3590  174.3230 O.2   158  LEU158     -0.2864
     44  CB       -48.0050   10.2820  172.9740 C.3   158  LEU158      0.0297
     45  CG       -48.5970   11.6660  173.1960 C.3   158  LEU158      0.0022
     46  CD1      -48.7400   12.4330  171.8850 C.3   158  LEU158      0.0001
     47  CD2      -49.9320   11.5360  173.9180 C.3   158  LEU158      0.0001
     48  N        -47.7050    6.7130  177.5480 N.3   161  TRP161     -0.1241
     49  CA       -49.0690    6.9380  178.0400 C.3   161  TRP161      0.1605
     50  C        -49.9700    5.7450  177.7230 C.2   161  TRP161      0.2264
     51  O        -50.8980    5.4440  178.4760 O.2   161  TRP161     -0.2867
     52  CB       -49.6420    8.2100  177.4260 C.3   161  TRP161      0.0550
     53  CG       -51.0350    8.5810  177.8430 C.ar  161  TRP161      0.0003
     54  CD1      -52.0950    8.7910  177.0230 C.ar  161  TRP161      0.0946
     55  CD2      -51.5020    8.8270  179.1770 C.ar  161  TRP161      0.0152
     56  NE1      -53.1980    9.1540  177.7580 N.ar  161  TRP161     -0.2442
     57  CE2      -52.8590    9.1790  179.0840 C.ar  161  TRP161      0.0810
     58  CE3      -50.9010    8.7790  180.4400 C.ar  161  TRP161      0.0012
     59  CZ2      -53.6360    9.4860  180.2120 C.ar  161  TRP161      0.0191
     60  CZ3      -51.6750    9.0810  181.5570 C.ar  161  TRP161      0.0001
     61  CH2      -53.0220    9.4340  181.4290 C.ar  161  TRP161      0.0015
     62  N        -53.4330    7.7850  169.1770 N.3   229  THR229     -0.1218
     63  CA       -53.4880    9.2350  169.2710 C.3   229  THR229      0.1862
     64  C        -52.9140    9.7700  167.9640 C.2   229  THR229      0.2287
     65  O        -51.8400    9.3290  167.5330 O.2   229  THR229     -0.2866
     66  CB       -52.6570    9.7680  170.4450 C.3   229  THR229      0.1770
     67  OG1      -53.1910    9.2640  171.6780 O.3   229  THR229     -0.2211
     68  CG2      -52.7010   11.2910  170.4750 C.3   229  THR229      0.0375
     69  N        -57.6490    9.4360  170.8830 N.3   252  GLU252     -0.1245
     70  CA       -57.5490   10.8580  171.1660 C.3   252  GLU252      0.1567
     71  C        -57.0630   11.5070  169.8770 C.2   252  GLU252      0.2260
     72  O        -56.0140   11.1330  169.3410 O.2   252  GLU252     -0.2867
     73  CB       -56.5910   11.1390  172.3240 C.3   252  GLU252      0.0388
     74  CG       -56.5550   12.6330  172.6920 C.3   252  GLU252      0.1160
     75  CD       -55.3980   13.3660  172.0240 C.2   252  GLU252      0.3649
     76  OE1      -54.2480   13.1610  172.4610 O.co2 252  GLU252     -0.2457
     77  OE2      -55.6270   14.1390  171.0670 O.co2 252  GLU252     -0.2457
     78  N        -49.1510   20.4950  169.7900 N.3   285  VAL285     -0.1231
     79  CA       -49.8000   19.6800  170.8180 C.3   285  VAL285      0.1692
     80  C        -51.2840   19.6950  170.4990 C.2   285  VAL285      0.2592
     81  O        -51.8250   20.7400  170.1270 O.2   285  VAL285     -0.2718
     82  CB       -49.5730   20.2330  172.2520 C.3   285  VAL285      0.0266
     83  CG1      -50.0270   19.2080  173.2930 C.3   285  VAL285      0.0020
     84  CG2      -48.1030   20.6010  172.5020 C.3   285  VAL285      0.0020
     85  N        -51.9490   18.5420  170.6320 N.am  286  CYS286     -0.1956
     86  CA       -53.3710   18.4320  170.3470 C.3   286  CYS286      0.1843
     87  C        -54.1840   19.4240  171.1890 C.2   286  CYS286      0.2625
     88  O        -55.2550   19.8820  170.7790 O.2   286  CYS286     -0.2714
     89  CB       -53.8430   16.9990  170.6380 C.3   286  CYS286      0.0997
     90  SG       -53.5100   16.4570  172.3480 S.3   286  CYS286     -0.0797
     91  N        -53.6430   19.7600  172.3570 N.am  287  LEU287     -0.1977
     92  CA       -54.3050   20.6280  173.3310 C.3   287  LEU287      0.1596
     93  C        -54.0790   22.1220  173.1150 C.2   287  LEU287      0.2287
     94  O        -54.6700   22.9460  173.8170 O.2   287  LEU287     -0.2864
     95  CB       -53.8060   20.2730  174.7350 C.3   287  LEU287      0.0297
     96  CG       -54.0480   18.8280  175.1580 C.3   287  LEU287      0.0022
     97  CD1      -53.3060   18.5550  176.4420 C.3   287  LEU287      0.0001
     98  CD2      -55.5520   18.5600  175.3410 C.3   287  LEU287      0.0001
     99  N        -52.1100   22.7210  163.7560 N.3   390  PHE390     -0.1241
    100  CA       -51.0600   22.0170  164.5010 C.3   390  PHE390      0.1605
    101  C        -49.7170   22.7400  164.3070 C.2   390  PHE390      0.2264
    102  O        -48.6640   22.1140  164.1730 O.2   390  PHE390     -0.2867
    103  CB       -50.9790   20.5190  164.1090 C.3   390  PHE390      0.0534
    104  CG       -50.7480   19.5850  165.2810 C.ar  390  PHE390     -0.0203
    105  CD1      -51.7910   19.2520  166.1420 C.ar  390  PHE390     -0.0042
    106  CD2      -49.4970   19.0320  165.5130 C.ar  390  PHE390     -0.0042
    107  CE1      -51.5740   18.3910  167.2220 C.ar  390  PHE390     -0.0003
    108  CE2      -49.2730   18.1780  166.5860 C.ar  390  PHE390     -0.0003
    109  CZ       -50.3100   17.8590  167.4440 C.ar  390  PHE390     -0.0000
    110  N        -52.7760   22.7300  180.2760 N.3   446  TYR446     -0.1241
    111  CA       -52.0070   21.4930  180.2190 C.3   446  TYR446      0.1605
    112  C        -51.3250   21.1770  181.5560 C.2   446  TYR446      0.2264
    113  O        -50.1710   20.7580  181.6020 O.2   446  TYR446     -0.2867
    114  CB       -51.0010   21.5130  179.0560 C.3   446  TYR446      0.0534
    115  CG       -50.4270   20.1440  178.6970 C.ar  446  TYR446     -0.0201
    116  CD1      -51.1530   18.9780  178.9050 C.ar  446  TYR446     -0.0009
    117  CD2      -49.1560   20.0270  178.1620 C.ar  446  TYR446     -0.0009
    118  CE1      -50.6160   17.7200  178.5710 C.ar  446  TYR446      0.0417
    119  CE2      -48.6180   18.7790  177.8380 C.ar  446  TYR446      0.0417
    120  CZ       -49.3510   17.6360  178.0460 C.ar  446  TYR446      0.1957
    121  OH       -48.8110   16.3930  177.7290 O.3   446  TYR446     -0.2866
    122  N        -51.4650   18.5440  184.3310 N.3   448  ARG448     -0.1245
    123  CA       -51.9370   17.1640  184.2420 C.3   448  ARG448      0.1563
    124  C        -51.8480   16.3680  185.5470 C.2   448  ARG448      0.2260
    125  O        -50.7870   16.2350  186.1400 O.2   448  ARG448     -0.2867
    126  CB       -51.1490   16.4130  183.1670 C.3   448  ARG448      0.0307
    127  CG       -51.3950   16.9330  181.7650 C.3   448  ARG448      0.0489
    128  CD       -52.6780   16.3770  181.1440 C.3   448  ARG448      0.2205
    129  NE       -52.5660   14.9470  180.8570 N.pl3 448  ARG448     -0.0865
    130  CZ       -53.2790   14.0010  181.4650 C.cat 448  ARG448      0.5346
    131  NH1      -54.1710   14.3390  182.3880 N.pl3 448  ARG448      0.1354
    132  NH2      -53.0960   12.7200  181.1530 N.pl3 448  ARG448      0.1354
    133  N        -59.0900   11.6370  180.6250 N.3   454  PHE454     -0.1241
    134  CA       -58.5000   12.4270  179.5630 C.3   454  PHE454      0.1605
    135  C        -59.0290   11.9290  178.2190 C.2   454  PHE454      0.2264
    136  O        -58.9300   10.7490  177.9070 O.2   454  PHE454     -0.2867
    137  CB       -56.9760   12.2610  179.6290 C.3   454  PHE454      0.0534
    138  CG       -56.2230   13.0920  178.6320 C.ar  454  PHE454     -0.0203
    139  CD1      -55.7340   14.3380  178.9880 C.ar  454  PHE454     -0.0042
    140  CD2      -55.9760   12.6160  177.3480 C.ar  454  PHE454     -0.0042
    141  CE1      -55.0130   15.1080  178.0790 C.ar  454  PHE454     -0.0003
    142  CE2      -55.2580   13.3830  176.4290 C.ar  454  PHE454     -0.0003
    143  CZ       -54.7830   14.6300  176.7950 C.ar  454  PHE454     -0.0000
@<TRIPOS>BOND
     1    99   100    1
     2   103   100    1
     3   103   104    1
     4   102   101    2
     5   101   100    1
     6   104   106   ar
     7   104   105   ar
     8   106   108   ar
     9   105   107   ar
    10   108   109   ar
    11    13    16    1
    12    13    14    1
    13    13    12    1
    14    16    17    1
    15   107   109   ar
    16    14    15    2
    17    65    64    2
    18    12    18    1
    19    64    63    1
    20    19    20    1
    21    17    18    1
    22    20    23    1
    23    20    21    1
    24    62    63    1
    25    63    66    1
    26    72    71    2
    27    78    79    1
    28    71    70    1
    29    81    80    2
    30    21    22    2
    31    21    24   am
    32    86    85    1
    33    86    89    1
    34    86    87    1
    35    66    68    1
    36    66    67    1
    37    80    85   am
    38    80    79    1
    39    89    90    1
    40    88    87    2
    41    79    82    1
    42    69    70    1
    43    77    75   ar
    44    24    25    1
    45    70    73    1
    46    87    91   am
    47    46    45    1
    48    75    76   ar
    49    75    74    1
    50    82    84    1
    51    82    83    1
    52    26    25    1
    53    26    27    2
    54    25    28    1
    55    73    74    1
    56    91    92    1
    57    44    45    1
    58    44    41    1
    59    93    92    1
    60    93    94    2
    61    45    47    1
    62    92    95    1
    63    28    29    1
    64    29    31    1
    65    29    30    1
    66    42    41    1
    67    42    43    2
    68    41    40    1
    69    95    96    1
    70    40    34   am
    71    96    98    1
    72    96    97    1
    73    32    33    1
    74    34    33    1
    75    34    35    2
    76   142   143   ar
    77   142   140   ar
    78    33    36    1
    79    36    37    1
    80   143   141   ar
    81    54    56   ar
    82    54    53   ar
    83    39    37    1
    84   140   138   ar
    85    52    53    1
    86    52    49    1
    87    48    49    1
    88    37    38    1
    89    50    49    1
    90    50    51    2
    91   121   120    1
    92    56    57   ar
    93   119   120   ar
    94   119   117   ar
    95    53    55   ar
    96   136   135    2
    97   120   118   ar
    98   141   139   ar
    99   117   115   ar
   100   135   134    1
   101   118   116   ar
   102   138   139   ar
   103   138   137    1
   104   115   116   ar
   105   115   114    1
   106   114   111    1
   107    57    55   ar
   108    57    59   ar
   109    55    58   ar
   110   134   137    1
   111   134   133    1
   112    59    61   ar
   113   111   110    1
   114   111   112    1
   115    11     9    1
   116    58    60   ar
   117    10     9    1
   118   129   128    1
   119   129   130    2
   120     9     8    2
   121     5     6    1
   122     5     2    1
   123   128   127    1
   124   132   130    1
   125    61    60   ar
   126   130   131    1
   127   112   113    2
   128     6     7    1
   129     3     2    1
   130     3     4    2
   131   127   126    1
   132     8     7    1
   133     2     1    1
   134   126   123    1
   135   123   122    1
   136   123   124    1
   137   124   125    2
