@<TRIPOS>MOLECULE
tmp/5klpA01.pdb
 91 88 0 0 0
SMALL
GASTEIGER

@<TRIPOS>ATOM
      1  N          9.6270  -16.4650   -9.5470 N.3   101  HIS101     -0.1241
      2  CA         8.2100  -16.0670   -9.4160 C.3   101  HIS101      0.1621
      3  C          7.9930  -14.9880   -8.3490 C.2   101  HIS101      0.2264
      4  O          7.0830  -15.0850   -7.5120 O.2   101  HIS101     -0.2867
      5  CB         7.3280  -17.2750   -9.0800 C.3   101  HIS101      0.0745
      6  CG         7.2280  -18.2620  -10.1960 C.ar  101  HIS101      0.0817
      7  ND1        8.2250  -19.1740  -10.4730 N.ar  101  HIS101     -0.2268
      8  CD2        6.2640  -18.4580  -11.1240 C.ar  101  HIS101      0.1154
      9  CE1        7.8690  -19.9020  -11.5180 C.ar  101  HIS101      0.1986
     10  NE2        6.6830  -19.4890  -11.9300 N.ar  101  HIS101     -0.2212
     11  N         -0.5020  -14.4540  -11.2830 N.3   122  VAL122     -0.1245
     12  CA        -1.7200  -15.0260  -10.7070 C.3   122  VAL122      0.1561
     13  C         -1.4210  -15.7330   -9.3930 C.2   122  VAL122      0.2260
     14  O         -0.3190  -16.2540   -9.1910 O.2   122  VAL122     -0.2867
     15  CB        -2.3990  -16.0200  -11.6720 C.3   122  VAL122      0.0252
     16  CG1       -2.9400  -15.2880  -12.8940 C.3   122  VAL122      0.0019
     17  CG2       -1.4300  -17.1370  -12.0910 C.3   122  VAL122      0.0019
     18  N         -2.0340  -20.2880  -10.2940 N.3   125  GLY125     -0.1210
     19  CA        -1.0780  -20.8900  -11.2040 C.3   125  GLY125      0.1956
     20  C         -1.6440  -22.0890  -11.9330 C.2   125  GLY125      0.2612
     21  O         -2.4140  -22.8640  -11.3690 O.2   125  GLY125     -0.2717
     22  N         -1.2300  -22.2520  -13.1850 N.am  126  ALA126     -0.1965
     23  CA        -1.8020  -23.2620  -14.0730 C.3   126  ALA126      0.1728
     24  C         -1.6640  -24.6800  -13.5230 C.2   126  ALA126      0.2616
     25  O         -2.4730  -25.5470  -13.8340 O.2   126  ALA126     -0.2715
     26  CB        -1.1570  -23.1680  -15.4590 C.3   126  ALA126      0.0334
     27  N         -0.6540  -24.9150  -12.6910 N.am  127  ARG127     -0.1963
     28  CA        -0.4990  -26.2220  -12.0560 C.3   127  ARG127      0.1729
     29  C         -0.6220  -26.1060  -10.5220 C.2   127  ARG127      0.2616
     30  O         -0.1240  -26.9570   -9.7770 O.2   127  ARG127     -0.2715
     31  CB         0.8530  -26.8240  -12.4730 C.3   127  ARG127      0.0348
     32  CG         0.9440  -27.0200  -13.9940 C.3   127  ARG127      0.0492
     33  CD         2.3660  -27.2180  -14.5620 C.3   127  ARG127      0.2205
     34  NE         3.2190  -28.1240  -13.7940 N.pl3 127  ARG127     -0.0865
     35  CZ         4.3170  -27.7600  -13.1370 C.cat 127  ARG127      0.5346
     36  NH1        4.7140  -26.4950  -13.1310 N.pl3 127  ARG127      0.1354
     37  NH2        5.0250  -28.6680  -12.4820 N.pl3 127  ARG127      0.1354
     38  N         -1.3210  -25.0590  -10.0710 N.am  128  TYR128     -0.1960
     39  CA        -1.5660  -24.7840   -8.6440 C.3   128  TYR128      0.1771
     40  C         -0.2850  -24.6210   -7.8310 C.2   128  TYR128      0.2619
     41  O         -0.3100  -24.7240   -6.6080 O.2   128  TYR128     -0.2715
     42  CB        -2.4370  -25.8770   -8.0030 C.3   128  TYR128      0.0574
     43  CG        -3.7070  -26.1330   -8.7740 C.ar  128  TYR128     -0.0198
     44  CD1       -4.8050  -25.3100   -8.6170 C.ar  128  TYR128     -0.0009
     45  CD2       -3.8060  -27.2010   -9.6550 C.ar  128  TYR128     -0.0009
     46  CE1       -5.9710  -25.5300   -9.3260 C.ar  128  TYR128      0.0417
     47  CE2       -4.9670  -27.4340  -10.3670 C.ar  128  TYR128      0.0417
     48  CZ        -6.0480  -26.5930  -10.2000 C.ar  128  TYR128      0.1957
     49  OH        -7.2060  -26.8170  -10.9060 O.3   128  TYR128     -0.2866
     50  N          0.8350  -24.3710   -8.5040 N.am  129  GLN129     -0.1963
     51  CA         2.1060  -24.2350   -7.7980 C.3   129  GLN129      0.1733
     52  C          2.2240  -22.8920   -7.0650 C.2   129  GLN129      0.2616
     53  O          2.6650  -22.8510   -5.9090 O.2   129  GLN129     -0.2715
     54  CB         3.2680  -24.4280   -8.7620 C.3   129  GLN129      0.0408
     55  CG         3.2480  -25.8040   -9.4430 C.3   129  GLN129      0.0908
     56  CD         3.4330  -26.9550   -8.4630 C.2   129  GLN129      0.2608
     57  OE1        4.5270  -27.1780   -7.9430 O.2   129  GLN129     -0.2717
     58  NE2        2.3540  -27.7000   -8.2140 N.am  129  GLN129     -0.0878
     59  N          1.8500  -21.7900   -7.7150 N.am  130  GLN130     -0.1977
     60  CA         1.9390  -20.4900   -7.0370 C.3   130  GLN130      0.1601
     61  C          1.0800  -20.4810   -5.7720 C.2   130  GLN130      0.2287
     62  O          1.4630  -19.8940   -4.7600 O.2   130  GLN130     -0.2864
     63  CB         1.5170  -19.3260   -7.9430 C.3   130  GLN130      0.0394
     64  CG         2.6500  -18.6370   -8.7090 C.3   130  GLN130      0.0908
     65  CD         3.7780  -18.0740   -7.8380 C.2   130  GLN130      0.2608
     66  OE1        4.6990  -18.7990   -7.4840 O.2   130  GLN130     -0.2717
     67  NE2        3.7260  -16.7690   -7.5240 N.am  130  GLN130     -0.0878
     68  N          2.9120  -22.0920   -2.9800 N.3   133  ARG133     -0.1245
     69  CA         4.0070  -21.2200   -2.5580 C.3   133  ARG133      0.1563
     70  C          3.4920  -20.0450   -1.7080 C.2   133  ARG133      0.2260
     71  O          4.1150  -19.6740   -0.7040 O.2   133  ARG133     -0.2867
     72  CB         4.7770  -20.7040   -3.7810 C.3   133  ARG133      0.0307
     73  CG         5.4810  -21.8020   -4.5940 C.3   133  ARG133      0.0489
     74  CD         5.8070  -21.2970   -6.0010 C.3   133  ARG133      0.2205
     75  NE         6.1470  -22.3830   -6.9090 N.pl3 133  ARG133     -0.0865
     76  CZ         6.1120  -22.2880   -8.2340 C.cat 133  ARG133      0.5346
     77  NH1        5.7410  -21.1470   -8.8230 N.pl3 133  ARG133      0.1354
     78  NH2        6.4470  -23.3380   -8.9660 N.pl3 133  ARG133      0.1354
     79  N          3.7640  -13.6250  -18.3500 N.3   161  THR161     -0.1203
     80  CA         4.5790  -14.7840  -17.9930 C.3   161  THR161      0.1994
     81  C          5.2270  -14.5340  -16.6450 C.2   161  THR161      0.2618
     82  O          5.0300  -13.4870  -16.0400 O.2   161  THR161     -0.2717
     83  CB         5.6790  -15.0820  -19.0350 C.3   161  THR161      0.1784
     84  OG1        6.6950  -14.0760  -18.9700 O.3   161  THR161     -0.2211
     85  CG2        5.1010  -15.1150  -20.4350 C.3   161  THR161      0.0376
     86  N          6.0070  -15.4870  -16.1630 N.am  162  SER162     -0.1951
     87  CA         6.7070  -15.2590  -14.9090 C.3   162  SER162      0.1924
     88  C          8.1690  -14.8900  -15.1560 C.2   162  SER162      0.2314
     89  O          8.9420  -14.7230  -14.2150 O.2   162  SER162     -0.2863
     90  CB         6.5840  -16.4810  -13.9990 C.3   162  SER162      0.2116
     91  OG         5.2690  -16.5390  -13.4570 O.3   162  SER162     -0.2180
@<TRIPOS>BOND
     1    85    83    1
     2    83    84    1
     3    83    80    1
     4    79    80    1
     5    80    81    1
     6    81    86   am
     7    81    82    2
     8    86    87    1
     9    26    23    1
    10    88    87    1
    11    88    89    2
    12    87    90    1
    13    33    32    1
    14    33    34    1
    15    23    24    1
    16    23    22    1
    17    90    91    1
    18    32    31    1
    19    25    24    2
    20    34    35    2
    21    24    27   am
    22    22    20   am
    23    35    36    1
    24    35    37    1
    25    16    15    1
    26    27    28    1
    27    31    28    1
    28    17    15    1
    29    28    29    1
    30    20    21    2
    31    20    19    1
    32    10     9   ar
    33    10     8   ar
    34    15    12    1
    35     9     7   ar
    36    11    12    1
    37    19    18    1
    38     8     6   ar
    39    49    48    1
    40    12    13    1
    41    29    38   am
    42    29    30    2
    43     7     6   ar
    44    47    48   ar
    45    47    45   ar
    46    48    46   ar
    47     6     5    1
    48    38    39    1
    49    45    43   ar
    50     1     2    1
    51    55    54    1
    52    55    56    1
    53     2     5    1
    54     2     3    1
    55    13    14    2
    56    46    44   ar
    57    78    76    1
    58    77    76    1
    59    43    44   ar
    60    43    42    1
    61    54    51    1
    62    64    63    1
    63    64    65    1
    64    39    42    1
    65    39    40    1
    66    50    40   am
    67    50    51    1
    68    56    58   am
    69    56    57    2
    70     3     4    2
    71    76    75    2
    72    63    60    1
    73    65    67   am
    74    65    66    2
    75    40    41    2
    76    51    52    1
    77    59    52   am
    78    59    60    1
    79    52    53    2
    80    60    61    1
    81    75    74    1
    82    74    73    1
    83    61    62    2
    84    73    72    1
    85    72    69    1
    86    68    69    1
    87    69    70    1
    88    70    71    2
