@<TRIPOS>MOLECULE
tmp/5klqB00.pdb
 191 179 0 0 0
SMALL
GASTEIGER

@<TRIPOS>ATOM
      1  N         32.2860  -41.4250 -100.3390 N.3     7  ARG7       -0.1245
      2  CA        30.9390  -40.9150 -100.1040 C.3     7  ARG7        0.1563
      3  C         30.7660  -39.5180 -100.6820 C.2     7  ARG7        0.2260
      4  O         29.8910  -39.2720 -101.5210 O.2     7  ARG7       -0.2867
      5  CB        30.6400  -40.8940  -98.6040 C.3     7  ARG7        0.0307
      6  CG        30.4540  -42.2680  -97.9840 C.3     7  ARG7        0.0489
      7  CD        28.9970  -42.6650  -97.9300 C.3     7  ARG7        0.2205
      8  NE        28.3190  -42.0390  -96.8010 N.pl3   7  ARG7       -0.0865
      9  CZ        28.2790  -42.5590  -95.5790 C.cat   7  ARG7        0.5346
     10  NH1       28.8730  -43.7170  -95.3350 N.pl3   7  ARG7        0.1354
     11  NH2       27.6430  -41.9270  -94.6030 N.pl3   7  ARG7        0.1354
     12  N         28.6990  -37.9590 -103.8630 N.3    11  LYS11      -0.1245
     13  CA        27.7800  -36.8210 -103.8020 C.3    11  LYS11       0.1561
     14  C         28.0990  -35.7970 -104.8980 C.2    11  LYS11       0.2260
     15  O         27.2020  -35.2340 -105.5480 O.2    11  LYS11      -0.2867
     16  CB        27.8650  -36.1450 -102.4320 C.3    11  LYS11       0.0271
     17  CG        27.4820  -37.0250 -101.2520 C.3    11  LYS11       0.0035
     18  CD        26.9740  -36.1830 -100.0890 C.3    11  LYS11       0.0206
     19  CE        26.5220  -37.0390  -98.9100 C.3    11  LYS11       0.1093
     20  NZ        25.2860  -37.8160  -99.1960 N.3    11  LYS11      -0.1314
     21  N         12.5250  -28.0440  -98.6910 N.3    61  GLU61      -0.1245
     22  CA        12.5960  -28.8940  -97.5010 C.3    61  GLU61       0.1567
     23  C         11.2900  -28.8540  -96.7270 C.2    61  GLU61       0.2260
     24  O         10.8870  -29.8530  -96.1260 O.2    61  GLU61      -0.2867
     25  CB        13.7560  -28.4950  -96.5870 C.3    61  GLU61       0.0388
     26  CG        15.1120  -29.0290  -97.0270 C.3    61  GLU61       0.1160
     27  CD        15.1800  -30.5530  -97.0050 C.2    61  GLU61       0.3649
     28  OE1       14.4380  -31.1860  -96.2200 O.co2  61  GLU61      -0.2457
     29  OE2       15.9860  -31.1200  -97.7720 O.co2  61  GLU61      -0.2457
     30  N          9.5780  -31.3000  -98.6440 N.3    64  ARG64      -0.1231
     31  CA        10.1110  -32.6250  -98.3140 C.3    64  ARG64       0.1694
     32  C          9.7200  -33.1300  -96.9320 C.2    64  ARG64       0.2592
     33  O          9.4070  -34.3060  -96.7620 O.2    64  ARG64      -0.2718
     34  CB        11.6370  -32.6340  -98.4300 C.3    64  ARG64       0.0321
     35  CG        12.1620  -32.7560  -99.8530 C.3    64  ARG64       0.0489
     36  CD        13.6810  -32.8700  -99.8610 C.3    64  ARG64       0.2205
     37  NE        14.1660  -33.8420  -98.8810 N.pl3  64  ARG64      -0.0865
     38  CZ        14.4050  -35.1220  -99.1530 C.cat  64  ARG64       0.5346
     39  NH1       14.2270  -35.5890 -100.3810 N.pl3  64  ARG64       0.1354
     40  NH2       14.8390  -35.9370  -98.2000 N.pl3  64  ARG64       0.1354
     41  N          9.7880  -32.2550  -95.9380 N.am   65  ASN65      -0.1974
     42  CA         9.4230  -32.6370  -94.5790 C.3    65  ASN65       0.1688
     43  C          8.2700  -31.8030  -94.0350 C.2    65  ASN65       0.2292
     44  O          8.4900  -30.7640  -93.4160 O.2    65  ASN65      -0.2864
     45  CB        10.6360  -32.5240  -93.6510 C.3    65  ASN65       0.1181
     46  CG        11.6950  -33.5740  -93.9420 C.2    65  ASN65       0.2629
     47  OD1       11.5380  -34.7450  -93.5860 O.2    65  ASN65      -0.2716
     48  ND2       12.7830  -33.1580  -94.5860 N.am   65  ASN65      -0.0877
     49  N         20.7200  -27.8960  -91.4570 N.3   178  ASN178     -0.1240
     50  CA        20.7370  -29.2770  -91.0070 C.3   178  ASN178      0.1653
     51  C         20.1640  -29.3900  -89.6090 C.2   178  ASN178      0.2266
     52  O         19.4720  -30.3540  -89.2910 O.2   178  ASN178     -0.2867
     53  CB        22.1650  -29.8240  -91.0380 C.3   178  ASN178      0.1155
     54  CG        22.2640  -31.2440  -90.5120 C.2   178  ASN178      0.2627
     55  OD1       22.0560  -32.2100  -91.2460 O.2   178  ASN178     -0.2716
     56  ND2       22.6020  -31.3750  -89.2350 N.am  178  ASN178     -0.0877
     57  N         16.2950  -29.0740  -89.8760 N.3   181  ILE181     -0.1231
     58  CA        15.7270  -30.3390  -90.3220 C.3   181  ILE181      0.1692
     59  C         15.7880  -31.4090  -89.2290 C.2   181  ILE181      0.2591
     60  O         14.8200  -32.1360  -89.0050 O.2   181  ILE181     -0.2718
     61  CB        16.4350  -30.8470  -91.5950 C.3   181  ILE181      0.0266
     62  CG1       16.3800  -29.7790  -92.6870 C.3   181  ILE181      0.0019
     63  CG2       15.7800  -32.1130  -92.1000 C.3   181  ILE181      0.0020
     64  CD1       17.1830  -30.1160  -93.9230 C.3   181  ILE181      0.0001
     65  N         16.9080  -31.4840  -88.5250 N.am  182  LYS182     -0.1980
     66  CA        17.0490  -32.4860  -87.4780 C.3   182  LYS182      0.1596
     67  C         16.1850  -32.1510  -86.2690 C.2   182  LYS182      0.2287
     68  O         15.6900  -33.0510  -85.5870 O.2   182  LYS182     -0.2864
     69  CB        18.5150  -32.6310  -87.0650 C.3   182  LYS182      0.0298
     70  CG        19.3700  -33.2990  -88.1300 C.3   182  LYS182      0.0038
     71  CD        18.7230  -34.5850  -88.6170 C.3   182  LYS182      0.0206
     72  CE        19.5160  -35.2090  -89.7450 C.3   182  LYS182      0.1093
     73  NZ        18.9050  -36.4780  -90.2300 N.3   182  LYS182     -0.1314
     74  N         12.9250  -33.4220  -87.2140 N.3   185  LYS185     -0.1245
     75  CA        12.9800  -34.8770  -87.1800 C.3   185  LYS185      0.1561
     76  C         13.0220  -35.3850  -85.7480 C.2   185  LYS185      0.2260
     77  O         12.5120  -36.4620  -85.4540 O.2   185  LYS185     -0.2867
     78  CB        14.1930  -35.3930  -87.9600 C.3   185  LYS185      0.0271
     79  CG        13.9930  -35.4920  -89.4700 C.3   185  LYS185      0.0035
     80  CD        15.2400  -36.0630  -90.1390 C.3   185  LYS185      0.0206
     81  CE        14.9770  -36.4770  -91.5770 C.3   185  LYS185      0.1093
     82  NZ        14.5660  -35.3350  -92.4300 N.3   185  LYS185     -0.1314
     83  N         26.2710  -35.4970  -86.7980 N.3   245  LYS245     -0.1231
     84  CA        26.5530  -36.2920  -87.9880 C.3   245  LYS245      0.1693
     85  C         27.4540  -35.5600  -88.9630 C.2   245  LYS245      0.2592
     86  O         28.0490  -36.1760  -89.8420 O.2   245  LYS245     -0.2718
     87  CB        25.2620  -36.7080  -88.6910 C.3   245  LYS245      0.0285
     88  CG        24.3770  -37.6310  -87.8690 C.3   245  LYS245      0.0035
     89  CD        23.3640  -38.3130  -88.7610 C.3   245  LYS245      0.0206
     90  CE        24.0670  -38.8970  -89.9850 C.3   245  LYS245      0.1093
     91  NZ        23.1790  -39.7530  -90.8250 N.3   245  LYS245     -0.1314
     92  N         27.5360  -34.2420  -88.8260 N.am  246  HIS246     -0.1976
     93  CA        28.3760  -33.4490  -89.7110 C.3   246  HIS246      0.1656
     94  C         29.5360  -32.8260  -88.9430 C.2   246  HIS246      0.2291
     95  O         30.2150  -31.9280  -89.4440 O.2   246  HIS246     -0.2864
     96  CB        27.5530  -32.3640  -90.4070 C.3   246  HIS246      0.0771
     97  CG        26.5060  -32.9040  -91.3320 C.ar  246  HIS246      0.0820
     98  ND1       26.7780  -33.8630  -92.2830 N.ar  246  HIS246     -0.2267
     99  CD2       25.1920  -32.6080  -91.4620 C.ar  246  HIS246      0.1154
    100  CE1       25.6750  -34.1410  -92.9540 C.ar  246  HIS246      0.1986
    101  NE2       24.6980  -33.3920  -92.4750 N.ar  246  HIS246     -0.2212
    102  N         24.0170  -44.0030  -86.9920 N.3   268  VAL268     -0.1231
    103  CA        23.6540  -42.6580  -87.4450 C.3   268  VAL268      0.1692
    104  C         23.1200  -42.6240  -88.8760 C.2   268  VAL268      0.2592
    105  O         22.7690  -41.5610  -89.3780 O.2   268  VAL268     -0.2718
    106  CB        24.8410  -41.6770  -87.3620 C.3   268  VAL268      0.0266
    107  CG1       25.3590  -41.5920  -85.9380 C.3   268  VAL268      0.0020
    108  CG2       25.9440  -42.0880  -88.3240 C.3   268  VAL268      0.0020
    109  N         23.0580  -43.7720  -89.5420 N.am  269  ASN269     -0.1960
    110  CA        22.4120  -43.8000  -90.8470 C.3   269  ASN269      0.1819
    111  C         21.0740  -44.5030  -90.7290 C.2   269  ASN269      0.2622
    112  O         20.7970  -45.1630  -89.7280 O.2   269  ASN269     -0.2715
    113  CB        23.2940  -44.4690  -91.9110 C.3   269  ASN269      0.1195
    114  CG        23.8420  -45.8100  -91.4730 C.2   269  ASN269      0.2630
    115  OD1       24.0550  -46.0510  -90.2890 O.2   269  ASN269     -0.2716
    116  ND2       24.1020  -46.6820  -92.4370 N.am  269  ASN269     -0.0877
    117  N         20.2330  -44.3230  -91.7380 N.am  270  SER270     -0.1950
    118  CA        18.9040  -44.9070  -91.7300 C.3   270  SER270      0.1924
    119  C         18.9800  -46.4180  -91.6190 C.2   270  SER270      0.2314
    120  O         19.9300  -47.0420  -92.0890 O.2   270  SER270     -0.2863
    121  CB        18.1430  -44.4970  -92.9880 C.3   270  SER270      0.2116
    122  OG        18.8710  -44.8520  -94.1480 O.3   270  SER270     -0.2180
    123  N         19.5980  -49.5670  -94.3310 N.3   273  HIS273     -0.1241
    124  CA        20.9370  -49.7790  -94.8520 C.3   273  HIS273      0.1621
    125  C         21.4300  -51.1530  -94.4390 C.2   273  HIS273      0.2264
    126  O         21.2760  -51.5540  -93.2840 O.2   273  HIS273     -0.2867
    127  CB        21.8870  -48.6940  -94.3530 C.3   273  HIS273      0.0745
    128  CG        21.9390  -47.4910  -95.2410 C.ar  273  HIS273      0.0817
    129  ND1       22.6520  -46.3570  -94.9190 N.ar  273  HIS273     -0.2268
    130  CD2       21.3660  -47.2480  -96.4430 C.ar  273  HIS273      0.1154
    131  CE1       22.5120  -45.4640  -95.8820 C.ar  273  HIS273      0.1986
    132  NE2       21.7360  -45.9800  -96.8190 N.ar  273  HIS273     -0.2212
    133  N         31.2580  -42.7620  -89.5440 N.3   282  ARG282     -0.1245
    134  CA        30.8160  -41.7660  -90.5120 C.3   282  ARG282      0.1563
    135  C         31.8760  -40.7010  -90.7180 C.2   282  ARG282      0.2260
    136  O         32.1620  -40.3080  -91.8460 O.2   282  ARG282     -0.2867
    137  CB        29.5130  -41.1090  -90.0740 C.3   282  ARG282      0.0307
    138  CG        29.1320  -39.9340  -90.9510 C.3   282  ARG282      0.0489
    139  CD        27.7970  -39.3550  -90.5510 C.3   282  ARG282      0.2205
    140  NE        27.4500  -38.2020  -91.3720 N.pl3 282  ARG282     -0.0865
    141  CZ        26.8100  -38.2820  -92.5310 C.cat 282  ARG282      0.5346
    142  NH1       26.4490  -39.4650  -93.0080 N.pl3 282  ARG282      0.1354
    143  NH2       26.5330  -37.1800  -93.2130 N.pl3 282  ARG282      0.1354
    144  N         33.9790  -39.7210  -94.1360 N.3   286  PHE286     -0.1241
    145  CA        34.0240  -38.3820  -94.7120 C.3   286  PHE286      0.1605
    146  C         35.2960  -37.6590  -94.3170 C.2   286  PHE286      0.2264
    147  O         35.3280  -36.4310  -94.2950 O.2   286  PHE286     -0.2867
    148  CB        32.8250  -37.5400  -94.2670 C.3   286  PHE286      0.0534
    149  CG        31.5500  -37.8710  -94.9740 C.ar  286  PHE286     -0.0203
    150  CD1       31.2950  -37.3620  -96.2320 C.ar  286  PHE286     -0.0042
    151  CD2       30.5880  -38.6510  -94.3660 C.ar  286  PHE286     -0.0042
    152  CE1       30.1200  -37.6530  -96.8850 C.ar  286  PHE286     -0.0003
    153  CE2       29.4080  -38.9430  -95.0140 C.ar  286  PHE286     -0.0003
    154  CZ        29.1740  -38.4430  -96.2760 C.ar  286  PHE286     -0.0000
    155  N         31.6860  -33.7180  -93.9800 N.3   307  SER307     -0.1217
    156  CA        30.3070  -34.1680  -94.1340 C.3   307  SER307      0.1889
    157  C         29.3350  -33.0280  -94.4380 C.2   307  SER307      0.2288
    158  O         28.4270  -33.1680  -95.2650 O.2   307  SER307     -0.2866
    159  CB        29.8500  -34.8970  -92.8700 C.3   307  SER307      0.2089
    160  OG        28.5050  -35.3240  -92.9950 O.3   307  SER307     -0.2183
    161  N         26.3820  -32.2580  -97.1520 N.3   311  PHE311     -0.1241
    162  CA        25.0220  -31.8080  -96.8930 C.3   311  PHE311      0.1605
    163  C         24.6570  -30.6800  -97.8540 C.2   311  PHE311      0.2264
    164  O         23.5500  -30.6490  -98.4090 O.2   311  PHE311     -0.2867
    165  CB        24.8560  -31.3450  -95.4460 C.3   311  PHE311      0.0534
    166  CG        23.4800  -30.8370  -95.1350 C.ar  311  PHE311     -0.0203
    167  CD1       22.4080  -31.7170  -95.0440 C.ar  311  PHE311     -0.0042
    168  CD2       23.2510  -29.4880  -94.9420 C.ar  311  PHE311     -0.0042
    169  CE1       21.1360  -31.2620  -94.7630 C.ar  311  PHE311     -0.0003
    170  CE2       21.9790  -29.0230  -94.6610 C.ar  311  PHE311     -0.0003
    171  CZ        20.9200  -29.9120  -94.5710 C.ar  311  PHE311     -0.0000
    172  N         23.8970  -32.0780 -101.1500 N.3   314  GLN314     -0.1245
    173  CA        22.5830  -32.6940 -101.0410 C.3   314  GLN314      0.1566
    174  C         21.4640  -31.6890 -101.2690 C.2   314  GLN314      0.2260
    175  O         20.6230  -31.8690 -102.1560 O.2   314  GLN314     -0.2867
    176  CB        22.4330  -33.3390  -99.6640 C.3   314  GLN314      0.0367
    177  CG        21.0210  -33.7590  -99.2970 C.3   314  GLN314      0.0905
    178  CD        20.9400  -34.3310  -97.8940 C.2   314  GLN314      0.2608
    179  OE1       21.4340  -35.4270  -97.6250 O.2   314  GLN314     -0.2717
    180  NE2       20.3350  -33.5770  -96.9850 N.am  314  GLN314     -0.0878
    181  N         18.7940  -31.4240 -104.3990 N.3   318  ARG318     -0.1245
    182  CA        17.3570  -31.4780 -104.1330 C.3   318  ARG318      0.1563
    183  C         16.6450  -30.2930 -104.7720 C.2   318  ARG318      0.2260
    184  O         15.6560  -30.4540 -105.5030 O.2   318  ARG318     -0.2867
    185  CB        17.0880  -31.4840 -102.6230 C.3   318  ARG318      0.0307
    186  CG        17.4860  -32.7660 -101.9030 C.3   318  ARG318      0.0489
    187  CD        17.2940  -32.6450 -100.3920 C.3   318  ARG318      0.2205
    188  NE        17.5450  -33.9110  -99.7070 N.pl3 318  ARG318     -0.0865
    189  CZ        17.5760  -34.0600  -98.3860 C.cat 318  ARG318      0.5346
    190  NH1       17.3730  -33.0210  -97.5900 N.pl3 318  ARG318      0.1354
    191  NH2       17.8150  -35.2520  -97.8590 N.pl3 318  ARG318      0.1354
@<TRIPOS>BOND
     1    15    14    2
     2   184   183    2
     3    14    13    1
     4   183   182    1
     5   181   182    1
     6   182   185    1
     7    12    13    1
     8    13    16    1
     9   185   186    1
    10    16    17    1
    11   175   174    2
    12   186   187    1
    13     4     3    2
    14   174   173    1
    15    17    18    1
    16   172   173    1
    17   173   176    1
    18     3     2    1
    19   187   188    1
    20    39    38    1
    21     1     2    1
    22     2     5    1
    23    18    19    1
    24    36    35    1
    25    36    37    1
    26    35    34    1
    27   188   189    2
    28   176   177    1
    29   177   178    1
    30    20    19    1
    31    38    37    2
    32    38    40    1
    33    21    22    1
    34    30    31    1
    35     5     6    1
    36    34    31    1
    37   164   163    2
    38   189   191    1
    39   189   190    1
    40    31    32    1
    41     6     7    1
    42     7     8    1
    43   178   179    2
    44   178   180   am
    45   163   162    1
    46    29    27   ar
    47    22    23    1
    48    22    25    1
    49   161   162    1
    50    26    27    1
    51    26    25    1
    52    27    28   ar
    53    32    33    2
    54    32    41   am
    55   162   165    1
    56   152   154   ar
    57   152   150   ar
    58   132   130   ar
    59   132   131   ar
    60     8     9    2
    61    23    24    2
    62   130   128   ar
    63   154   153   ar
    64   150   149   ar
    65    41    42    1
    66   131   129   ar
    67     9    10    1
    68     9    11    1
    69   165   166    1
    70   158   157    2
    71   128   129   ar
    72   128   127    1
    73   166   167   ar
    74   166   168   ar
    75   167   169   ar
    76   153   151   ar
    77   149   151   ar
    78   149   148    1
    79   168   170   ar
    80   124   125    1
    81   124   127    1
    82   124   123    1
    83   169   171   ar
    84   145   146    1
    85   145   148    1
    86   145   144    1
    87   170   171   ar
    88    48    46   am
    89    42    43    1
    90    42    45    1
    91   125   126    2
    92   157   156    1
    93   146   147    2
    94   122   121    1
    95   156   155    1
    96   156   159    1
    97    43    44    2
    98    46    45    1
    99    46    47    2
   100    64    62    1
   101   143   141    1
   102   142   141    1
   103   160   159    1
   104   121   118    1
   105   100   101   ar
   106   100    98   ar
   107    62    61    1
   108   141   140    2
   109   101    99   ar
   110   116   114   am
   111    82    81    1
   112    98    97   ar
   113    63    61    1
   114   120   119    2
   115   113   114    1
   116   113   110    1
   117   136   135    2
   118   117   118    1
   119   117   111   am
   120   118   119    1
   121    61    58    1
   122    81    80    1
   123   114   115    2
   124    99    97   ar
   125    49    50    1
   126   140   139    1
   127    97    96    1
   128    55    54    2
   129    53    50    1
   130    53    54    1
   131    50    51    1
   132   138   139    1
   133   138   137    1
   134   110   111    1
   135   110   109    1
   136    91    90    1
   137   111   112    2
   138   135   134    1
   139   134   137    1
   140   134   133    1
   141    54    56   am
   142    96    93    1
   143    58    57    1
   144    58    59    1
   145    73    72    1
   146    80    79    1
   147    90    89    1
   148    86    85    2
   149    72    71    1
   150    93    94    1
   151    93    92    1
   152    51    52    2
   153   109   104   am
   154    79    78    1
   155    95    94    2
   156   105   104    2
   157    59    60    2
   158    59    65   am
   159    85    92   am
   160    85    84    1
   161   104   103    1
   162    89    88    1
   163    87    84    1
   164    87    88    1
   165    71    70    1
   166    65    66    1
   167   108   106    1
   168    70    69    1
   169    84    83    1
   170    78    75    1
   171    66    69    1
   172    66    67    1
   173   103   106    1
   174   103   102    1
   175   106   107    1
   176    74    75    1
   177    75    76    1
   178    67    68    2
   179    76    77    2
