@<TRIPOS>MOLECULE
tmp/5klqB01.pdb
 188 179 0 0 0
SMALL
GASTEIGER

@<TRIPOS>ATOM
      1  N         40.9870  -30.0640  -99.9840 N.3     2  ARG2       -0.1245
      2  CA        40.4400  -31.4040  -99.7530 C.3     2  ARG2        0.1563
      3  C         40.7750  -32.3250 -100.9350 C.2     2  ARG2        0.2260
      4  O         41.4750  -31.9290 -101.8690 O.2     2  ARG2       -0.2867
      5  CB        38.9140  -31.3600  -99.5370 C.3     2  ARG2        0.0307
      6  CG        38.4130  -30.4920  -98.3730 C.3     2  ARG2        0.0489
      7  CD        37.9270  -29.1270  -98.8550 C.3     2  ARG2        0.2205
      8  NE        37.2220  -28.3620  -97.8240 N.pl3   2  ARG2       -0.0865
      9  CZ        37.7680  -27.3860  -97.0990 C.cat   2  ARG2        0.5346
     10  NH1       39.0410  -27.0440  -97.2750 N.pl3   2  ARG2        0.1354
     11  NH2       37.0390  -26.7480  -96.1920 N.pl3   2  ARG2        0.1354
     12  N         27.0940  -15.1730  -90.0500 N.3   108  HIS108     -0.1241
     13  CA        27.0870  -16.0010  -88.8420 C.3   108  HIS108      0.1621
     14  C         25.6730  -16.3380  -88.3820 C.2   108  HIS108      0.2264
     15  O         25.2370  -15.8320  -87.3470 O.2   108  HIS108     -0.2867
     16  CB        27.8160  -15.3000  -87.6930 C.3   108  HIS108      0.0745
     17  CG        29.2120  -14.8710  -88.0250 C.ar  108  HIS108      0.0817
     18  ND1       29.4890  -13.7310  -88.7470 N.ar  108  HIS108     -0.2268
     19  CD2       30.4110  -15.4270  -87.7260 C.ar  108  HIS108      0.1154
     20  CE1       30.7970  -13.6040  -88.8840 C.ar  108  HIS108      0.1986
     21  NE2       31.3800  -14.6210  -88.2740 N.ar  108  HIS108     -0.2212
     22  N         28.5620  -23.6310  -83.6620 N.3   128  ALA128     -0.1231
     23  CA        29.9470  -23.4240  -83.2810 C.3   128  ALA128      0.1694
     24  C         30.0350  -23.2410  -81.7720 C.2   128  ALA128      0.2591
     25  O         29.7480  -24.1670  -81.0160 O.2   128  ALA128     -0.2718
     26  CB        30.5290  -22.2190  -84.0090 C.3   128  ALA128      0.0304
     27  N         30.4180  -22.0430  -81.3400 N.am  129  VAL129     -0.1980
     28  CA        30.5570  -21.7400  -79.9190 C.3   129  VAL129      0.1595
     29  C         29.8480  -20.4460  -79.5470 C.2   129  VAL129      0.2287
     30  O         29.6860  -19.5570  -80.3830 O.2   129  VAL129     -0.2864
     31  CB        32.0370  -21.6310  -79.5060 C.3   129  VAL129      0.0276
     32  CG1       32.7230  -22.9860  -79.5810 C.3   129  VAL129      0.0022
     33  CG2       32.7530  -20.5980  -80.3650 C.3   129  VAL129      0.0022
     34  N         33.1800  -17.3210  -78.4880 N.3   132  GLY132     -0.1210
     35  CA        33.9020  -16.9800  -79.6960 C.3   132  GLY132      0.1956
     36  C         35.3350  -16.5680  -79.4360 C.2   132  GLY132      0.2611
     37  O         35.8220  -16.6350  -78.3060 O.2   132  GLY132     -0.2717
     38  N         36.0130  -16.1510  -80.5010 N.am  133  ALA133     -0.1979
     39  CA        37.4210  -15.7780  -80.4390 C.3   133  ALA133      0.1597
     40  C         37.6480  -14.4980  -79.6470 C.2   133  ALA133      0.2287
     41  O         38.3710  -14.4940  -78.6490 O.2   133  ALA133     -0.2864
     42  CB        37.9760  -15.6260  -81.8480 C.3   133  ALA133      0.0319
     43  N         30.5780  -13.5140  -80.5880 N.3   137  GLN137     -0.1245
     44  CA        29.3390  -14.2830  -80.5100 C.3   137  GLN137      0.1566
     45  C         28.6440  -14.1350  -79.1730 C.2   137  GLN137      0.2260
     46  O         27.4200  -14.1840  -79.1030 O.2   137  GLN137     -0.2867
     47  CB        29.5870  -15.7610  -80.8020 C.3   137  GLN137      0.0367
     48  CG        29.6280  -16.1080  -82.2710 C.3   137  GLN137      0.0905
     49  CD        28.2490  -16.0260  -82.9050 C.2   137  GLN137      0.2608
     50  OE1       27.6810  -14.9410  -83.0620 O.2   137  GLN137     -0.2717
     51  NE2       27.6890  -17.1810  -83.2460 N.am  137  GLN137     -0.0878
     52  N         30.6310  -27.6320  -85.2210 N.3   166  GLN166     -0.1231
     53  CA        31.2080  -26.8660  -86.3070 C.3   166  GLN166      0.1698
     54  C         32.6080  -26.3790  -85.9430 C.2   166  GLN166      0.2592
     55  O         32.8160  -25.7640  -84.8980 O.2   166  GLN166     -0.2718
     56  CB        30.3080  -25.6810  -86.6510 C.3   166  GLN166      0.0381
     57  CG        30.7350  -24.9170  -87.8810 C.3   166  GLN166      0.0905
     58  CD        30.0270  -23.5950  -87.9940 C.2   166  GLN166      0.2608
     59  OE1       29.1840  -23.2650  -87.1650 O.2   166  GLN166     -0.2717
     60  NE2       30.3530  -22.8310  -89.0270 N.am  166  GLN166     -0.0878
     61  N         33.5660  -26.6540  -86.8180 N.am  167  LYS167     -0.1966
     62  CA        34.9400  -26.2350  -86.6020 C.3   167  LYS167      0.1728
     63  C         35.3090  -25.2110  -87.6580 C.2   167  LYS167      0.2617
     64  O         36.3260  -24.5260  -87.5520 O.2   167  LYS167     -0.2715
     65  CB        35.9030  -27.4250  -86.6580 C.3   167  LYS167      0.0311
     66  CG        36.2990  -28.0020  -85.3070 C.3   167  LYS167      0.0038
     67  CD        35.0940  -28.4130  -84.4840 C.3   167  LYS167      0.0206
     68  CE        35.5060  -28.8460  -83.0850 C.3   167  LYS167      0.1093
     69  NZ        36.1610  -27.7510  -82.3200 N.3   167  LYS167     -0.1314
     70  N         34.4630  -25.1010  -88.6760 N.am  168  THR168     -0.1937
     71  CA        34.7220  -24.1820  -89.7680 C.3   168  THR168      0.2028
     72  C         34.0820  -22.8490  -89.4650 C.2   168  THR168      0.2642
     73  O         33.1890  -22.7610  -88.6300 O.2   168  THR168     -0.2714
     74  CB        34.1620  -24.7150  -91.1040 C.3   168  THR168      0.1808
     75  OG1       34.2250  -26.1480  -91.1260 O.3   168  THR168     -0.2208
     76  CG2       34.9350  -24.1520  -92.2870 C.3   168  THR168      0.0379
     77  N         34.5410  -21.8130  -90.1530 N.am  169  SER169     -0.1949
     78  CA        33.9840  -20.4850  -89.9940 C.3   169  SER169      0.1924
     79  C         33.0530  -20.1860  -91.1540 C.2   169  SER169      0.2314
     80  O         32.4790  -19.1030  -91.2470 O.2   169  SER169     -0.2863
     81  CB        35.1000  -19.4470  -89.9350 C.3   169  SER169      0.2116
     82  OG        34.5780  -18.1690  -89.6350 O.3   169  SER169     -0.2180
     83  N         28.1000  -21.7880  -91.3090 N.3   172  CYS172     -0.1235
     84  CA        27.0750  -21.3920  -90.3450 C.3   172  CYS172      0.1677
     85  C         25.6880  -21.7490  -90.8560 C.2   172  CYS172      0.2270
     86  O         24.8890  -22.3540  -90.1370 O.2   172  CYS172     -0.2867
     87  CB        27.1640  -19.8970  -90.0330 C.3   172  CYS172      0.0956
     88  SG        28.8530  -19.2970  -89.8440 S.3   172  CYS172     -0.0801
     89  N         33.0240  -32.0990  -87.6970 N.3   248  ALA248     -0.1231
     90  CA        34.3020  -32.2110  -88.3860 C.3   248  ALA248      0.1694
     91  C         35.3360  -32.9790  -87.5690 C.2   248  ALA248      0.2593
     92  O         36.0920  -33.7830  -88.1110 O.2   248  ALA248     -0.2718
     93  CB        34.8290  -30.8250  -88.7330 C.3   248  ALA248      0.0304
     94  N         35.3560  -32.7400  -86.2620 N.am  249  SER249     -0.1938
     95  CA        36.3620  -33.3380  -85.3970 C.3   249  SER249      0.2055
     96  C         36.0710  -34.8030  -85.1060 C.2   249  SER249      0.2643
     97  O         35.0350  -35.1430  -84.5380 O.2   249  SER249     -0.2714
     98  CB        36.4640  -32.5570  -84.0880 C.3   249  SER249      0.2130
     99  OG        37.1510  -33.3050  -83.1020 O.3   249  SER249     -0.2179
    100  N         37.0090  -35.6610  -85.4860 N.am  250  LEU250     -0.1963
    101  CA        36.9290  -37.0840  -85.2010 C.3   250  LEU250      0.1728
    102  C         37.2080  -37.3360  -83.7280 C.2   250  LEU250      0.2616
    103  O         36.6370  -38.2440  -83.1250 O.2   250  LEU250     -0.2715
    104  CB        37.9230  -37.8520  -86.0680 C.3   250  LEU250      0.0311
    105  CG        38.0180  -39.3590  -85.8530 C.3   250  LEU250      0.0022
    106  CD1       36.8010  -40.0610  -86.4260 C.3   250  LEU250      0.0001
    107  CD2       39.3040  -39.8990  -86.4550 C.3   250  LEU250      0.0001
    108  N         38.0770  -36.5130  -83.1480 N.am  251  THR251     -0.1951
    109  CA        38.3740  -36.5940  -81.7250 C.3   251  THR251      0.1897
    110  C         37.0970  -36.4180  -80.9340 C.2   251  THR251      0.2313
    111  O         36.8270  -37.1360  -79.9650 O.2   251  THR251     -0.2863
    112  CB        39.3670  -35.5080  -81.2880 C.3   251  THR251      0.1794
    113  OG1       40.3320  -35.2870  -82.3230 O.3   251  THR251     -0.2208
    114  CG2       40.0670  -35.9060  -79.9990 C.3   251  THR251      0.0378
    115  N         36.3460  -38.4110  -94.0150 N.3   287  ARG287     -0.1245
    116  CA        37.5880  -37.8080  -93.5420 C.3   287  ARG287      0.1563
    117  C         38.4490  -37.3250  -94.6990 C.2   287  ARG287      0.2260
    118  O         38.9220  -38.1200  -95.5070 O.2   287  ARG287     -0.2867
    119  CB        38.3700  -38.7960  -92.6850 C.3   287  ARG287      0.0307
    120  CG        39.6110  -38.2080  -92.0470 C.3   287  ARG287      0.0489
    121  CD        39.6440  -38.5010  -90.5620 C.3   287  ARG287      0.2205
    122  NE        39.1610  -37.3670  -89.7850 N.pl3 287  ARG287     -0.0865
    123  CZ        39.8830  -36.7440  -88.8630 C.cat 287  ARG287      0.5346
    124  NH1       41.1130  -37.1580  -88.5930 N.pl3 287  ARG287      0.1354
    125  NH2       39.3740  -35.7130  -88.2050 N.pl3 287  ARG287      0.1354
    126  N         42.6300  -30.7660  -95.0540 N.3   290  ARG290     -0.1231
    127  CA        42.2020  -29.3770  -94.9570 C.3   290  ARG290      0.1694
    128  C         42.9350  -28.4450  -95.9100 C.2   290  ARG290      0.2591
    129  O         43.9120  -28.8250  -96.5550 O.2   290  ARG290     -0.2718
    130  CB        42.4090  -28.8540  -93.5340 C.3   290  ARG290      0.0321
    131  CG        41.3990  -29.3230  -92.5230 C.3   290  ARG290      0.0489
    132  CD        41.4350  -28.4290  -91.3080 C.3   290  ARG290      0.2205
    133  NE        42.3640  -28.9090  -90.2950 N.pl3 290  ARG290     -0.0865
    134  CZ        42.9360  -28.1280  -89.3860 C.cat 290  ARG290      0.5346
    135  NH1       42.6860  -26.8260  -89.3790 N.pl3 290  ARG290      0.1354
    136  NH2       43.7680  -28.6440  -88.4910 N.pl3 290  ARG290      0.1354
    137  N         42.4350  -27.2180  -95.9920 N.am  291  ARG291     -0.1980
    138  CA        43.1980  -26.0820  -96.4940 C.3   291  ARG291      0.1597
    139  C         43.2520  -25.0760  -95.3500 C.2   291  ARG291      0.2287
    140  O         42.2630  -24.9540  -94.6270 O.2   291  ARG291     -0.2864
    141  CB        42.5390  -25.4830  -97.7300 C.3   291  ARG291      0.0334
    142  CG        41.1220  -24.9600  -97.5760 C.3   291  ARG291      0.0492
    143  CD        40.6310  -24.4750  -98.9340 C.3   291  ARG291      0.2205
    144  NE        39.7510  -23.3270  -98.8060 N.pl3 291  ARG291     -0.0865
    145  CZ        40.0030  -22.1180  -99.2960 C.cat 291  ARG291      0.5346
    146  NH1       41.1120  -21.8700  -99.9730 N.pl3 291  ARG291      0.1354
    147  NH2       39.1570  -21.1360  -99.0510 N.pl3 291  ARG291      0.1354
    148  N         48.3790  -29.2290  -86.2070 N.3   299  PRO299     -0.2102
    149  CA        48.3180  -30.5380  -85.5440 C.3   299  PRO299      0.1504
    150  C         46.9530  -31.2190  -85.5580 C.2   299  PRO299      0.2576
    151  O         45.9300  -30.5830  -85.8300 O.2   299  PRO299     -0.2718
    152  CB        48.7160  -30.2120  -84.1010 C.3   299  PRO299      0.0282
    153  CG        48.2830  -28.8160  -83.9070 C.3   299  PRO299      0.0208
    154  CD        48.4770  -28.1290  -85.2270 C.3   299  PRO299      0.0893
    155  N         46.9930  -32.5370  -85.3470 N.am  300  SER300     -0.1938
    156  CA        45.8380  -33.4520  -85.2070 C.3   300  SER300      0.2055
    157  C         45.0190  -33.9820  -86.4210 C.2   300  SER300      0.2643
    158  O         44.0450  -34.6950  -86.1710 O.2   300  SER300     -0.2714
    159  CB        44.8110  -32.8420  -84.2280 C.3   300  SER300      0.2130
    160  OG        44.2530  -31.6340  -84.7090 O.3   300  SER300     -0.2179
    161  N         45.3370  -33.7120  -87.6950 N.am  301  ASN301     -0.1971
    162  CA        46.4430  -32.9050  -88.2000 C.3   301  ASN301      0.1688
    163  C         45.9470  -32.0280  -89.3390 C.2   301  ASN301      0.2292
    164  O         45.4840  -30.9080  -89.1200 O.2   301  ASN301     -0.2864
    165  CB        47.5930  -33.7870  -88.6630 C.3   301  ASN301      0.1181
    166  CG        48.8670  -33.0140  -88.9310 C.2   301  ASN301      0.2629
    167  OD1       49.2850  -32.8620  -90.0890 O.2   301  ASN301     -0.2716
    168  ND2       49.5290  -32.5730  -87.8670 N.am  301  ASN301     -0.0877
    169  N         43.6240  -33.3650  -91.4430 N.3   303  GLN303     -0.1231
    170  CA        42.3100  -33.8970  -91.7840 C.3   303  GLN303      0.1698
    171  C         41.1600  -33.4500  -90.8770 C.2   303  GLN303      0.2592
    172  O         41.3730  -32.9660  -89.7700 O.2   303  GLN303     -0.2718
    173  CB        42.3670  -35.4190  -91.8070 C.3   303  GLN303      0.0381
    174  CG        43.1070  -35.9760  -92.9990 C.3   303  GLN303      0.0905
    175  CD        43.4350  -37.4360  -92.8210 C.2   303  GLN303      0.2608
    176  OE1       43.2350  -38.0010  -91.7430 O.2   303  GLN303     -0.2717
    177  NE2       43.9410  -38.0630  -93.8770 N.am  303  GLN303     -0.0878
    178  N         39.9420  -33.6730  -91.3610 N.am  304  PHE304     -0.1976
    179  CA        38.7090  -33.3250  -90.6680 C.3   304  PHE304      0.1639
    180  C         37.5500  -34.0090  -91.3870 C.2   304  PHE304      0.2290
    181  O         37.7620  -34.6850  -92.3870 O.2   304  PHE304     -0.2864
    182  CB        38.5100  -31.8080  -90.6390 C.3   304  PHE304      0.0560
    183  CG        37.9820  -31.2400  -91.9290 C.ar  304  PHE304     -0.0200
    184  CD1       38.7250  -31.3160  -93.0920 C.ar  304  PHE304     -0.0042
    185  CD2       36.7490  -30.6260  -91.9780 C.ar  304  PHE304     -0.0042
    186  CE1       38.2470  -30.7940  -94.2790 C.ar  304  PHE304     -0.0003
    187  CE2       36.2680  -30.1060  -93.1640 C.ar  304  PHE304     -0.0003
    188  CZ        37.0210  -30.1910  -94.3140 C.ar  304  PHE304     -0.0000
@<TRIPOS>BOND
     1     4     3    2
     2     3     2    1
     3     1     2    1
     4   146   145    1
     5     2     5    1
     6     5     6    1
     7   145   147    1
     8   145   144    2
     9   143   144    1
    10   143   142    1
    11     7     6    1
    12     7     8    1
    13     8     9    2
    14   141   142    1
    15   141   138    1
    16    10     9    1
    17     9    11    1
    18   129   128    2
    19   138   137    1
    20   138   139    1
    21   137   128   am
    22   128   127    1
    23   118   117    2
    24   139   140    2
    25   126   127    1
    26   127   130    1
    27   117   116    1
    28   188   186   ar
    29   188   187   ar
    30   186   184   ar
    31   115   116    1
    32   177   175   am
    33   116   119    1
    34   130   131    1
    35   187   185   ar
    36   184   183   ar
    37   174   175    1
    38   174   173    1
    39   175   176    2
    40   119   120    1
    41   131   132    1
    42   181   180    2
    43    76    74    1
    44   120   121    1
    45   185   183   ar
    46   183   182    1
    47   173   170    1
    48   170   169    1
    49   170   171    1
    50   180   179    1
    51   178   171   am
    52   178   179    1
    53    83    84    1
    54   132   133    1
    55    80    79    2
    56    79    78    1
    57    75    74    1
    58    74    71    1
    59   171   172    2
    60    85    84    1
    61    85    86    2
    62   179   182    1
    63   121   122    1
    64    84    87    1
    65   133   134    2
    66    77    78    1
    67    77    72   am
    68   167   166    2
    69    12    13    1
    70    87    88    1
    71    78    81    1
    72    81    82    1
    73   122   123    2
    74    71    72    1
    75    71    70    1
    76    72    73    2
    77   134   135    1
    78   134   136    1
    79   163   164    2
    80   163   162    1
    81    60    58   am
    82   166   165    1
    83   166   168   am
    84    20    18   ar
    85    20    21   ar
    86   123   124    1
    87   123   125    1
    88    13    14    1
    89    13    16    1
    90    18    17   ar
    91    93    90    1
    92    70    63   am
    93   165   162    1
    94    90    89    1
    95    90    91    1
    96    14    15    2
    97    21    19   ar
    98   162   161    1
    99    92    91    2
   100    17    19   ar
   101    17    16    1
   102    58    57    1
   103    58    59    2
   104    57    56    1
   105   161   157   am
   106    63    64    2
   107    63    62    1
   108    91    94   am
   109    61    62    1
   110    61    54   am
   111    65    62    1
   112    65    66    1
   113    56    53    1
   114   107   105    1
   115   106   105    1
   116   157   158    2
   117   157   156    1
   118    53    54    1
   119    53    52    1
   120    94    95    1
   121   148   149    1
   122   148   154    1
   123   104   105    1
   124   104   101    1
   125    54    55    2
   126   151   150    2
   127   150   149    1
   128   150   155   am
   129   149   152    1
   130   100   101    1
   131   100    96   am
   132    95    96    1
   133    95    98    1
   134   155   156    1
   135    66    67    1
   136   154   153    1
   137   156   159    1
   138   101   102    1
   139    96    97    2
   140   160   159    1
   141    67    68    1
   142   152   153    1
   143    98    99    1
   144    26    23    1
   145   102   108   am
   146   102   103    2
   147    22    23    1
   148    23    24    1
   149    51    49   am
   150   108   109    1
   151    68    69    1
   152    50    49    2
   153    49    48    1
   154   113   112    1
   155    48    47    1
   156    42    39    1
   157    24    27   am
   158    24    25    2
   159   109   112    1
   160   109   110    1
   161    27    28    1
   162   112   114    1
   163   110   111    2
   164    47    44    1
   165    43    44    1
   166    44    45    1
   167    38    39    1
   168    38    36   am
   169    39    40    1
   170    30    29    2
   171    33    31    1
   172    28    29    1
   173    28    31    1
   174    35    36    1
   175    35    34    1
   176    40    41    2
   177    32    31    1
   178    36    37    2
   179    45    46    2
