@<TRIPOS>MOLECULE
tmp/5klqC01.pdb
 120 116 0 0 0
SMALL
GASTEIGER

@<TRIPOS>ATOM
      1  N         39.8980  -75.9220  -65.6700 N.3   160  GLN160     -0.1245
      2  CA        41.3070  -75.5340  -65.5660 C.3   160  GLN160      0.1566
      3  C         41.5970  -74.1750  -66.2050 C.2   160  GLN160      0.2260
      4  O         42.7290  -73.8890  -66.5930 O.2   160  GLN160     -0.2867
      5  CB        42.2120  -76.5970  -66.1950 C.3   160  GLN160      0.0367
      6  CG        42.0670  -77.9820  -65.6010 C.3   160  GLN160      0.0905
      7  CD        43.0840  -78.9530  -66.1570 C.2   160  GLN160      0.2608
      8  OE1       42.7290  -79.9530  -66.7740 O.2   160  GLN160     -0.2717
      9  NE2       44.3600  -78.6630  -65.9380 N.am  160  GLN160     -0.0878
     10  N         44.1790  -70.1320  -63.1780 N.3   163  LYS163     -0.1231
     11  CA        45.5740  -70.4180  -62.8820 C.3   163  LYS163      0.1693
     12  C         46.0270  -69.7280  -61.5950 C.2   163  LYS163      0.2593
     13  O         47.1000  -70.0170  -61.0620 O.2   163  LYS163     -0.2718
     14  CB        46.4560  -69.9970  -64.0550 C.3   163  LYS163      0.0285
     15  CG        46.8620  -71.1300  -64.9810 C.3   163  LYS163      0.0035
     16  CD        45.6900  -71.9180  -65.5290 C.3   163  LYS163      0.0206
     17  CE        46.1950  -73.1200  -66.3180 C.3   163  LYS163      0.1093
     18  NZ        45.1210  -74.0600  -66.7350 N.3   163  LYS163     -0.1314
     19  N         45.2180  -68.7930  -61.1140 N.am  164  THR164     -0.1939
     20  CA        45.5210  -68.0920  -59.8740 C.3   164  THR164      0.2028
     21  C         44.8290  -68.7940  -58.7120 C.2   164  THR164      0.2642
     22  O         43.9450  -69.6270  -58.9150 O.2   164  THR164     -0.2714
     23  CB        45.0870  -66.6150  -59.9160 C.3   164  THR164      0.1808
     24  OG1       43.6760  -66.5340  -60.1410 O.3   164  THR164     -0.2208
     25  CG2       45.8090  -65.8790  -61.0230 C.3   164  THR164      0.0379
     26  N         45.2470  -68.4670  -57.4960 N.am  165  SER165     -0.1949
     27  CA        44.6480  -69.0490  -56.3060 C.3   165  SER165      0.1924
     28  C         43.6570  -68.0640  -55.7020 C.2   165  SER165      0.2314
     29  O         43.0660  -68.3220  -54.6550 O.2   165  SER165     -0.2863
     30  CB        45.7340  -69.4160  -55.2900 C.3   165  SER165      0.2116
     31  OG        45.2060  -70.1320  -54.1890 O.3   165  SER165     -0.2180
     32  N         44.0260  -67.8440  -68.1060 N.3   244  ALA244     -0.1231
     33  CA        45.2980  -67.1370  -68.0010 C.3   244  ALA244      0.1694
     34  C         46.3070  -67.6650  -69.0110 C.2   244  ALA244      0.2593
     35  O         47.0940  -66.9030  -69.5780 O.2   244  ALA244     -0.2718
     36  CB        45.8580  -67.2540  -66.5890 C.3   244  ALA244      0.0304
     37  N         46.2820  -68.9750  -69.2250 N.am  245  SER245     -0.1938
     38  CA        47.2470  -69.6240  -70.1000 C.3   245  SER245      0.2055
     39  C         46.9510  -69.3880  -71.5710 C.2   245  SER245      0.2643
     40  O         45.8760  -69.7340  -72.0610 O.2   245  SER245     -0.2714
     41  CB        47.2860  -71.1220  -69.8250 C.3   245  SER245      0.2130
     42  OG        47.9210  -71.8000  -70.8920 O.3   245  SER245     -0.2179
     43  N         47.9130  -68.8010  -72.2730 N.am  246  LEU246     -0.1963
     44  CA        47.7920  -68.6040  -73.7090 C.3   246  LEU246      0.1728
     45  C         47.9850  -69.9400  -74.4140 C.2   246  LEU246      0.2616
     46  O         47.3640  -70.2220  -75.4470 O.2   246  LEU246     -0.2715
     47  CB        48.8150  -67.5780  -74.1910 C.3   246  LEU246      0.0311
     48  CG        48.8440  -67.2920  -75.6880 C.3   246  LEU246      0.0022
     49  CD1       47.6140  -66.4960  -76.0710 C.3   246  LEU246      0.0001
     50  CD2       50.1040  -66.5320  -76.0580 C.3   246  LEU246      0.0001
     51  N         48.8510  -70.7630  -73.8300 N.am  247  THR247     -0.1951
     52  CA        49.0840  -72.1160  -74.3170 C.3   247  THR247      0.1897
     53  C         47.7950  -72.9260  -74.2720 C.2   247  THR247      0.2313
     54  O         47.5180  -73.7140  -75.1750 O.2   247  THR247     -0.2863
     55  CB        50.1750  -72.8380  -73.5010 C.3   247  THR247      0.1794
     56  OG1       49.8370  -72.8070  -72.1120 O.3   247  THR247     -0.2208
     57  CG2       51.5250  -72.1670  -73.7020 C.3   247  THR247      0.0378
     58  N         53.1690  -60.9180  -64.3230 N.3   286  ARG286     -0.1231
     59  CA        52.7380  -61.3110  -62.9790 C.3   286  ARG286      0.1694
     60  C         53.8320  -62.2260  -62.4230 C.2   286  ARG286      0.2591
     61  O         54.7120  -62.6290  -63.1810 O.2   286  ARG286     -0.2718
     62  CB        51.3780  -62.0320  -63.0100 C.3   286  ARG286      0.0321
     63  CG        51.4260  -63.5680  -63.1290 C.3   286  ARG286      0.0489
     64  CD        52.0580  -64.0930  -64.4110 C.3   286  ARG286      0.2205
     65  NE        52.0860  -65.5540  -64.4550 N.pl3 286  ARG286     -0.0865
     66  CZ        52.8790  -66.3170  -63.7070 C.cat 286  ARG286      0.5346
     67  NH1       52.8310  -67.6380  -63.8210 N.pl3 286  ARG286      0.1354
     68  NH2       53.7150  -65.7650  -62.8400 N.pl3 286  ARG286      0.1354
     69  N         53.8170  -62.5620  -61.1330 N.am  287  ARG287     -0.1980
     70  CA        52.9990  -61.9250  -60.1090 C.3   287  ARG287      0.1597
     71  C         53.8860  -61.2960  -59.0320 C.2   287  ARG287      0.2287
     72  O         53.8670  -60.0820  -58.8370 O.2   287  ARG287     -0.2864
     73  CB        52.0140  -62.9380  -59.5030 C.3   287  ARG287      0.0334
     74  CG        52.6190  -64.3040  -59.1770 C.3   287  ARG287      0.0492
     75  CD        51.6660  -65.2060  -58.3970 C.3   287  ARG287      0.2205
     76  NE        50.2540  -64.9560  -58.6680 N.pl3 287  ARG287     -0.0865
     77  CZ        49.2620  -65.5890  -58.0490 C.cat 287  ARG287      0.5346
     78  NH1       49.5360  -66.4990  -57.1220 N.pl3 287  ARG287      0.1354
     79  NH2       47.9980  -65.3060  -58.3430 N.pl3 287  ARG287      0.1354
     80  N         58.2680  -69.8760  -64.0930 N.3   295  PRO295     -0.2102
     81  CA        57.1520  -70.4970  -64.8230 C.3   295  PRO295      0.1504
     82  C         56.7250  -69.9180  -66.1700 C.2   295  PRO295      0.2576
     83  O         55.9070  -68.9890  -66.2060 O.2   295  PRO295     -0.2718
     84  CB        56.0000  -70.3580  -63.8300 C.3   295  PRO295      0.0282
     85  CG        56.6750  -70.4460  -62.4730 C.3   295  PRO295      0.0208
     86  CD        58.1770  -70.3170  -62.6880 C.3   295  PRO295      0.0893
     87  N         57.3100  -70.4540  -67.2410 N.am  296  SER296     -0.1938
     88  CA        56.9530  -70.1170  -68.6200 C.3   296  SER296      0.2055
     89  C         57.4960  -68.7570  -69.0130 C.2   296  SER296      0.2643
     90  O         58.4580  -68.6370  -69.7710 O.2   296  SER296     -0.2714
     91  CB        55.4320  -70.1620  -68.8350 C.3   296  SER296      0.2130
     92  OG        54.9340  -71.4790  -68.6810 O.3   296  SER296     -0.2179
     93  N         56.8450  -67.7350  -68.4780 N.am  297  ASN297     -0.1971
     94  CA        57.1420  -66.3480  -68.7730 C.3   297  ASN297      0.1688
     95  C         56.3280  -65.5360  -67.7940 C.2   297  ASN297      0.2292
     96  O         55.2310  -65.9450  -67.4100 O.2   297  ASN297     -0.2864
     97  CB        56.8230  -65.9800  -70.2210 C.3   297  ASN297      0.1181
     98  CG        57.9840  -65.2810  -70.9090 C.2   297  ASN297      0.2629
     99  OD1       57.9870  -64.0590  -71.0610 O.2   297  ASN297     -0.2716
    100  ND2       58.9850  -66.0560  -71.3120 N.am  297  ASN297     -0.0877
    101  N         54.3350  -63.4400  -67.9320 N.3   299  GLN299     -0.1231
    102  CA        53.0100  -63.0120  -68.3760 C.3   299  GLN299      0.1698
    103  C         51.8880  -64.0500  -68.2320 C.2   299  GLN299      0.2592
    104  O         52.1400  -65.2350  -68.0170 O.2   299  GLN299     -0.2718
    105  CB        53.0860  -62.5690  -69.8320 C.3   299  GLN299      0.0381
    106  CG        53.7670  -61.2410  -70.0390 C.3   299  GLN299      0.0905
    107  CD        54.1430  -61.0260  -71.4820 C.2   299  GLN299      0.2608
    108  OE1       54.0390  -61.9420  -72.2980 O.2   299  GLN299     -0.2717
    109  NE2       54.5680  -59.8130  -71.8140 N.am  299  GLN299     -0.0878
    110  N         50.6500  -63.5700  -68.3680 N.am  300  PHE300     -0.1976
    111  CA        49.4310  -64.3830  -68.3050 C.3   300  PHE300      0.1639
    112  C         48.2720  -63.5180  -68.8150 C.2   300  PHE300      0.2290
    113  O         48.4910  -62.3760  -69.2150 O.2   300  PHE300     -0.2864
    114  CB        49.1480  -64.8840  -66.8830 C.3   300  PHE300      0.0560
    115  CG        48.4580  -63.8760  -66.0000 C.ar  300  PHE300     -0.0200
    116  CD1       49.0730  -62.6800  -65.6610 C.ar  300  PHE300     -0.0042
    117  CD2       47.1960  -64.1410  -65.4930 C.ar  300  PHE300     -0.0042
    118  CE1       48.4350  -61.7610  -64.8470 C.ar  300  PHE300     -0.0003
    119  CE2       46.5540  -63.2280  -64.6780 C.ar  300  PHE300     -0.0003
    120  CZ        47.1750  -62.0370  -64.3550 C.ar  300  PHE300     -0.0000
@<TRIPOS>BOND
     1    49    48    1
     2    50    48    1
     3    48    47    1
     4    46    45    2
     5    54    53    2
     6    45    51   am
     7    45    44    1
     8    52    53    1
     9    52    51    1
    10    52    55    1
    11    47    44    1
    12    44    43    1
    13    57    55    1
    14    55    56    1
    15   108   107    2
    16    43    39   am
    17    40    39    2
    18   109   107   am
    19    39    38    1
    20   107   106    1
    21   100    98   am
    22    99    98    2
    23    98    97    1
    24    42    41    1
    25    97    94    1
    26    38    41    1
    27    38    37    1
    28   106   105    1
    29   105   102    1
    30    90    89    2
    31    35    34    2
    32    37    34   am
    33   113   112    2
    34    89    88    1
    35    89    93   am
    36    34    33    1
    37    91    92    1
    38    91    88    1
    39   112   111    1
    40    94    93    1
    41    94    95    1
    42    88    87    1
    43   102   103    1
    44   102   101    1
    45   110   111    1
    46   110   103   am
    47   111   114    1
    48   103   104    2
    49    32    33    1
    50    33    36    1
    51    95    96    2
    52    87    82   am
    53   114   115    1
    54     8     7    2
    55    18    17    1
    56     4     3    2
    57    17    16    1
    58    83    82    2
    59     3     2    1
    60     5     6    1
    61     5     2    1
    62    82    81    1
    63     7     9   am
    64     7     6    1
    65   115   116   ar
    66   115   117   ar
    67     1     2    1
    68   116   118   ar
    69    16    15    1
    70   117   119   ar
    71    15    14    1
    72   118   120   ar
    73    81    80    1
    74    81    84    1
    75   119   120   ar
    76    65    64    1
    77    65    66    2
    78    64    63    1
    79    58    59    1
    80    80    86    1
    81    14    11    1
    82    84    85    1
    83    67    66    1
    84    66    68    1
    85    61    60    2
    86    10    11    1
    87    63    62    1
    88    62    59    1
    89    59    60    1
    90    11    12    1
    91    86    85    1
    92    60    69   am
    93    12    19   am
    94    12    13    2
    95    69    70    1
    96    19    20    1
    97    25    23    1
    98    24    23    1
    99    70    73    1
   100    70    71    1
   101    23    20    1
   102    20    21    1
   103    73    74    1
   104    74    75    1
   105    71    72    2
   106    22    21    2
   107    21    26   am
   108    76    75    1
   109    76    77    2
   110    79    77    1
   111    77    78    1
   112    26    27    1
   113    27    28    1
   114    27    30    1
   115    28    29    2
   116    30    31    1
