@<TRIPOS>MOLECULE
tmp/5kluB02.pdb
 130 127 0 0 0
SMALL
GASTEIGER

@<TRIPOS>ATOM
      1  N        -15.0940    6.1660  -39.9290 N.3    43  SER43      -0.1202
      2  CA       -14.2360    5.9110  -38.7820 C.3    43  SER43       0.2020
      3  C        -13.8590    4.4350  -38.6950 C.2    43  SER43       0.2619
      4  O        -14.6430    3.5460  -39.0380 O.2    43  SER43      -0.2717
      5  CB       -14.9270    6.3530  -37.4920 C.3    43  SER43       0.2103
      6  OG       -16.2860    5.9510  -37.4770 O.3    43  SER43      -0.2182
      7  N        -12.6440    4.1820  -38.2140 N.am   44  GLY44      -0.1956
      8  CA       -12.1320    2.8240  -38.1610 C.3    44  GLY44       0.1869
      9  C        -11.9320    2.2000  -39.5230 C.2    44  GLY44       0.2309
     10  O        -12.0100    0.9720  -39.6540 O.2    44  GLY44      -0.2863
     11  N         -8.6130   -2.5880  -36.8790 N.3    51  TYR51      -0.1227
     12  CA        -8.7200   -2.0130  -35.5530 C.3    51  TYR51       0.1736
     13  C         -9.1110   -3.0780  -34.5330 C.2    51  TYR51       0.2596
     14  O         -9.3240   -4.2480  -34.8620 O.2    51  TYR51      -0.2718
     15  CB        -9.7400   -0.8740  -35.5590 C.3    51  TYR51       0.0548
     16  CG        -9.3800    0.2950  -36.4500 C.ar   51  TYR51      -0.0200
     17  CD1       -9.2880    0.1480  -37.8320 C.ar   51  TYR51      -0.0009
     18  CD2       -9.1470    1.5480  -35.9110 C.ar   51  TYR51      -0.0009
     19  CE1       -8.9590    1.2080  -38.6400 C.ar   51  TYR51       0.0417
     20  CE2       -8.8200    2.6140  -36.7130 C.ar   51  TYR51       0.0417
     21  CZ        -8.7300    2.4410  -38.0760 C.ar   51  TYR51       0.1957
     22  OH        -8.4080    3.5080  -38.8750 O.3    51  TYR51      -0.2866
     23  N         -9.1940   -2.6620  -33.2710 N.am   52  THR52      -0.1953
     24  CA        -9.8840   -3.4580  -32.2730 C.3    52  THR52       0.1897
     25  C        -11.3690   -3.5120  -32.6100 C.2    52  THR52       0.2313
     26  O        -11.8990   -2.6610  -33.3280 O.2    52  THR52      -0.2863
     27  CB        -9.7000   -2.8690  -30.8700 C.3    52  THR52       0.1794
     28  OG1      -10.3210   -1.5790  -30.8090 O.3    52  THR52      -0.2208
     29  CG2       -8.2270   -2.7260  -30.5210 C.3    52  THR52       0.0378
     30  N        -13.7330   -2.6230  -31.0850 N.3    54  ALA54      -0.1231
     31  CA       -14.5150   -1.5240  -30.5310 C.3    54  ALA54       0.1694
     32  C        -15.1270   -0.6650  -31.6290 C.2    54  ALA54       0.2592
     33  O        -16.2070   -0.0950  -31.4380 O.2    54  ALA54      -0.2718
     34  CB       -13.6450   -0.6600  -29.6150 C.3    54  ALA54       0.0304
     35  N        -14.4580   -0.5730  -32.7830 N.am   55  ASN55      -0.1974
     36  CA       -14.9990    0.1590  -33.9220 C.3    55  ASN55       0.1688
     37  C        -16.3640   -0.3680  -34.3510 C.2    55  ASN55       0.2292
     38  O        -17.0920    0.3290  -35.0630 O.2    55  ASN55      -0.2864
     39  CB       -14.0110    0.0870  -35.0930 C.3    55  ASN55       0.1181
     40  CG       -14.4770    0.8670  -36.3080 C.2    55  ASN55       0.2629
     41  OD1      -15.0380    1.9540  -36.1810 O.2    55  ASN55      -0.2716
     42  ND2      -14.2470    0.3130  -37.4940 N.am   55  ASN55      -0.0877
     43  N        -19.3840    1.3440  -31.6140 N.3    58  LYS58      -0.1231
     44  CA       -19.5530    2.7730  -31.8600 C.3    58  LYS58       0.1693
     45  C        -18.7950    3.1340  -33.1300 C.2    58  LYS58       0.2592
     46  O        -17.5610    3.0660  -33.1610 O.2    58  LYS58      -0.2718
     47  CB       -19.0520    3.5930  -30.6720 C.3    58  LYS58       0.0285
     48  CG       -19.9390    3.5370  -29.4380 C.3    58  LYS58       0.0035
     49  CD       -21.1810    4.3980  -29.6080 C.3    58  LYS58       0.0206
     50  CE       -21.8700    4.6310  -28.2710 C.3    58  LYS58       0.1093
     51  NZ       -22.5840    5.9390  -28.2200 N.3    58  LYS58      -0.1314
     52  N        -19.5250    3.5180  -34.1770 N.am   59  ASN59      -0.1960
     53  CA       -18.8650    3.9710  -35.3930 C.3    59  ASN59       0.1819
     54  C        -19.7740    4.8910  -36.1980 C.2    59  ASN59       0.2621
     55  O        -20.4500    4.4580  -37.1380 O.2    59  ASN59      -0.2715
     56  CB       -18.4130    2.7710  -36.2350 C.3    59  ASN59       0.1195
     57  CG       -17.6870    3.1790  -37.5050 C.2    59  ASN59       0.2630
     58  OD1      -18.3000    3.5880  -38.4840 O.2    59  ASN59      -0.2716
     59  ND2      -16.3620    3.0900  -37.4810 N.am   59  ASN59      -0.0877
     60  N        -19.8190    6.1580  -35.8030 N.am   60  VAL60      -0.1977
     61  CA       -20.3070    7.2450  -36.6410 C.3    60  VAL60       0.1596
     62  C        -19.1270    8.1720  -36.8780 C.2    60  VAL60       0.2287
     63  O        -18.3940    8.5010  -35.9370 O.2    60  VAL60      -0.2864
     64  CB       -21.4890    7.9940  -35.9970 C.3    60  VAL60       0.0276
     65  CG1      -21.6410    9.3830  -36.6020 C.3    60  VAL60       0.0022
     66  CG2      -22.7770    7.2040  -36.1810 C.3    60  VAL60       0.0022
     67  N        -16.3900   10.9890  -37.4110 N.3    62  TRP62      -0.1241
     68  CA       -16.1160   12.1600  -36.5960 C.3    62  TRP62       0.1605
     69  C        -16.4530   13.4450  -37.3440 C.2    62  TRP62       0.2264
     70  O        -16.5170   13.4880  -38.5760 O.2    62  TRP62      -0.2867
     71  CB       -14.6450   12.1850  -36.1810 C.3    62  TRP62       0.0550
     72  CG       -14.0240   10.8300  -36.0900 C.ar   62  TRP62       0.0003
     73  CD1      -13.4220   10.1350  -37.0980 C.ar   62  TRP62       0.0946
     74  CD2      -13.9410   10.0040  -34.9270 C.ar   62  TRP62       0.0152
     75  NE1      -12.9720    8.9250  -36.6350 N.ar   62  TRP62      -0.2442
     76  CE2      -13.2770    8.8200  -35.3030 C.ar   62  TRP62       0.0810
     77  CE3      -14.3630   10.1480  -33.6030 C.ar   62  TRP62       0.0012
     78  CZ2      -13.0270    7.7900  -34.4040 C.ar   62  TRP62       0.0191
     79  CZ3      -14.1130    9.1300  -32.7150 C.ar   62  TRP62       0.0001
     80  CH2      -13.4500    7.9650  -33.1170 C.ar   62  TRP62       0.0015
     81  N        -18.4330   15.9820  -32.2520 N.3    66  ASN66      -0.1240
     82  CA       -18.5400   14.7070  -31.5480 C.3    66  ASN66       0.1653
     83  C        -17.2040   13.9840  -31.4270 C.2    66  ASN66       0.2266
     84  O        -17.0940   13.0500  -30.6260 O.2    66  ASN66      -0.2867
     85  CB       -19.5680   13.7970  -32.2290 C.3    66  ASN66       0.1155
     86  CG       -18.9620   12.8990  -33.2770 C.2    66  ASN66       0.2627
     87  OD1      -18.2280   13.3480  -34.1450 O.2    66  ASN66      -0.2716
     88  ND2      -19.2690   11.6140  -33.1980 N.am   66  ASN66      -0.0877
     89  N        -15.4490   14.9170  -28.0600 N.3    69  GLU69      -0.1231
     90  CA       -15.8370   14.0110  -26.9880 C.3    69  GLU69       0.1699
     91  C        -14.9250   12.7900  -26.9440 C.2    69  GLU69       0.2592
     92  O        -14.6340   12.2640  -25.8640 O.2    69  GLU69      -0.2718
     93  CB       -17.2930   13.5890  -27.1660 C.3    69  GLU69       0.0402
     94  CG       -18.0720   13.5120  -25.8690 C.3    69  GLU69       0.1161
     95  CD       -19.3090   12.6480  -25.9890 C.2    69  GLU69       0.3649
     96  OE1      -19.2740   11.4950  -25.5080 O.co2  69  GLU69      -0.2457
     97  OE2      -20.3100   13.1210  -26.5680 O.co2  69  GLU69      -0.2457
     98  N        -14.4650   12.3220  -28.1090 N.am   70  TYR70      -0.1976
     99  CA       -13.5790   11.1610  -28.1310 C.3    70  TYR70       0.1639
    100  C        -12.2230   11.4790  -27.5160 C.2    70  TYR70       0.2290
    101  O        -11.6140   10.6040  -26.8960 O.2    70  TYR70      -0.2864
    102  CB       -13.4080   10.6440  -29.5630 C.3    70  TYR70       0.0560
    103  CG       -12.3940    9.5250  -29.7100 C.ar   70  TYR70      -0.0198
    104  CD1      -12.6060    8.2870  -29.1200 C.ar   70  TYR70      -0.0009
    105  CD2      -11.2310    9.7070  -30.4490 C.ar   70  TYR70      -0.0009
    106  CE1      -11.6830    7.2620  -29.2550 C.ar   70  TYR70       0.0417
    107  CE2      -10.3050    8.6910  -30.5910 C.ar   70  TYR70       0.0417
    108  CZ       -10.5370    7.4710  -29.9920 C.ar   70  TYR70       0.1957
    109  OH        -9.6230    6.4530  -30.1290 O.3    70  TYR70      -0.2866
    110  N        -11.5770    5.0690  -22.9370 N.3    76  LYS76      -0.1231
    111  CA       -12.8450    4.4200  -22.6250 C.3    76  LYS76       0.1693
    112  C        -13.2340    3.4120  -23.6980 C.2    76  LYS76       0.2592
    113  O        -13.8730    2.3970  -23.4000 O.2    76  LYS76      -0.2718
    114  CB       -13.9360    5.4810  -22.4570 C.3    76  LYS76       0.0285
    115  CG       -15.3620    4.9500  -22.4290 C.3    76  LYS76       0.0035
    116  CD       -16.3750    6.0870  -22.5420 C.3    76  LYS76       0.0206
    117  CE       -17.6840    5.6090  -23.1490 C.3    76  LYS76       0.1093
    118  NZ       -18.7590    5.4580  -22.1280 N.3    76  LYS76      -0.1314
    119  N        -12.8350    3.6560  -24.9410 N.am   77  TYR77      -0.1976
    120  CA       -13.1980    2.7740  -26.0350 C.3    77  TYR77       0.1639
    121  C        -12.1420    1.7190  -26.3320 C.2    77  TYR77       0.2290
    122  O        -12.4080    0.8140  -27.1270 O.2    77  TYR77      -0.2864
    123  CB       -13.4820    3.5940  -27.2960 C.3    77  TYR77       0.0560
    124  CG       -14.6150    4.5850  -27.1270 C.ar   77  TYR77      -0.0198
    125  CD1      -15.9350    4.1560  -27.0680 C.ar   77  TYR77      -0.0009
    126  CD2      -14.3640    5.9470  -27.0200 C.ar   77  TYR77      -0.0009
    127  CE1      -16.9770    5.0570  -26.9110 C.ar   77  TYR77       0.0417
    128  CE2      -15.4000    6.8570  -26.8660 C.ar   77  TYR77       0.0417
    129  CZ       -16.7060    6.4060  -26.8120 C.ar   77  TYR77       0.1957
    130  OH       -17.7420    7.3050  -26.6590 O.3    77  TYR77      -0.2866
@<TRIPOS>BOND
     1     1     2    1
     2    10     9    2
     3     9     8    1
     4     4     3    2
     5    22    21    1
     6     2     3    1
     7     2     5    1
     8     3     7   am
     9    19    21   ar
    10    19    17   ar
    11    70    69    2
    12    58    57    2
    13     7     8    1
    14    21    20   ar
    15    17    16   ar
    16    57    59   am
    17    57    56    1
    18    42    40   am
    19     5     6    1
    20    67    68    1
    21    69    68    1
    22    55    54    2
    23    73    75   ar
    24    73    72   ar
    25    11    12    1
    26    62    61    1
    27    62    63    2
    28    20    18   ar
    29    61    64    1
    30    61    60    1
    31    75    76   ar
    32    65    64    1
    33    68    71    1
    34    16    18   ar
    35    16    15    1
    36    40    41    2
    37    40    39    1
    38    56    53    1
    39    54    60   am
    40    54    53    1
    41    66    64    1
    42    71    72    1
    43    72    74   ar
    44    15    12    1
    45    12    13    1
    46    53    52    1
    47    76    74   ar
    48    76    78   ar
    49    39    36    1
    50    38    37    2
    51    74    77   ar
    52    14    13    2
    53    13    23   am
    54    78    80   ar
    55    37    36    1
    56    52    45   am
    57    87    86    2
    58    36    35    1
    59    77    79   ar
    60    26    25    2
    61    86    88   am
    62    86    85    1
    63    23    24    1
    64    46    45    2
    65    45    44    1
    66    80    79   ar
    67    35    32   am
    68    25    24    1
    69    24    27    1
    70    81    82    1
    71    85    82    1
    72    44    43    1
    73    44    47    1
    74    32    33    2
    75    32    31    1
    76    82    83    1
    77    83    84    2
    78    30    31    1
    79    27    28    1
    80    27    29    1
    81    47    48    1
    82   107   105   ar
    83   107   108   ar
    84    31    34    1
    85   105   103   ar
    86   109   108    1
    87   108   106   ar
    88   103   102    1
    89   103   104   ar
    90    49    48    1
    91    49    50    1
    92   102    99    1
    93   106   104   ar
    94    50    51    1
    95    99    98    1
    96    99   100    1
    97    98    91   am
    98    89    90    1
    99   100   101    2
   100   123   124    1
   101   123   120    1
   102    93    90    1
   103    93    94    1
   104   122   121    2
   105   124   125   ar
   106   124   126   ar
   107   125   127   ar
   108   126   128   ar
   109    90    91    1
   110    91    92    2
   111   127   129   ar
   112   128   129   ar
   113   129   130    1
   114    97    95   ar
   115   121   120    1
   116   120   119    1
   117    95    94    1
   118    95    96   ar
   119   119   112   am
   120   112   113    2
   121   112   111    1
   122   117   116    1
   123   117   118    1
   124   110   111    1
   125   111   114    1
   126   116   115    1
   127   114   115    1
