@<TRIPOS>MOLECULE
tmp/5klvC04.pdb
 160 157 0 0 0
SMALL
GASTEIGER

@<TRIPOS>ATOM
      1  N         62.3930   62.8500  157.8080 N.3    89  PHE89      -0.1241
      2  CA        62.6510   61.4340  157.5740 C.3    89  PHE89       0.1605
      3  C         61.4870   60.7400  156.8790 C.2    89  PHE89       0.2264
      4  O         61.7060   59.7560  156.1650 O.2    89  PHE89      -0.2867
      5  CB        62.9850   60.7290  158.8880 C.3    89  PHE89       0.0534
      6  CG        64.4240   60.8630  159.2860 C.ar   89  PHE89      -0.0203
      7  CD1       65.3820   60.0050  158.7670 C.ar   89  PHE89      -0.0042
      8  CD2       64.8250   61.8550  160.1660 C.ar   89  PHE89      -0.0042
      9  CE1       66.7180   60.1310  159.1270 C.ar   89  PHE89      -0.0003
     10  CE2       66.1550   61.9870  160.5240 C.ar   89  PHE89      -0.0003
     11  CZ        67.1030   61.1220  160.0030 C.ar   89  PHE89      -0.0000
     12  N         71.0920   61.5140  158.8360 N.3   122  MET122     -0.1245
     13  CA        71.0760   60.6560  160.0170 C.3   122  MET122      0.1570
     14  C         72.1080   61.1250  161.0320 C.2   122  MET122      0.2261
     15  O         71.8200   61.2240  162.2300 O.2   122  MET122     -0.2867
     16  CB        71.3370   59.2010  159.6290 C.3   122  MET122      0.0387
     17  CG        70.2830   58.5890  158.7210 C.3   122  MET122      0.0595
     18  SD        70.3920   56.7910  158.4970 S.3   122  MET122     -0.1393
     19  CE        72.1270   56.4390  158.8200 C.3   122  MET122      0.0692
     20  N         70.5730   64.3880  162.6940 N.3   125  ALA125     -0.1231
     21  CA        69.5110   64.1520  163.6620 C.3   125  ALA125      0.1694
     22  C         70.0260   63.3860  164.8710 C.2   125  ALA125      0.2592
     23  O         69.5280   63.5770  165.9860 O.2   125  ALA125     -0.2718
     24  CB        68.3590   63.3980  163.0010 C.3   125  ALA125      0.0304
     25  N         71.0210   62.5200  164.6710 N.am  126  PHE126     -0.1976
     26  CA        71.6780   61.8720  165.7980 C.3   126  PHE126      0.1639
     27  C         72.2950   62.9070  166.7280 C.2   126  PHE126      0.2290
     28  O         71.9890   62.9420  167.9230 O.2   126  PHE126     -0.2864
     29  CB        72.7370   60.8880  165.2940 C.3   126  PHE126      0.0560
     30  CG        73.7610   60.5070  166.3320 C.ar  126  PHE126     -0.0200
     31  CD1       73.4150   59.7180  167.4220 C.ar  126  PHE126     -0.0042
     32  CD2       75.0740   60.9310  166.2110 C.ar  126  PHE126     -0.0042
     33  CE1       74.3640   59.3690  168.3800 C.ar  126  PHE126     -0.0003
     34  CE2       76.0220   60.5860  167.1640 C.ar  126  PHE126     -0.0003
     35  CZ        75.6620   59.8010  168.2500 C.ar  126  PHE126     -0.0000
     36  N         69.5950   65.0360  168.6140 N.3   129  TYR129     -0.1227
     37  CA        68.8670   64.4140  169.7110 C.3   129  TYR129      0.1736
     38  C         69.6990   64.3280  170.9870 C.2   129  TYR129      0.2595
     39  O         69.1300   64.1800  172.0750 O.2   129  TYR129     -0.2718
     40  CB        68.4010   63.0190  169.2970 C.3   129  TYR129      0.0548
     41  CG        67.2280   62.5040  170.1000 C.ar  129  TYR129     -0.0200
     42  CD1       65.9330   62.9050  169.8030 C.ar  129  TYR129     -0.0009
     43  CD2       67.4140   61.6100  171.1460 C.ar  129  TYR129     -0.0009
     44  CE1       64.8550   62.4350  170.5300 C.ar  129  TYR129      0.0417
     45  CE2       66.3390   61.1310  171.8800 C.ar  129  TYR129      0.0417
     46  CZ        65.0620   61.5480  171.5690 C.ar  129  TYR129      0.1957
     47  OH        63.9890   61.0790  172.2950 O.3   129  TYR129     -0.2866
     48  N         71.0270   64.4200  170.8800 N.am  130  VAL130     -0.1980
     49  CA        71.8760   64.3970  172.0660 C.3   130  VAL130      0.1595
     50  C         71.7610   65.7080  172.8310 C.2   130  VAL130      0.2287
     51  O         71.8840   65.7290  174.0630 O.2   130  VAL130     -0.2864
     52  CB        73.3390   64.1090  171.6680 C.3   130  VAL130      0.0276
     53  CG1       74.2470   64.0580  172.8910 C.3   130  VAL130      0.0022
     54  CG2       73.4350   62.8010  170.9190 C.3   130  VAL130      0.0022
     55  N         67.2090   59.2980  177.2280 N.3   136  MET136     -0.1230
     56  CA        67.3220   58.6830  175.9070 C.3   136  MET136      0.1702
     57  C         68.4550   59.3110  175.1090 C.2   136  MET136      0.2593
     58  O         69.1780   58.6140  174.3870 O.2   136  MET136     -0.2718
     59  CB        66.0020   58.8120  175.1430 C.3   136  MET136      0.0401
     60  CG        64.8580   57.9370  175.6610 C.3   136  MET136      0.0596
     61  SD        65.2110   56.1610  175.7540 S.3   136  MET136     -0.1393
     62  CE        65.8510   55.8430  174.1150 C.3   136  MET136      0.0692
     63  N         68.6260   60.6280  175.2320 N.am  137  SER137     -0.1952
     64  CA        69.7230   61.3100  174.5540 C.3   137  SER137      0.1924
     65  C         71.0700   60.7140  174.9520 C.2   137  SER137      0.2314
     66  O         71.9200   60.4410  174.0950 O.2   137  SER137     -0.2863
     67  CB        69.6790   62.8040  174.8870 C.3   137  SER137      0.2116
     68  OG        68.4610   63.3940  174.4690 O.3   137  SER137     -0.2180
     69  N         71.1660   56.5500  174.2700 N.3   140  GLY140     -0.1210
     70  CA        71.1700   56.4160  172.8260 C.3   140  GLY140      0.1956
     71  C         72.4840   56.8810  172.2270 C.2   140  GLY140      0.2611
     72  O         72.9970   56.2770  171.2830 O.2   140  GLY140     -0.2717
     73  N         73.0570   57.9530  172.7840 N.am  141  ALA141     -0.1979
     74  CA        74.3800   58.3910  172.3570 C.3   141  ALA141      0.1597
     75  C         75.4570   57.3910  172.7570 C.2   141  ALA141      0.2287
     76  O         76.4900   57.2930  172.0850 O.2   141  ALA141     -0.2864
     77  CB        74.6930   59.7650  172.9460 C.3   141  ALA141      0.0319
     78  N         75.0740   53.9070  173.0890 N.3   143  VAL143     -0.1231
     79  CA        74.9890   52.7210  172.2400 C.3   143  VAL143      0.1692
     80  C         75.6130   52.9950  170.8770 C.2   143  VAL143      0.2591
     81  O         76.3630   52.1680  170.3440 O.2   143  VAL143     -0.2718
     82  CB        73.5210   52.2660  172.1160 C.3   143  VAL143      0.0266
     83  CG1       73.3660   51.1010  171.1310 C.3   143  VAL143      0.0020
     84  CG2       72.9810   51.8570  173.4870 C.3   143  VAL143      0.0020
     85  N         75.3180   54.1590  170.2940 N.am  144  ILE144     -0.1980
     86  CA        75.7640   54.4540  168.9340 C.3   144  ILE144      0.1595
     87  C         77.2810   54.5890  168.8840 C.2   144  ILE144      0.2287
     88  O         77.9510   53.9290  168.0820 O.2   144  ILE144     -0.2864
     89  CB        75.0630   55.7240  168.4090 C.3   144  ILE144      0.0276
     90  CG1       73.5430   55.5060  168.3010 C.3   144  ILE144      0.0022
     91  CG2       75.6460   56.1850  167.0580 C.3   144  ILE144      0.0022
     92  CD1       73.0960   54.4880  167.2640 C.3   144  ILE144      0.0001
     93  N         65.1810   50.7730  176.0280 N.3   266  ILE266     -0.1231
     94  CA        65.4960   51.9570  175.2340 C.3   266  ILE266      0.1692
     95  C         65.0540   51.7070  173.7990 C.2   266  ILE266      0.2592
     96  O         65.2050   50.5940  173.2790 O.2   266  ILE266     -0.2718
     97  CB        67.0000   52.3040  175.3030 C.3   266  ILE266      0.0266
     98  CG1       67.8710   51.1000  174.9060 C.3   266  ILE266      0.0019
     99  CG2       67.3460   52.7880  176.7060 C.3   266  ILE266      0.0020
    100  CD1       69.3410   51.4210  174.7240 C.3   266  ILE266      0.0001
    101  N         64.4950   52.7430  173.1610 N.am  267  LYS267     -0.1966
    102  CA        64.0650   52.6480  171.7660 C.3   267  LYS267      0.1713
    103  C         64.4580   53.9300  171.0270 C.2   267  LYS267      0.2458
    104  O         64.1460   55.0400  171.5050 O.2   267  LYS267     -0.2730
    105  CB        62.5540   52.4050  171.6530 C.3   267  LYS267      0.0311
    106  CG        61.6700   53.5920  172.0230 C.3   267  LYS267      0.0038
    107  CD        60.2160   53.1740  172.2260 C.3   267  LYS267      0.0206
    108  CE        59.5690   52.6650  170.9440 C.3   267  LYS267      0.1093
    109  NZ        58.1660   52.2250  171.1770 N.3   267  LYS267     -0.1314
    110  N         65.1380   53.8350  169.8840 N.am  268  PRO268     -0.2716
    111  CA        65.3760   55.0360  169.0740 C.3   268  PRO268      0.1536
    112  C         64.0780   55.6780  168.6080 C.2   268  PRO268      0.2598
    113  O         62.9780   55.1430  168.7680 O.2   268  PRO268     -0.2715
    114  CB        66.1900   54.5090  167.8860 C.3   268  PRO268      0.0310
    115  CG        66.8470   53.2990  168.3840 C.3   268  PRO268      0.0237
    116  CD        65.9250   52.6900  169.3890 C.3   268  PRO268      0.0939
    117  N         64.2250   56.8650  168.0210 N.am  269  GLU269     -0.1978
    118  CA        63.1310   57.4630  167.2730 C.3   269  GLU269      0.1602
    119  C         62.7160   56.5250  166.1430 C.2   269  GLU269      0.2287
    120  O         63.4920   55.6770  165.6900 O.2   269  GLU269     -0.2864
    121  CB        63.5410   58.8300  166.7140 C.3   269  GLU269      0.0415
    122  CG        63.7440   59.9140  167.7790 C.3   269  GLU269      0.1163
    123  CD        62.4370   60.3690  168.4230 C.2   269  GLU269      0.3649
    124  OE1       61.3640   60.1270  167.8310 O.co2 269  GLU269     -0.2457
    125  OE2       62.4790   60.9680  169.5200 O.co2 269  GLU269     -0.2457
    126  N         62.3890   56.6620  163.0380 N.3   271  TYR271     -0.1227
    127  CA        63.0890   56.6490  161.7580 C.3   271  TYR271      0.1736
    128  C         64.4010   55.8790  161.7950 C.2   271  TYR271      0.2595
    129  O         65.0670   55.7800  160.7590 O.2   271  TYR271     -0.2718
    130  CB        63.3470   58.0800  161.2600 C.3   271  TYR271      0.0548
    131  CG        63.9190   59.0550  162.2750 C.ar  271  TYR271     -0.0200
    132  CD1       65.2880   59.1410  162.5000 C.ar  271  TYR271     -0.0009
    133  CD2       63.0840   59.9090  162.9870 C.ar  271  TYR271     -0.0009
    134  CE1       65.8040   60.0410  163.4150 C.ar  271  TYR271      0.0417
    135  CE2       63.5880   60.8070  163.8980 C.ar  271  TYR271      0.0417
    136  CZ        64.9470   60.8730  164.1090 C.ar  271  TYR271      0.1957
    137  OH        65.4430   61.7780  165.0190 O.3   271  TYR271     -0.2866
    138  N         64.7780   55.3220  162.9430 N.am  272  PHE272     -0.1976
    139  CA        65.9580   54.4780  163.0520 C.3   272  PHE272      0.1639
    140  C         65.6310   53.0870  163.5820 C.2   272  PHE272      0.2290
    141  O         66.5400   52.2600  163.7130 O.2   272  PHE272     -0.2864
    142  CB        67.0000   55.1610  163.9530 C.3   272  PHE272      0.0560
    143  CG        68.3570   54.5160  163.9160 C.ar  272  PHE272     -0.0200
    144  CD1       69.1570   54.6230  162.7950 C.ar  272  PHE272     -0.0042
    145  CD2       68.8310   53.8040  165.0080 C.ar  272  PHE272     -0.0042
    146  CE1       70.4020   54.0310  162.7570 C.ar  272  PHE272     -0.0003
    147  CE2       70.0770   53.2100  164.9770 C.ar  272  PHE272     -0.0003
    148  CZ        70.8640   53.3230  163.8480 C.ar  272  PHE272     -0.0000
    149  N         68.0250   49.5380  163.9060 N.3   276  TYR276     -0.1241
    150  CA        68.3290   49.0090  165.2300 C.3   276  TYR276      0.1605
    151  C         67.9180   47.5450  165.3340 C.2   276  TYR276      0.2264
    152  O         68.6060   46.7420  165.9750 O.2   276  TYR276     -0.2867
    153  CB        67.6170   49.8680  166.2790 C.3   276  TYR276      0.0534
    154  CG        67.9610   49.5810  167.7260 C.ar  276  TYR276     -0.0201
    155  CD1       69.2530   49.7590  168.2120 C.ar  276  TYR276     -0.0009
    156  CD2       66.9770   49.1700  168.6190 C.ar  276  TYR276     -0.0009
    157  CE1       69.5580   49.5070  169.5450 C.ar  276  TYR276      0.0417
    158  CE2       67.2720   48.9200  169.9430 C.ar  276  TYR276      0.0417
    159  CZ        68.5610   49.0910  170.4020 C.ar  276  TYR276      0.1957
    160  OH        68.8400   48.8350  171.7250 O.3   276  TYR276     -0.2866
@<TRIPOS>BOND
     1     4     3    2
     2     3     2    1
     3     2     1    1
     4     2     5    1
     5    18    17    1
     6    18    19    1
     7    17    16    1
     8     7     9   ar
     9     7     6   ar
    10    12    13    1
    11     5     6    1
    12     9    11   ar
    13     6     8   ar
    14    16    13    1
    15    11    10   ar
    16    13    14    1
    17     8    10   ar
    18   129   128    2
    19    14    15    2
    20   130   127    1
    21   130   131    1
    22   127   128    1
    23   127   126    1
    24   128   138   am
    25   131   132   ar
    26   131   133   ar
    27   132   134   ar
    28    20    21    1
    29   146   144   ar
    30   146   148   ar
    31   144   143   ar
    32   138   139    1
    33   133   135   ar
    34    24    21    1
    35   139   140    1
    36   139   142    1
    37   134   136   ar
    38   140   141    2
    39    21    22    1
    40   148   147   ar
    41   135   136   ar
    42   149   150    1
    43   143   142    1
    44   143   145   ar
    45   136   137    1
    46    25    22   am
    47    25    26    1
    48    22    23    2
    49   147   145   ar
    50   150   151    1
    51   150   153    1
    52    29    26    1
    53    29    30    1
    54   151   152    2
    55   120   119    2
    56    26    27    1
    57   119   118    1
    58    32    30   ar
    59    32    34   ar
    60   153   154    1
    61    30    31   ar
    62   121   118    1
    63   121   122    1
    64    27    28    2
    65    91    89    1
    66    34    35   ar
    67    92    90    1
    68   118   117    1
    69    31    33   ar
    70   154   155   ar
    71   154   156   ar
    72   122   123    1
    73   124   123   ar
    74   114   115    1
    75   114   111    1
    76   117   112   am
    77    88    87    2
    78   155   157   ar
    79    35    33   ar
    80    90    89    1
    81   115   116    1
    82    89    86    1
    83   123   125   ar
    84   112   113    2
    85   112   111    1
    86    36    37    1
    87   156   158   ar
    88    87    86    1
    89    86    85    1
    90   111   110    1
    91    40    37    1
    92    40    41    1
    93   116   110    1
    94   157   159   ar
    95    37    38    1
    96    42    41   ar
    97    42    44   ar
    98   110   103   am
    99   158   159   ar
   100    41    43   ar
   101    85    80   am
   102    81    80    2
   103   159   160    1
   104    44    46   ar
   105    80    79    1
   106    48    38   am
   107    48    49    1
   108    54    52    1
   109   108   109    1
   110   108   107    1
   111    38    39    2
   112   103   104    2
   113   103   102    1
   114    83    82    1
   115    43    45   ar
   116    72    71    2
   117    46    45   ar
   118    46    47    1
   119   105   102    1
   120   105   106    1
   121    52    49    1
   122    52    53    1
   123   102   101    1
   124   106   107    1
   125    49    50    1
   126    76    75    2
   127    82    79    1
   128    82    84    1
   129    71    73   am
   130    71    70    1
   131    79    78    1
   132    74    75    1
   133    74    73    1
   134    74    77    1
   135    70    69    1
   136    50    51    2
   137   101    95   am
   138    96    95    2
   139    95    94    1
   140    66    65    2
   141    62    61    1
   142    58    57    2
   143    68    67    1
   144    64    67    1
   145    64    65    1
   146    64    63    1
   147   100    98    1
   148    98    97    1
   149    57    63   am
   150    57    56    1
   151    59    60    1
   152    59    56    1
   153    94    97    1
   154    94    93    1
   155    97    99    1
   156    60    61    1
   157    56    55    1
