@<TRIPOS>MOLECULE
tmp/5klvC05.pdb
 248 245 0 0 0
SMALL
GASTEIGER

@<TRIPOS>ATOM
      1  N         54.5020   61.4810  144.0140 N.3    28  TRP28      -0.1241
      2  CA        55.7470   60.9380  144.5420 C.3    28  TRP28       0.1605
      3  C         56.9580   61.7620  144.1260 C.2    28  TRP28       0.2264
      4  O         58.0230   61.6260  144.7390 O.2    28  TRP28      -0.2867
      5  CB        55.9190   59.4860  144.1010 C.3    28  TRP28       0.0550
      6  CG        54.8320   58.5930  144.6060 C.ar   28  TRP28       0.0003
      7  CD1       53.8460   58.0060  143.8710 C.ar   28  TRP28       0.0946
      8  CD2       54.6090   58.1940  145.9670 C.ar   28  TRP28       0.0152
      9  NE1       53.0280   57.2630  144.6850 N.ar   28  TRP28      -0.2442
     10  CE2       53.4740   57.3610  145.9760 C.ar   28  TRP28       0.0810
     11  CE3       55.2600   58.4570  147.1740 C.ar   28  TRP28       0.0012
     12  CZ2       52.9770   56.7900  147.1450 C.ar   28  TRP28       0.0191
     13  CZ3       54.7650   57.8910  148.3310 C.ar   28  TRP28       0.0001
     14  CH2       53.6330   57.0690  148.3090 C.ar   28  TRP28       0.0015
     15  N         62.2160   58.8790  153.2260 N.3    93  TYR93      -0.1227
     16  CA        61.8790   57.4950  152.9290 C.3    93  TYR93       0.1736
     17  C         60.9070   57.3780  151.7620 C.2    93  TYR93       0.2595
     18  O         60.9810   56.4040  151.0040 O.2    93  TYR93      -0.2718
     19  CB        61.3220   56.8190  154.1880 C.3    93  TYR93       0.0548
     20  CG        62.3130   56.7290  155.3460 C.ar   93  TYR93      -0.0200
     21  CD1       63.6900   56.7070  155.1230 C.ar   93  TYR93      -0.0009
     22  CD2       61.8670   56.6600  156.6650 C.ar   93  TYR93      -0.0009
     23  CE1       64.5870   56.6240  156.1700 C.ar   93  TYR93       0.0417
     24  CE2       62.7620   56.5710  157.7190 C.ar   93  TYR93       0.0417
     25  CZ        64.1210   56.5550  157.4610 C.ar   93  TYR93       0.1957
     26  OH        65.0240   56.4700  158.4900 O.3    93  TYR93      -0.2866
     27  N         60.0140   58.3500  151.5780 N.am   94  MET94      -0.1979
     28  CA        59.2140   58.3780  150.3560 C.3    94  MET94       0.1605
     29  C         60.0990   58.6450  149.1380 C.2    94  MET94       0.2287
     30  O         59.9620   57.9830  148.1000 O.2    94  MET94      -0.2864
     31  CB        58.1180   59.4420  150.4630 C.3    94  MET94       0.0413
     32  CG        57.1880   59.3120  151.6630 C.3    94  MET94       0.0598
     33  SD        56.3750   57.7120  151.8050 S.3    94  MET94      -0.1393
     34  CE        54.8860   58.1650  152.7000 C.3    94  MET94       0.0692
     35  N         63.2460   57.9520  148.6150 N.3    96  VAL96      -0.1231
     36  CA        64.0000   56.7600  148.2320 C.3    96  VAL96       0.1692
     37  C         63.0680   55.7170  147.6240 C.2    96  VAL96       0.2593
     38  O         63.3760   55.1170  146.5880 O.2    96  VAL96      -0.2718
     39  CB        64.7710   56.2000  149.4460 C.3    96  VAL96       0.0266
     40  CG1       65.4900   54.8890  149.1120 C.3    96  VAL96       0.0020
     41  CG2       65.7860   57.2250  149.9430 C.3    96  VAL96       0.0020
     42  N         61.9230   55.4760  148.2650 N.am   97  GLY97      -0.1942
     43  CA        60.9960   54.4820  147.7480 C.3    97  GLY97       0.2014
     44  C         60.5120   54.8100  146.3480 C.2    97  GLY97       0.2638
     45  O         60.3750   53.9210  145.5020 O.2    97  GLY97      -0.2714
     46  N         60.2400   56.0900  146.0870 N.am   98  ARG98      -0.1977
     47  CA        59.9570   56.5370  144.7270 C.3    98  ARG98       0.1597
     48  C         61.0810   56.1280  143.7840 C.2    98  ARG98       0.2287
     49  O         60.8380   55.5980  142.6960 O.2    98  ARG98      -0.2864
     50  CB        59.7640   58.0560  144.7220 C.3    98  ARG98       0.0334
     51  CG        59.3610   58.6830  143.3780 C.3    98  ARG98       0.0492
     52  CD        60.5280   58.9240  142.4070 C.3    98  ARG98       0.2205
     53  NE        61.6840   59.5390  143.0580 N.pl3  98  ARG98      -0.0865
     54  CZ        61.9390   60.8440  143.0990 C.cat  98  ARG98       0.5346
     55  NH1       61.1350   61.7300  142.5140 N.pl3  98  ARG98       0.1354
     56  NH2       63.0240   61.2710  143.7300 N.pl3  98  ARG98       0.1354
     57  N         63.2610   53.7370  143.9970 N.3   100  LEU100     -0.1231
     58  CA        63.3710   52.2970  143.7810 C.3   100  LEU100      0.1693
     59  C         62.2290   51.7740  142.9240 C.2   100  LEU100      0.2592
     60  O         62.4570   51.0220  141.9720 O.2   100  LEU100     -0.2718
     61  CB        63.3990   51.5570  145.1190 C.3   100  LEU100      0.0284
     62  CG        64.6060   51.7920  146.0260 C.3   100  LEU100      0.0019
     63  CD1       64.4050   51.0340  147.3170 C.3   100  LEU100      0.0001
     64  CD2       65.9120   51.3680  145.3660 C.3   100  LEU100      0.0001
     65  N         60.9930   52.1520  143.2510 N.am  101  TYR101     -0.1962
     66  CA        59.8460   51.6200  142.5280 C.3   101  TYR101      0.1771
     67  C         59.9110   52.0010  141.0530 C.2   101  TYR101      0.2619
     68  O         59.6860   51.1620  140.1720 O.2   101  TYR101     -0.2715
     69  CB        58.5480   52.1240  143.1610 C.3   101  TYR101      0.0574
     70  CG        57.3050   51.6320  142.4550 C.ar  101  TYR101     -0.0198
     71  CD1       56.7440   52.3600  141.4160 C.ar  101  TYR101     -0.0009
     72  CD2       56.6980   50.4380  142.8230 C.ar  101  TYR101     -0.0009
     73  CE1       55.6190   51.9180  140.7590 C.ar  101  TYR101      0.0417
     74  CE2       55.5640   49.9880  142.1750 C.ar  101  TYR101      0.0417
     75  CZ        55.0300   50.7350  141.1390 C.ar  101  TYR101      0.1957
     76  OH        53.9040   50.3140  140.4700 O.3   101  TYR101     -0.2866
     77  N         60.2270   53.2630  140.7670 N.am  102  TYR102     -0.1974
     78  CA        60.2320   53.7800  139.4080 C.3   102  TYR102      0.1639
     79  C         61.6080   53.7420  138.7550 C.2   102  TYR102      0.2290
     80  O         61.7560   54.2310  137.6310 O.2   102  TYR102     -0.2864
     81  CB        59.6970   55.2130  139.3980 C.3   102  TYR102      0.0560
     82  CG        58.2640   55.3230  139.8610 C.ar  102  TYR102     -0.0198
     83  CD1       57.2230   54.8580  139.0710 C.ar  102  TYR102     -0.0009
     84  CD2       57.9500   55.8940  141.0880 C.ar  102  TYR102     -0.0009
     85  CE1       55.9000   54.9670  139.4800 C.ar  102  TYR102      0.0417
     86  CE2       56.6350   56.0010  141.5130 C.ar  102  TYR102      0.0417
     87  CZ        55.6140   55.5350  140.7050 C.ar  102  TYR102      0.1957
     88  OH        54.3090   55.6440  141.1260 O.3   102  TYR102     -0.2866
     89  N         71.5560   60.8240  152.5950 N.3   118  LEU118     -0.1245
     90  CA        70.8530   60.1030  153.6490 C.3   118  LEU118      0.1561
     91  C         71.7270   59.9700  154.8910 C.2   118  LEU118      0.2260
     92  O         71.2730   60.2230  156.0120 O.2   118  LEU118     -0.2867
     93  CB        70.4130   58.7270  153.1500 C.3   118  LEU118      0.0270
     94  CG        69.5550   57.8940  154.1090 C.3   118  LEU118      0.0019
     95  CD1       68.1990   58.5470  154.3450 C.3   118  LEU118      0.0001
     96  CD2       69.3800   56.4820  153.5770 C.3   118  LEU118      0.0001
     97  N         56.6180   58.1930  136.0140 N.3   206  PRO206     -0.2116
     98  CA        56.0170   56.9140  136.4270 C.3   206  PRO206      0.1372
     99  C         56.1750   55.7330  135.4770 C.2   206  PRO206      0.2244
    100  O         56.0700   54.5800  135.9130 O.2   206  PRO206     -0.2868
    101  CB        54.5390   57.2830  136.5830 C.3   206  PRO206      0.0268
    102  CG        54.5820   58.6680  137.1050 C.3   206  PRO206      0.0207
    103  CD        55.7530   59.3270  136.4040 C.3   206  PRO206      0.0892
    104  N         61.4690   56.6860  165.6900 N.3   270  TRP270     -0.1227
    105  CA        60.8810   55.7440  164.7370 C.3   270  TRP270      0.1737
    106  C         61.7310   55.5890  163.4790 C.2   270  TRP270      0.2595
    107  O         61.8020   54.4930  162.9090 O.2   270  TRP270     -0.2718
    108  CB        59.4670   56.1980  164.3620 C.3   270  TRP270      0.0564
    109  CG        59.4470   57.4890  163.5920 C.ar  270  TRP270      0.0003
    110  CD1       59.3190   58.7450  164.1030 C.ar  270  TRP270      0.0946
    111  CD2       59.5750   57.6430  162.1730 C.ar  270  TRP270      0.0152
    112  NE1       59.3590   59.6740  163.0910 N.ar  270  TRP270     -0.2442
    113  CE2       59.5160   59.0220  161.8970 C.ar  270  TRP270      0.0810
    114  CE3       59.7380   56.7490  161.1130 C.ar  270  TRP270      0.0012
    115  CZ2       59.6100   59.5290  160.6050 C.ar  270  TRP270      0.0191
    116  CZ3       59.8320   57.2520  159.8310 C.ar  270  TRP270      0.0001
    117  CH2       59.7660   58.6300  159.5860 C.ar  270  TRP270      0.0015
    118  N         62.3890   56.6620  163.0380 N.am  271  TYR271     -0.1976
    119  CA        63.0890   56.6490  161.7580 C.3   271  TYR271      0.1639
    120  C         64.4010   55.8790  161.7950 C.2   271  TYR271      0.2290
    121  O         65.0670   55.7800  160.7590 O.2   271  TYR271     -0.2864
    122  CB        63.3470   58.0800  161.2600 C.3   271  TYR271      0.0560
    123  CG        63.9190   59.0550  162.2750 C.ar  271  TYR271     -0.0198
    124  CD1       65.2880   59.1410  162.5000 C.ar  271  TYR271     -0.0009
    125  CD2       63.0840   59.9090  162.9870 C.ar  271  TYR271     -0.0009
    126  CE1       65.8040   60.0410  163.4150 C.ar  271  TYR271      0.0417
    127  CE2       63.5880   60.8070  163.8980 C.ar  271  TYR271      0.0417
    128  CZ        64.9470   60.8730  164.1090 C.ar  271  TYR271      0.1957
    129  OH        65.4430   61.7780  165.0190 O.3   271  TYR271     -0.2866
    130  N         64.0210   50.4720  162.2750 N.3   274  PHE274     -0.1241
    131  CA        64.2330   49.3470  161.3700 C.3   274  PHE274      0.1605
    132  C         65.6880   48.8960  161.3870 C.2   274  PHE274      0.2264
    133  O         65.9710   47.6970  161.2770 O.2   274  PHE274     -0.2867
    134  CB        63.8040   49.7210  159.9450 C.3   274  PHE274      0.0534
    135  CG        64.8540   50.4750  159.1740 C.ar  274  PHE274     -0.0203
    136  CD1       65.6770   49.8210  158.2700 C.ar  274  PHE274     -0.0042
    137  CD2       65.0380   51.8370  159.3770 C.ar  274  PHE274     -0.0042
    138  CE1       66.6540   50.5120  157.5740 C.ar  274  PHE274     -0.0003
    139  CE2       66.0090   52.5300  158.6830 C.ar  274  PHE274     -0.0003
    140  CZ        66.8200   51.8660  157.7820 C.ar  274  PHE274     -0.0000
    141  N         71.9120   50.5070  149.5290 N.3   299  LEU299     -0.1245
    142  CA        71.3900   51.3800  148.4810 C.3   299  LEU299      0.1561
    143  C         72.4360   51.6660  147.4130 C.2   299  LEU299      0.2260
    144  O         72.0940   51.8030  146.2360 O.2   299  LEU299     -0.2867
    145  CB        70.8990   52.6980  149.0810 C.3   299  LEU299      0.0270
    146  CG        69.7690   52.6450  150.1090 C.3   299  LEU299      0.0019
    147  CD1       69.5270   54.0460  150.6590 C.3   299  LEU299      0.0001
    148  CD2       68.4900   52.0750  149.5110 C.3   299  LEU299      0.0001
    149  N         56.0990   49.9550  137.0130 N.3   314  MET314     -0.1245
    150  CA        54.7030   50.1650  136.6460 C.3   314  MET314      0.1570
    151  C         54.1670   49.0270  135.7850 C.2   314  MET314      0.2261
    152  O         52.9750   48.7040  135.8590 O.2   314  MET314     -0.2867
    153  CB        54.5600   51.5010  135.9120 C.3   314  MET314      0.0387
    154  CG        53.1520   51.8060  135.4250 C.3   314  MET314      0.0595
    155  SD        52.9910   53.4930  134.8160 S.3   314  MET314     -0.1393
    156  CE        51.2770   53.4870  134.2710 C.3   314  MET314      0.0692
    157  N         56.4760   44.3970  141.6410 N.3   320  GLN320     -0.1245
    158  CA        55.6260   45.1680  142.5420 C.3   320  GLN320      0.1566
    159  C         55.4070   44.4280  143.8560 C.2   320  GLN320      0.2260
    160  O         55.5560   45.0040  144.9410 O.2   320  GLN320     -0.2867
    161  CB        54.2810   45.4620  141.8800 C.3   320  GLN320      0.0367
    162  CG        54.3080   46.5290  140.8150 C.3   320  GLN320      0.0905
    163  CD        52.9130   47.0070  140.4580 C.2   320  GLN320      0.2608
    164  OE1       52.4720   46.8750  139.3190 O.2   320  GLN320     -0.2717
    165  NE2       52.2090   47.5680  141.4390 N.am  320  GLN320     -0.0878
    166  N         58.3500   44.3800  145.9290 N.3   323  PHE323     -0.1227
    167  CA        58.6060   45.7180  146.4530 C.3   323  PHE323      0.1736
    168  C         57.7760   45.9840  147.7010 C.2   323  PHE323      0.2595
    169  O         58.2770   46.5550  148.6760 O.2   323  PHE323     -0.2718
    170  CB        58.3130   46.7710  145.3830 C.3   323  PHE323      0.0547
    171  CG        58.3140   48.1850  145.8980 C.ar  323  PHE323     -0.0202
    172  CD1       59.5010   48.8680  146.0870 C.ar  323  PHE323     -0.0042
    173  CD2       57.1210   48.8380  146.1770 C.ar  323  PHE323     -0.0042
    174  CE1       59.5010   50.1750  146.5530 C.ar  323  PHE323     -0.0003
    175  CE2       57.1140   50.1420  146.6430 C.ar  323  PHE323     -0.0003
    176  CZ        58.3030   50.8100  146.8330 C.ar  323  PHE323     -0.0000
    177  N         56.5070   45.5740  147.6920 N.am  324  TRP324     -0.1976
    178  CA        55.6430   45.8310  148.8350 C.3   324  TRP324      0.1640
    179  C         55.8950   44.8540  149.9760 C.2   324  TRP324      0.2290
    180  O         55.6540   45.1950  151.1390 O.2   324  TRP324     -0.2864
    181  CB        54.1810   45.8010  148.3910 C.3   324  TRP324      0.0576
    182  CG        53.8790   46.9400  147.4870 C.ar  324  TRP324      0.0006
    183  CD1       53.5410   46.8750  146.1740 C.ar  324  TRP324      0.0946
    184  CD2       53.9250   48.3310  147.8240 C.ar  324  TRP324      0.0152
    185  NE1       53.3620   48.1420  145.6680 N.ar  324  TRP324     -0.2442
    186  CE2       53.5890   49.0520  146.6650 C.ar  324  TRP324      0.0810
    187  CE3       54.2130   49.0360  148.9980 C.ar  324  TRP324      0.0012
    188  CZ2       53.5320   50.4420  146.6430 C.ar  324  TRP324      0.0191
    189  CZ3       54.1530   50.4120  148.9760 C.ar  324  TRP324      0.0001
    190  CH2       53.8190   51.1020  147.8060 C.ar  324  TRP324      0.0015
    191  N         58.8430   44.2650  150.7360 N.3   326  LEU326     -0.1231
    192  CA        59.9620   44.9400  151.3810 C.3   326  LEU326      0.1693
    193  C         59.4780   46.0600  152.2930 C.2   326  LEU326      0.2591
    194  O         60.0470   46.2750  153.3680 O.2   326  LEU326     -0.2718
    195  CB        60.9300   45.4900  150.3310 C.3   326  LEU326      0.0284
    196  CG        62.1100   46.3180  150.8460 C.3   326  LEU326      0.0019
    197  CD1       62.8840   45.5900  151.9470 C.3   326  LEU326      0.0001
    198  CD2       63.0390   46.6610  149.7020 C.3   326  LEU326      0.0001
    199  N         58.4340   46.7820  151.8850 N.am  327  VAL327     -0.1980
    200  CA        57.8820   47.8270  152.7430 C.3   327  VAL327      0.1595
    201  C         57.2860   47.2060  154.0010 C.2   327  VAL327      0.2287
    202  O         57.5160   47.6810  155.1200 O.2   327  VAL327     -0.2864
    203  CB        56.8410   48.6680  151.9770 C.3   327  VAL327      0.0276
    204  CG1       56.3310   49.8180  152.8440 C.3   327  VAL327      0.0022
    205  CG2       57.4320   49.2270  150.6980 C.3   327  VAL327      0.0022
    206  N         60.1260   46.0190  156.0540 N.3   330  LEU330     -0.1231
    207  CA        60.7310   47.1550  156.7390 C.3   330  LEU330      0.1693
    208  C         59.8210   47.6690  157.8420 C.2   330  LEU330      0.2591
    209  O         60.2940   48.0810  158.9080 O.2   330  LEU330     -0.2718
    210  CB        61.0450   48.2630  155.7340 C.3   330  LEU330      0.0284
    211  CG        62.3880   48.0840  155.0290 C.3   330  LEU330      0.0019
    212  CD1       62.4340   48.8720  153.7320 C.3   330  LEU330      0.0001
    213  CD2       63.5130   48.5200  155.9580 C.3   330  LEU330      0.0001
    214  N         58.5100   47.6500  157.6000 N.am  331  LEU331     -0.1980
    215  CA        57.5530   47.9900  158.6460 C.3   331  LEU331      0.1596
    216  C         57.5860   46.9700  159.7830 C.2   331  LEU331      0.2287
    217  O         57.3320   47.3250  160.9400 O.2   331  LEU331     -0.2864
    218  CB        56.1550   48.0960  158.0320 C.3   331  LEU331      0.0297
    219  CG        54.9640   48.2840  158.9700 C.3   331  LEU331      0.0022
    220  CD1       55.1620   49.4690  159.9080 C.3   331  LEU331      0.0001
    221  CD2       53.6960   48.4550  158.1370 C.3   331  LEU331      0.0001
    222  N         60.7560   47.7690  161.8490 N.3   334  THR334     -0.1218
    223  CA        60.4750   48.9350  162.6790 C.3   334  THR334      0.1862
    224  C         59.7520   48.5230  163.9600 C.2   334  THR334      0.2287
    225  O         60.0600   49.0240  165.0480 O.2   334  THR334     -0.2866
    226  CB        59.6530   49.9460  161.8690 C.3   334  THR334      0.1770
    227  OG1       60.3830   50.3140  160.6910 O.3   334  THR334     -0.2211
    228  CG2       59.3590   51.2090  162.6580 C.3   334  THR334      0.0375
    229  N         64.7750   41.1170  154.5090 N.3   356  TYR356     -0.1241
    230  CA        65.2510   42.3920  153.9900 C.3   356  TYR356      0.1605
    231  C         66.3840   42.1800  152.9940 C.2   356  TYR356      0.2264
    232  O         66.2710   42.5350  151.8160 O.2   356  TYR356     -0.2867
    233  CB        65.7050   43.2760  155.1510 C.3   356  TYR356      0.0534
    234  CG        66.2950   44.6010  154.7370 C.ar  356  TYR356     -0.0201
    235  CD1       65.4790   45.6490  154.3360 C.ar  356  TYR356     -0.0009
    236  CD2       67.6670   44.8120  154.7680 C.ar  356  TYR356     -0.0009
    237  CE1       66.0140   46.8650  153.9640 C.ar  356  TYR356      0.0417
    238  CE2       68.2120   46.0250  154.4020 C.ar  356  TYR356      0.0417
    239  CZ        67.3800   47.0510  154.0010 C.ar  356  TYR356      0.1957
    240  OH        67.9130   48.2670  153.6300 O.3   356  TYR356     -0.2866
    241  N         66.4250   42.2510  148.4820 N.3   360  ILE360     -0.1245
    242  CA        67.2420   43.1540  147.6750 C.3   360  ILE360      0.1561
    243  C         68.2730   42.3710  146.8680 C.2   360  ILE360      0.2260
    244  O         68.4810   42.6350  145.6770 O.2   360  ILE360     -0.2867
    245  CB        67.9130   44.2130  148.5720 C.3   360  ILE360      0.0252
    246  CG1       66.8540   45.0540  149.3050 C.3   360  ILE360      0.0019
    247  CG2       68.8180   45.1280  147.7410 C.3   360  ILE360      0.0019
    248  CD1       67.4170   45.9370  150.4230 C.3   360  ILE360      0.0001
@<TRIPOS>BOND
     1   156   155    1
     2   155   154    1
     3   154   153    1
     4    99   100    2
     5    99    98    1
     6   151   152    2
     7   151   150    1
     8   153   150    1
     9    97   103    1
    10    97    98    1
    11   103   102    1
    12    98   101    1
    13   101   102    1
    14   150   149    1
    15    80    79    2
    16    79    78    1
    17    83    85   ar
    18    83    82   ar
    19   164   163    2
    20    81    78    1
    21    81    82    1
    22    78    77    1
    23    85    87   ar
    24    82    84   ar
    25    68    67    2
    26   163   162    1
    27   163   165   am
    28    76    75    1
    29    87    88    1
    30    87    86   ar
    31    73    75   ar
    32    73    71   ar
    33    77    67   am
    34   162   161    1
    35    67    66    1
    36    84    86   ar
    37    75    74   ar
    38    71    70   ar
    39   157   158    1
    40   161   158    1
    41    60    59    2
    42    74    72   ar
    43    52    53    1
    44    52    51    1
    45    70    72   ar
    46    70    69    1
    47    55    54    1
    48    66    69    1
    49    66    65    1
    50   158   159    1
    51    49    48    2
    52    59    65   am
    53    59    58    1
    54    53    54    2
    55    54    56    1
    56    51    50    1
    57    58    57    1
    58    58    61    1
    59    48    47    1
    60   159   160    2
    61     7     6   ar
    62     7     9   ar
    63     1     2    1
    64     5     2    1
    65     5     6    1
    66     3     2    1
    67     3     4    2
    68     6     8   ar
    69     9    10   ar
    70    50    47    1
    71    47    46    1
    72    61    62    1
    73    64    62    1
    74   170   171    1
    75   170   167    1
    76    45    44    2
    77   185   183   ar
    78   185   186   ar
    79   244   243    2
    80   171   172   ar
    81   171   173   ar
    82   166   167    1
    83     8    10   ar
    84     8    11   ar
    85    10    12   ar
    86    62    63    1
    87   172   174   ar
    88    46    44   am
    89   183   182   ar
    90   173   175   ar
    91   144   143    2
    92    44    43    1
    93   167   168    1
    94   174   176   ar
    95    38    37    2
    96   175   176   ar
    97   188   186   ar
    98   188   190   ar
    99   186   184   ar
   100   243   242    1
   101    12    14   ar
   102    11    13   ar
   103   143   142    1
   104   182   184   ar
   105   182   181    1
   106    37    36    1
   107    37    42   am
   108   242   241    1
   109   242   245    1
   110   177   168   am
   111   177   178    1
   112   168   169    2
   113   247   245    1
   114    43    42    1
   115   190   189   ar
   116   184   187   ar
   117    30    29    2
   118    36    35    1
   119    36    39    1
   120    14    13   ar
   121   181   178    1
   122   142   145    1
   123   142   141    1
   124   245   246    1
   125   178   179    1
   126   189   187   ar
   127   145   146    1
   128    40    39    1
   129    29    28    1
   130   246   248    1
   131    39    41    1
   132   148   146    1
   133   198   196    1
   134   179   180    2
   135   146   147    1
   136   195   196    1
   137   195   192    1
   138    28    31    1
   139    28    27    1
   140    31    32    1
   141   205   203    1
   142   191   192    1
   143   196   197    1
   144    18    17    2
   145   192   193    1
   146    27    17   am
   147    32    33    1
   148    17    16    1
   149    33    34    1
   150   232   231    2
   151   199   193   am
   152   199   200    1
   153   203   200    1
   154   203   204    1
   155   193   194    2
   156    89    90    1
   157   200   201    1
   158    16    15    1
   159    16    19    1
   160   231   230    1
   161    93    90    1
   162    93    94    1
   163    96    94    1
   164   240   239    1
   165    90    91    1
   166   212   211    1
   167   237   239   ar
   168   237   235   ar
   169   230   229    1
   170   230   233    1
   171   201   202    2
   172   239   238   ar
   173    94    95    1
   174    19    20    1
   175   235   234   ar
   176   238   236   ar
   177   234   236   ar
   178   234   233    1
   179    91    92    2
   180   211   210    1
   181   211   213    1
   182    21    20   ar
   183    21    23   ar
   184    20    22   ar
   185   210   207    1
   186   206   207    1
   187    23    25   ar
   188    22    24   ar
   189   207   208    1
   190    25    24   ar
   191    25    26    1
   192   138   140   ar
   193   138   136   ar
   194   214   208   am
   195   214   215    1
   196   140   139   ar
   197   208   209    2
   198   218   215    1
   199   218   219    1
   200   221   219    1
   201   136   135   ar
   202   215   216    1
   203   139   137   ar
   204   219   220    1
   205   135   137   ar
   206   135   134    1
   207   117   116   ar
   208   117   115   ar
   209   216   217    2
   210   116   114   ar
   211   134   131    1
   212   115   113   ar
   213   227   226    1
   214   121   120    2
   215   114   111   ar
   216   122   119    1
   217   122   123    1
   218   133   132    2
   219   131   132    1
   220   131   130    1
   221   119   120    1
   222   119   118    1
   223   222   223    1
   224   226   228    1
   225   226   223    1
   226   113   111   ar
   227   113   112   ar
   228   111   109   ar
   229   123   124   ar
   230   123   125   ar
   231   124   126   ar
   232   223   224    1
   233   107   106    2
   234   125   127   ar
   235   118   106   am
   236   112   110   ar
   237   126   128   ar
   238   106   105    1
   239   109   110   ar
   240   109   108    1
   241   127   128   ar
   242   224   225    2
   243   128   129    1
   244   108   105    1
   245   105   104    1
