@<TRIPOS>MOLECULE
tmp/5klxC00.pdb
 126 124 0 0 0
SMALL
GASTEIGER

@<TRIPOS>ATOM
      1  N        -49.6690  -18.3970  153.4420 N.3   103  TYR103     -0.1241
      2  CA       -49.6620  -18.7110  154.8640 C.3   103  TYR103      0.1605
      3  C        -49.2520  -17.4840  155.6540 C.2   103  TYR103      0.2264
      4  O        -48.7300  -16.5050  155.1150 O.2   103  TYR103     -0.2867
      5  CB       -48.7180  -19.8700  155.2080 C.3   103  TYR103      0.0534
      6  CG       -47.2470  -19.5270  155.0460 C.ar  103  TYR103     -0.0201
      7  CD1      -46.6210  -19.7040  153.8350 C.ar  103  TYR103     -0.0009
      8  CD2      -46.4880  -19.0160  156.1120 C.ar  103  TYR103     -0.0009
      9  CE1      -45.3010  -19.3950  153.6690 C.ar  103  TYR103      0.0417
     10  CE2      -45.1570  -18.6980  155.9530 C.ar  103  TYR103      0.0417
     11  CZ       -44.5680  -18.8890  154.7170 C.ar  103  TYR103      0.1957
     12  OH       -43.2440  -18.5930  154.4810 O.3   103  TYR103     -0.2866
     13  N        -43.8600  -14.3500  162.4750 N.3   113  PHE113     -0.1227
     14  CA       -42.5110  -14.5360  161.9660 C.3   113  PHE113      0.1736
     15  C        -42.4350  -14.6440  160.4470 C.2   113  PHE113      0.2595
     16  O        -41.3450  -14.4760  159.8940 O.2   113  PHE113     -0.2718
     17  CB       -41.8400  -15.7560  162.6220 C.3   113  PHE113      0.0547
     18  CG       -42.5550  -17.0590  162.4230 C.ar  113  PHE113     -0.0202
     19  CD1      -42.3850  -17.7950  161.2580 C.ar  113  PHE113     -0.0042
     20  CD2      -43.3340  -17.5900  163.4310 C.ar  113  PHE113     -0.0042
     21  CE1      -43.0160  -19.0130  161.0910 C.ar  113  PHE113     -0.0003
     22  CE2      -43.9620  -18.8120  163.2720 C.ar  113  PHE113     -0.0003
     23  CZ       -43.8010  -19.5210  162.1060 C.ar  113  PHE113     -0.0000
     24  N        -43.5450  -14.8850  159.7540 N.am  114  ASP114     -0.1974
     25  CA       -43.5620  -14.6740  158.3090 C.3   114  ASP114      0.1709
     26  C        -45.0030  -14.5340  157.8290 C.2   114  ASP114      0.2293
     27  O        -45.9340  -15.0520  158.4470 O.2   114  ASP114     -0.2864
     28  CB       -42.8490  -15.8080  157.5530 C.3   114  ASP114      0.1436
     29  CG       -42.5910  -15.4640  156.0890 C.2   114  ASP114      0.3671
     30  OD1      -42.4650  -14.2610  155.7630 O.co2 114  ASP114     -0.2456
     31  OD2      -42.5290  -16.3930  155.2610 O.co2 114  ASP114     -0.2456
     32  N        -46.0600  -20.0780  148.2040 N.3   123  PHE123     -0.1241
     33  CA       -45.1390  -21.0880  148.7020 C.3   123  PHE123      0.1605
     34  C        -45.5450  -22.4510  148.1660 C.2   123  PHE123      0.2264
     35  O        -46.7020  -22.8650  148.3190 O.2   123  PHE123     -0.2867
     36  CB       -45.1270  -21.0790  150.2350 C.3   123  PHE123      0.0534
     37  CG       -44.1600  -22.0390  150.8340 C.ar  123  PHE123     -0.0203
     38  CD1      -44.4880  -23.3740  150.9710 C.ar  123  PHE123     -0.0042
     39  CD2      -42.9260  -21.6030  151.2700 C.ar  123  PHE123     -0.0042
     40  CE1      -43.5960  -24.2630  151.5040 C.ar  123  PHE123     -0.0003
     41  CE2      -42.0220  -22.4800  151.8100 C.ar  123  PHE123     -0.0003
     42  CZ       -42.3560  -23.8240  151.9300 C.ar  123  PHE123     -0.0000
     43  N        -40.0630  -31.8450  152.7390 N.3   131  MET131     -0.1230
     44  CA       -39.3470  -30.6230  152.3900 C.3   131  MET131      0.1702
     45  C        -39.7140  -29.4570  153.2890 C.2   131  MET131      0.2592
     46  O        -39.1650  -28.3660  153.1170 O.2   131  MET131     -0.2718
     47  CB       -39.6240  -30.2470  150.9230 C.3   131  MET131      0.0401
     48  CG       -39.3630  -31.3700  149.9070 C.3   131  MET131      0.0596
     49  SD       -37.6420  -31.5520  149.3490 S.3   131  MET131     -0.1393
     50  CE       -37.4030  -30.0050  148.4850 C.3   131  MET131      0.0692
     51  N        -40.6640  -29.6600  154.2070 N.am  132  VAL132     -0.1966
     52  CA       -41.1100  -28.6830  155.1930 C.3   132  VAL132      0.1727
     53  C        -41.2380  -29.4040  156.5330 C.2   132  VAL132      0.2616
     54  O        -41.1240  -30.6270  156.6090 O.2   132  VAL132     -0.2715
     55  CB       -42.4700  -28.0500  154.8130 C.3   132  VAL132      0.0290
     56  CG1      -42.4290  -27.4240  153.4100 C.3   132  VAL132      0.0023
     57  CG2      -43.5470  -29.0970  154.9050 C.3   132  VAL132      0.0023
     58  N        -41.5240  -28.6350  157.5940 N.am  133  ILE133     -0.1977
     59  CA       -41.7310  -29.2260  158.9190 C.3   133  ILE133      0.1596
     60  C        -42.9190  -30.1820  158.9150 C.2   133  ILE133      0.2287
     61  O        -43.8970  -30.0050  158.1720 O.2   133  ILE133     -0.2864
     62  CB       -41.9420  -28.1400  159.9850 C.3   133  ILE133      0.0276
     63  CG1      -43.0030  -27.1410  159.4850 C.3   133  ILE133      0.0022
     64  CG2      -40.6040  -27.4710  160.3340 C.3   133  ILE133      0.0022
     65  CD1      -43.4140  -26.1060  160.5070 C.3   133  ILE133      0.0001
     66  N        -46.6810  -29.4460  158.7200 N.3   136  TRP136     -0.1241
     67  CA       -47.3000  -29.0320  157.4670 C.3   136  TRP136      0.1605
     68  C        -47.5730  -30.2290  156.5600 C.2   136  TRP136      0.2264
     69  O        -48.6180  -30.2830  155.9050 O.2   136  TRP136     -0.2867
     70  CB       -46.4280  -28.0090  156.7360 C.3   136  TRP136      0.0550
     71  CG       -46.6960  -26.5400  156.9830 C.ar  136  TRP136      0.0003
     72  CD1      -46.6800  -25.8860  158.1770 C.ar  136  TRP136      0.0946
     73  CD2      -46.9230  -25.5310  155.9780 C.ar  136  TRP136      0.0152
     74  NE1      -46.9210  -24.5370  157.9870 N.ar  136  TRP136     -0.2442
     75  CE2      -47.0620  -24.2950  156.6460 C.ar  136  TRP136      0.0810
     76  CE3      -47.0130  -25.5570  154.5810 C.ar  136  TRP136      0.0012
     77  CZ2      -47.3110  -23.1000  155.9680 C.ar  136  TRP136      0.0191
     78  CZ3      -47.2700  -24.3610  153.9040 C.ar  136  TRP136      0.0001
     79  CH2      -47.4190  -23.1530  154.6010 C.ar  136  TRP136      0.0015
     80  N        -39.7410  -26.9990  164.6320 N.3   159  TYR159     -0.1241
     81  CA       -38.2840  -27.0160  164.5840 C.3   159  TYR159      0.1605
     82  C        -37.6420  -27.6460  165.8250 C.2   159  TYR159      0.2264
     83  O        -36.4180  -27.5800  165.9760 O.2   159  TYR159     -0.2867
     84  CB       -37.7640  -25.6020  164.3300 C.3   159  TYR159      0.0534
     85  CG       -38.1200  -25.1370  162.9210 C.ar  159  TYR159     -0.0201
     86  CD1      -37.4030  -25.5930  161.8150 C.ar  159  TYR159     -0.0009
     87  CD2      -39.1920  -24.2810  162.6960 C.ar  159  TYR159     -0.0009
     88  CE1      -37.7160  -25.1910  160.5420 C.ar  159  TYR159      0.0417
     89  CE2      -39.5240  -23.8770  161.4170 C.ar  159  TYR159      0.0417
     90  CZ       -38.7880  -24.3380  160.3410 C.ar  159  TYR159      0.1957
     91  OH       -39.1150  -23.9230  159.0720 O.3   159  TYR159     -0.2866
     92  N        -35.1410  -21.9650  164.2580 N.3   164  ALA164     -0.1231
     93  CA       -34.7610  -21.6690  162.8880 C.3   164  ALA164      0.1694
     94  C        -34.5840  -20.1710  162.7370 C.2   164  ALA164      0.2592
     95  O        -35.2640  -19.3780  163.3980 O.2   164  ALA164     -0.2718
     96  CB       -35.8030  -22.1870  161.8790 C.3   164  ALA164      0.0304
     97  N        -33.6330  -19.8000  161.8800 N.am  165  GLY165     -0.1957
     98  CA       -33.5810  -18.4730  161.3020 C.3   165  GLY165      0.1869
     99  C        -33.4240  -17.3330  162.2640 C.2   165  GLY165      0.2309
    100  O        -33.7100  -16.1870  161.8940 O.2   165  GLY165     -0.2863
    101  N        -35.1680  -16.4630  164.7390 N.3   167  VAL167     -0.1231
    102  CA       -36.4280  -15.7990  165.0630 C.3   167  VAL167      0.1692
    103  C        -37.3760  -16.7950  165.7230 C.2   167  VAL167      0.2591
    104  O        -38.2460  -16.4170  166.5200 O.2   167  VAL167     -0.2718
    105  CB       -37.0600  -15.1860  163.7980 C.3   167  VAL167      0.0266
    106  CG1      -36.1450  -14.1030  163.2100 C.3   167  VAL167      0.0020
    107  CG2      -37.3230  -16.2670  162.7750 C.3   167  VAL167      0.0020
    108  N        -37.2190  -18.0720  165.3900 N.am  168  ILE168     -0.1980
    109  CA       -38.0020  -19.1490  165.9910 C.3   168  ILE168      0.1595
    110  C        -37.1630  -19.7520  167.1110 C.2   168  ILE168      0.2287
    111  O        -36.0890  -20.3210  166.8300 O.2   168  ILE168     -0.2864
    112  CB       -38.3890  -20.1950  164.9410 C.3   168  ILE168      0.0276
    113  CG1      -39.2110  -19.5050  163.8350 C.3   168  ILE168      0.0022
    114  CG2      -39.1120  -21.3620  165.5830 C.3   168  ILE168      0.0022
    115  CD1      -40.0090  -20.4540  162.9680 C.3   168  ILE168      0.0001
    116  N        -49.9260  -21.4770  162.3000 N.3   176  PHE176     -0.1241
    117  CA       -50.0280  -21.0630  160.9120 C.3   176  PHE176      0.1605
    118  C        -51.4860  -20.9830  160.4940 C.2   176  PHE176      0.2264
    119  O        -52.2880  -21.8540  160.8370 O.2   176  PHE176     -0.2867
    120  CB       -49.3120  -22.0380  159.9890 C.3   176  PHE176      0.0534
    121  CG       -47.8240  -22.0480  160.1300 C.ar  176  PHE176     -0.0203
    122  CD1      -47.0440  -21.1930  159.3740 C.ar  176  PHE176     -0.0042
    123  CD2      -47.1990  -22.9430  160.9930 C.ar  176  PHE176     -0.0042
    124  CE1      -45.6700  -21.2130  159.4720 C.ar  176  PHE176     -0.0003
    125  CE2      -45.8300  -22.9710  161.0990 C.ar  176  PHE176     -0.0003
    126  CZ       -45.0580  -22.1070  160.3350 C.ar  176  PHE176     -0.0000
@<TRIPOS>BOND
     1    34    35    2
     2    34    33    1
     3    32    33    1
     4    50    49    1
     5    33    36    1
     6    49    48    1
     7    48    47    1
     8    36    37    1
     9    37    38   ar
    10    37    39   ar
    11    47    44    1
    12    38    40   ar
    13    39    41   ar
    14    40    42   ar
    15    41    42   ar
    16    44    43    1
    17    44    45    1
    18    46    45    2
    19    45    51   am
    20    56    55    1
    21     1     2    1
    22     9     7   ar
    23     9    11   ar
    24     7     6   ar
    25    78    76   ar
    26    78    79   ar
    27    51    52    1
    28    12    11    1
    29    76    73   ar
    30    79    77   ar
    31    11    10   ar
    32    55    57    1
    33    55    52    1
    34     2     5    1
    35     2     3    1
    36     6     5    1
    37     6     8   ar
    38     4     3    2
    39    52    53    1
    40    31    29   ar
    41    30    29   ar
    42    69    68    2
    43    10     8   ar
    44    77    75   ar
    45    73    75   ar
    46    73    71   ar
    47    29    28    1
    48    53    54    2
    49    53    58   am
    50    68    67    1
    51    75    74   ar
    52    70    71    1
    53    70    67    1
    54    71    72   ar
    55    67    66    1
    56    28    25    1
    57    58    59    1
    58    26    25    1
    59    26    27    2
    60    74    72   ar
    61    61    60    2
    62    25    24    1
    63    60    59    1
    64    59    62    1
    65    91    90    1
    66   122   124   ar
    67   122   121   ar
    68   124   126   ar
    69    63    62    1
    70    63    65    1
    71    24    15   am
    72    16    15    2
    73    62    64    1
    74   120   121    1
    75   120   117    1
    76   121   123   ar
    77   126   125   ar
    78    90    88   ar
    79    90    89   ar
    80    15    14    1
    81   118   119    2
    82   118   117    1
    83    88    86   ar
    84   117   116    1
    85   123   125   ar
    86    21    19   ar
    87    21    23   ar
    88    19    18   ar
    89    98    97    1
    90    98    99    1
    91    89    87   ar
    92    86    85   ar
    93    96    93    1
    94    97    94   am
    95   100    99    2
    96    14    13    1
    97    14    17    1
    98    23    22   ar
    99    18    17    1
   100    18    20   ar
   101    87    85   ar
   102    94    93    1
   103    94    95    2
   104   107   105    1
   105    93    92    1
   106    85    84    1
   107   115   113    1
   108   106   105    1
   109    22    20   ar
   110   105   102    1
   111   113   112    1
   112    84    81    1
   113    81    80    1
   114    81    82    1
   115   101   102    1
   116   112   114    1
   117   112   109    1
   118   102   103    1
   119   108   103   am
   120   108   109    1
   121   103   104    2
   122    82    83    2
   123   109   110    1
   124   111   110    2
