@<TRIPOS>MOLECULE
tmp/5klyA00.pdb
 178 174 0 0 0
SMALL
GASTEIGER

@<TRIPOS>ATOM
      1  N        -32.8480   -1.7410  -33.5150 N.3     7  ILE7       -0.1231
      2  CA       -31.8300   -0.9930  -34.2480 C.3     7  ILE7        0.1692
      3  C        -30.4340   -1.5130  -33.9340 C.2     7  ILE7        0.2592
      4  O        -29.5680   -1.5600  -34.8150 O.2     7  ILE7       -0.2718
      5  CB       -31.9740    0.5160  -33.9540 C.3     7  ILE7        0.0266
      6  CG1      -33.2560    1.0640  -34.5880 C.3     7  ILE7        0.0019
      7  CG2      -30.7450    1.2970  -34.4250 C.3     7  ILE7        0.0020
      8  CD1      -33.4440    0.6790  -36.0440 C.3     7  ILE7        0.0001
      9  N        -30.2010   -1.9430  -32.6920 N.am    8  PHE8       -0.1976
     10  CA       -28.8780   -2.4380  -32.3230 C.3     8  PHE8        0.1639
     11  C        -28.5900   -3.7910  -32.9670 C.2     8  PHE8        0.2290
     12  O        -27.4490   -4.0680  -33.3540 O.2     8  PHE8       -0.2864
     13  CB       -28.7200   -2.4820  -30.8020 C.3     8  PHE8        0.0560
     14  CG       -28.7230   -1.1200  -30.1470 C.ar    8  PHE8       -0.0200
     15  CD1      -28.6480    0.0410  -30.9040 C.ar    8  PHE8       -0.0042
     16  CD2      -28.7970   -1.0070  -28.7710 C.ar    8  PHE8       -0.0042
     17  CE1      -28.6570    1.2930  -30.2910 C.ar    8  PHE8       -0.0003
     18  CE2      -28.8070    0.2440  -28.1590 C.ar    8  PHE8       -0.0003
     19  CZ       -28.7370    1.3870  -28.9210 C.ar    8  PHE8       -0.0000
     20  N        -27.5270   -2.9020  -36.3790 N.3    11  ILE11      -0.1245
     21  CA       -26.1530   -2.4010  -36.3700 C.3    11  ILE11       0.1561
     22  C        -25.1620   -3.5560  -36.2610 C.2    11  ILE11       0.2260
     23  O        -24.1520   -3.5930  -36.9750 O.2    11  ILE11      -0.2867
     24  CB       -25.9730   -1.3620  -35.2470 C.3    11  ILE11       0.0252
     25  CG1      -26.6610   -0.0390  -35.6160 C.3    11  ILE11       0.0019
     26  CG2      -24.4910   -1.1460  -34.9330 C.3    11  ILE11       0.0019
     27  CD1      -26.6440    1.0090  -34.4980 C.3    11  ILE11       0.0001
     28  N        -27.4580   -1.4040  -40.7660 N.3    16  ILE16      -0.1231
     29  CA       -27.6480    0.0170  -40.5050 C.3    16  ILE16       0.1678
     30  C        -26.2760    0.5470  -40.1090 C.2    16  ILE16       0.2434
     31  O        -25.5420   -0.1450  -39.3880 O.2    16  ILE16      -0.2733
     32  CB       -28.6900    0.2140  -39.3920 C.3    16  ILE16       0.0265
     33  CG1      -30.1040    0.2150  -39.9830 C.3    16  ILE16       0.0019
     34  CG2      -28.4190    1.4680  -38.5780 C.3    16  ILE16       0.0020
     35  CD1      -31.1760    0.4810  -38.9560 C.3    16  ILE16       0.0001
     36  N        -25.8840    1.7430  -40.5420 N.am   17  PRO17      -0.2718
     37  CA       -24.5110    2.1970  -40.3030 C.3    17  PRO17       0.1535
     38  C        -24.2740    2.6430  -38.8700 C.2    17  PRO17       0.2598
     39  O        -25.1810    3.0780  -38.1550 O.2    17  PRO17      -0.2715
     40  CB       -24.3580    3.3810  -41.2660 C.3    17  PRO17       0.0310
     41  CG       -25.7410    3.9080  -41.4210 C.3    17  PRO17       0.0237
     42  CD       -26.6530    2.7070  -41.3500 C.3    17  PRO17       0.0939
     43  N        -23.0140    2.5330  -38.4630 N.am   18  ALA18      -0.1978
     44  CA       -22.5950    2.9750  -37.1480 C.3    18  ALA18       0.1597
     45  C        -21.1300    3.3670  -37.2230 C.2    18  ALA18       0.2287
     46  O        -20.3910    2.9250  -38.1090 O.2    18  ALA18      -0.2864
     47  CB       -22.8170    1.8810  -36.0970 C.3    18  ALA18       0.0319
     48  N        -19.7750    1.6200  -30.1590 N.3    30  PHE30      -0.1227
     49  CA       -20.0240    2.5420  -31.2620 C.3    30  PHE30       0.1736
     50  C        -20.5680    3.8420  -30.6910 C.2    30  PHE30       0.2595
     51  O        -21.1500    3.8620  -29.6030 O.2    30  PHE30      -0.2718
     52  CB       -20.9960    1.9410  -32.3030 C.3    30  PHE30       0.0547
     53  CG       -22.3370    1.5500  -31.7420 C.ar   30  PHE30      -0.0202
     54  CD1      -23.4280    2.3980  -31.8570 C.ar   30  PHE30      -0.0042
     55  CD2      -22.5070    0.3340  -31.0960 C.ar   30  PHE30      -0.0042
     56  CE1      -24.6690    2.0360  -31.3400 C.ar   30  PHE30      -0.0003
     57  CE2      -23.7450   -0.0330  -30.5740 C.ar   30  PHE30      -0.0003
     58  CZ       -24.8240    0.8220  -30.6950 C.ar   30  PHE30      -0.0000
     59  N        -20.3950    4.9290  -31.4420 N.am   31  HIS31      -0.1961
     60  CA       -20.7650    6.2500  -30.9440 C.3    31  HIS31       0.1787
     61  C        -22.2740    6.4570  -30.9460 C.2    31  HIS31       0.2620
     62  O        -22.9840    6.0100  -31.8540 O.2    31  HIS31      -0.2715
     63  CB       -20.0870    7.3340  -31.7680 C.3    31  HIS31       0.0785
     64  CG       -18.6090    7.3670  -31.5790 C.ar   31  HIS31       0.0821
     65  ND1      -18.0160    8.0310  -30.5270 N.ar   31  HIS31      -0.2267
     66  CD2      -17.6070    6.7840  -32.2760 C.ar   31  HIS31       0.1154
     67  CE1      -16.7060    7.8770  -30.6000 C.ar   31  HIS31       0.1986
     68  NE2      -16.4320    7.1210  -31.6480 N.ar   31  HIS31      -0.2212
     69  N        -22.7630    7.1570  -29.9250 N.am   32  ASP32      -0.1957
     70  CA       -24.1840    7.4650  -29.8430 C.3    32  ASP32       0.1840
     71  C        -24.5480    8.5680  -30.8360 C.2    32  ASP32       0.2622
     72  O        -23.8410    9.5710  -30.9580 O.2    32  ASP32      -0.2715
     73  CB       -24.5200    7.9090  -28.4170 C.3    32  ASP32       0.1450
     74  CG       -25.9970    7.8300  -28.1120 C.2    32  ASP32       0.3671
     75  OD1      -26.7800    8.5950  -28.7270 O.co2  32  ASP32      -0.2456
     76  OD2      -26.3720    7.0150  -27.2410 O.co2  32  ASP32      -0.2456
     77  N        -25.6800    8.3870  -31.5230 N.am   33  ILE33      -0.1963
     78  CA       -26.1410    9.3380  -32.5320 C.3    33  ILE33       0.1727
     79  C        -26.6650   10.6330  -31.9210 C.2    33  ILE33       0.2616
     80  O        -26.7640   11.6490  -32.6200 O.2    33  ILE33      -0.2715
     81  CB       -27.1950    8.6480  -33.4240 C.3    33  ILE33       0.0290
     82  CG1      -27.3670    9.3800  -34.7540 C.3    33  ILE33       0.0022
     83  CG2      -28.5160    8.5260  -32.7040 C.3    33  ILE33       0.0023
     84  CD1      -28.2410    8.6240  -35.7360 C.3    33  ILE33       0.0001
     85  N        -27.0060   10.6250  -30.6350 N.am   34  SER34      -0.1950
     86  CA       -27.4980   11.8080  -29.9270 C.3    34  SER34       0.1924
     87  C        -26.6310   12.0190  -28.6920 C.2    34  SER34       0.2314
     88  O        -27.0680   11.7920  -27.5570 O.2    34  SER34      -0.2863
     89  CB       -28.9730   11.6420  -29.5580 C.3    34  SER34       0.2116
     90  OG       -29.7870   11.5690  -30.7220 O.3    34  SER34      -0.2180
     91  N        -19.5230   10.2820  -26.2640 N.3    40  HIS40      -0.1241
     92  CA       -20.6450    9.4980  -25.7570 C.3    40  HIS40       0.1621
     93  C        -20.7860    8.2990  -26.6800 C.2    40  HIS40       0.2264
     94  O        -21.1760    8.4430  -27.8470 O.2    40  HIS40      -0.2867
     95  CB       -21.9190   10.3410  -25.7240 C.3    40  HIS40       0.0745
     96  CG       -23.1290    9.6210  -25.2160 C.ar   40  HIS40       0.0817
     97  ND1      -24.3580   10.2390  -25.1450 N.ar   40  HIS40      -0.2268
     98  CD2      -23.3100    8.3600  -24.7470 C.ar   40  HIS40       0.1154
     99  CE1      -25.2470    9.3890  -24.6640 C.ar   40  HIS40       0.1986
    100  NE2      -24.6390    8.2410  -24.4140 N.ar   40  HIS40      -0.2212
    101  N        -21.6530    3.7640  -26.8630 N.3    42  LEU42      -0.1245
    102  CA       -22.4030    2.6530  -26.3070 C.3    42  LEU42       0.1561
    103  C        -21.5920    1.3770  -26.4600 C.2    42  LEU42       0.2260
    104  O        -20.8770    1.1940  -27.4510 O.2    42  LEU42      -0.2867
    105  CB       -23.7270    2.4700  -27.0650 C.3    42  LEU42       0.0270
    106  CG       -24.6020    3.7220  -27.1450 C.3    42  LEU42       0.0019
    107  CD1      -25.8280    3.4360  -28.0030 C.3    42  LEU42       0.0001
    108  CD2      -25.0090    4.2020  -25.7650 C.3    42  LEU42       0.0001
    109  N        -29.6170    1.8060  -18.4710 N.3    88  ASN88      -0.1240
    110  CA       -30.9950    2.1780  -18.1720 C.3    88  ASN88       0.1653
    111  C        -31.9350    0.9860  -18.2820 C.2    88  ASN88       0.2266
    112  O        -31.8960    0.2470  -19.2700 O.2    88  ASN88      -0.2867
    113  CB       -31.4570    3.2780  -19.1210 C.3    88  ASN88       0.1155
    114  CG       -30.6940    4.5460  -18.9220 C.2    88  ASN88       0.2627
    115  OD1      -30.3500    4.8910  -17.7930 O.2    88  ASN88      -0.2716
    116  ND2      -30.4140    5.2490  -20.0090 N.am   88  ASN88      -0.0877
    117  N        -38.9910    2.0430  -18.0800 N.3    91  SER91      -0.1202
    118  CA       -39.5360    3.3830  -18.2790 C.3    91  SER91       0.2020
    119  C        -38.8750    4.4000  -17.3550 C.2    91  SER91       0.2619
    120  O        -38.4420    5.4700  -17.7980 O.2    91  SER91      -0.2717
    121  CB       -41.0540    3.3590  -18.0730 C.3    91  SER91       0.2103
    122  OG       -41.6220    4.6240  -18.3490 O.3    91  SER91      -0.2182
    123  N        -38.7860    4.0850  -16.0610 N.am   92  ASP92      -0.1959
    124  CA       -38.1650    5.0180  -15.1240 C.3    92  ASP92       0.1840
    125  C        -36.6720    5.1900  -15.3870 C.2    92  ASP92       0.2623
    126  O        -36.1230    6.2540  -15.0970 O.2    92  ASP92      -0.2715
    127  CB       -38.3970    4.5920  -13.6720 C.3    92  ASP92       0.1450
    128  CG       -39.7250    5.0870  -13.1050 C.2    92  ASP92       0.3671
    129  OD1      -40.4610    5.8180  -13.8080 O.co2  92  ASP92      -0.2456
    130  OD2      -40.0160    4.7470  -11.9380 O.co2  92  ASP92      -0.2456
    131  N        -35.9970    4.1640  -15.9200 N.am   93  GLY93      -0.1940
    132  CA       -34.5980    4.3250  -16.2930 C.3    93  GLY93       0.2014
    133  C        -34.3920    5.1590  -17.5390 C.2    93  GLY93       0.2639
    134  O        -33.2910    5.6770  -17.7550 O.2    93  GLY93      -0.2714
    135  N        -35.4270    5.3140  -18.3570 N.am   94  GLY94      -0.1939
    136  CA       -35.2800    5.9920  -19.6260 C.3    94  GLY94       0.2014
    137  C        -34.8710    5.0960  -20.7680 C.2    94  GLY94       0.2639
    138  O        -34.4260    5.6020  -21.8050 O.2    94  GLY94      -0.2714
    139  N        -34.9970    3.7780  -20.6170 N.am   95  GLN95      -0.1963
    140  CA       -34.6370    2.8840  -21.7070 C.3    95  GLN95       0.1733
    141  C        -35.4870    3.1790  -22.9410 C.2    95  GLN95       0.2617
    142  O        -36.7070    3.3620  -22.8490 O.2    95  GLN95      -0.2715
    143  CB       -34.7970    1.4290  -21.2690 C.3    95  GLN95       0.0408
    144  CG       -34.2030    0.4640  -22.2710 C.3    95  GLN95       0.0908
    145  CD       -34.0090   -0.9330  -21.7090 C.2    95  GLN95       0.2608
    146  OE1      -34.5150   -1.2790  -20.6320 O.2    95  GLN95      -0.2717
    147  NE2      -33.2770   -1.7530  -22.4530 N.am   95  GLN95      -0.0878
    148  N        -34.8330    3.2560  -24.0990 N.am   96  SER96      -0.1936
    149  CA       -35.5210    3.5370  -25.3530 C.3    96  SER96       0.2055
    150  C        -35.2350    2.5260  -26.4510 C.2    96  SER96       0.2642
    151  O        -35.9780    2.4950  -27.4390 O.2    96  SER96      -0.2714
    152  CB       -35.1930    4.9550  -25.8570 C.3    96  SER96       0.2130
    153  OG       -33.8010    5.0990  -26.1240 O.3    96  SER96      -0.2179
    154  N        -34.1890    1.7160  -26.3240 N.am   97  VAL97      -0.1977
    155  CA       -33.9230    0.5910  -27.2120 C.3    97  VAL97       0.1596
    156  C        -33.8140   -0.6270  -26.3120 C.2    97  VAL97       0.2287
    157  O        -32.9670   -0.6590  -25.4070 O.2    97  VAL97      -0.2864
    158  CB       -32.6210    0.7780  -28.0090 C.3    97  VAL97       0.0276
    159  CG1      -32.3910   -0.4190  -28.9350 C.3    97  VAL97       0.0022
    160  CG2      -32.6340    2.0960  -28.7910 C.3    97  VAL97       0.0022
    161  N        -27.6420   -1.9150  -23.2590 N.3   101  ASN101     -0.1240
    162  CA       -26.6240   -0.9970  -23.7510 C.3   101  ASN101      0.1653
    163  C        -26.0100   -0.2130  -22.5970 C.2   101  ASN101      0.2266
    164  O        -26.7240    0.3350  -21.7480 O.2   101  ASN101     -0.2867
    165  CB       -27.1510   -0.0840  -24.8850 C.3   101  ASN101      0.1155
    166  CG       -28.2930    0.8350  -24.4550 C.2   101  ASN101      0.2627
    167  OD1      -28.0640    1.9770  -24.0510 O.2   101  ASN101     -0.2716
    168  ND2      -29.5280    0.3650  -24.5950 N.am  101  ASN101     -0.0877
    169  N        -23.8220    2.9660  -21.6530 N.3   103  HIS103     -0.1241
    170  CA       -23.3440    4.2590  -22.1230 C.3   103  HIS103      0.1621
    171  C        -22.0240    4.5760  -21.4460 C.2   103  HIS103      0.2264
    172  O        -21.8480    4.3030  -20.2540 O.2   103  HIS103     -0.2867
    173  CB       -24.3120    5.3680  -21.7110 C.3   103  HIS103      0.0745
    174  CG       -25.6800    5.2500  -22.2960 C.ar  103  HIS103      0.0817
    175  ND1      -26.1320    6.0820  -23.2970 N.ar  103  HIS103     -0.2268
    176  CD2      -26.7010    4.4130  -22.0050 C.ar  103  HIS103      0.1154
    177  CE1      -27.3690    5.7450  -23.6150 C.ar  103  HIS103      0.1986
    178  NE2      -27.7410    4.7420  -22.8400 N.ar  103  HIS103     -0.2212
@<TRIPOS>BOND
     1    41    42    1
     2    41    40    1
     3    42    36    1
     4    40    37    1
     5    28    29    1
     6    36    37    1
     7    36    30   am
     8    29    30    1
     9    29    32    1
    10    37    38    1
    11    30    31    2
    12    33    32    1
    13    33    35    1
    14    32    34    1
    15    38    43   am
    16    38    39    2
    17    43    44    1
    18    46    45    2
    19    45    44    1
    20    44    47    1
    21    23    22    2
    22    20    21    1
    23    21    22    1
    24    21    24    1
    25     8     6    1
    26    84    82    1
    27    25    24    1
    28    25    27    1
    29    24    26    1
    30     4     3    2
    31    82    81    1
    32     6     5    1
    33     7     5    1
    34     2     5    1
    35     2     3    1
    36     2     1    1
    37     3     9   am
    38    81    83    1
    39    81    78    1
    40    12    11    2
    41    11    10    1
    42     9    10    1
    43    80    79    2
    44    78    79    1
    45    78    77    1
    46    10    13    1
    47    52    53    1
    48    52    49    1
    49    66    68   ar
    50    66    64   ar
    51    79    85   am
    52    54    53   ar
    53    54    56   ar
    54    62    61    2
    55    63    64    1
    56    63    60    1
    57    53    55   ar
    58    68    67   ar
    59    64    65   ar
    60    77    71   am
    61    59    60    1
    62    59    50   am
    63    56    58   ar
    64    49    50    1
    65    49    48    1
    66    55    57   ar
    67    72    71    2
    68    61    60    1
    69    61    69   am
    70    15    17   ar
    71    15    14   ar
    72    71    70    1
    73    13    14    1
    74    90    89    1
    75    58    57   ar
    76    50    51    2
    77    85    86    1
    78    67    65   ar
    79    17    19   ar
    80    14    16   ar
    81    86    89    1
    82    86    87    1
    83    69    70    1
    84    70    73    1
    85   159   158    1
    86    19    18   ar
    87   160   158    1
    88    16    18   ar
    89    75    74   ar
    90    87    88    2
    91    73    74    1
    92    74    76   ar
    93   158   155    1
    94   107   106    1
    95    94    93    2
    96   104   103    2
    97   151   150    2
    98   155   154    1
    99   155   156    1
   100   106   105    1
   101   106   108    1
   102   105   102    1
   103   101   102    1
   104    93    92    1
   105   103   102    1
   106   150   154   am
   107   150   149    1
   108   156   157    2
   109    91    92    1
   110   153   152    1
   111   152   149    1
   112    92    95    1
   113    95    96    1
   114   149   148    1
   115    96    97   ar
   116    96    98   ar
   117    97    99   ar
   118   165   166    1
   119   165   162    1
   120    98   100   ar
   121    99   100   ar
   122   168   166   am
   123   166   167    2
   124   148   141   am
   125   162   161    1
   126   162   163    1
   127   177   175   ar
   128   177   178   ar
   129   175   174   ar
   130   141   142    2
   131   141   140    1
   132   178   176   ar
   133   163   164    2
   134   147   145   am
   135   174   176   ar
   136   174   173    1
   137   144   145    1
   138   144   143    1
   139   170   173    1
   140   170   169    1
   141   170   171    1
   142   138   137    2
   143   145   146    2
   144   140   143    1
   145   140   139    1
   146   171   172    2
   147   137   139   am
   148   137   136    1
   149   116   114   am
   150   136   135    1
   151   112   111    2
   152   113   114    1
   153   113   110    1
   154   114   115    2
   155   109   110    1
   156   135   133   am
   157   122   121    1
   158   111   110    1
   159   118   117    1
   160   118   121    1
   161   118   119    1
   162   120   119    2
   163   134   133    2
   164   133   132    1
   165   119   123   am
   166   132   131    1
   167   123   124    1
   168   131   125   am
   169   125   124    1
   170   125   126    2
   171   124   127    1
   172   129   128   ar
   173   127   128    1
   174   128   130   ar
