@<TRIPOS>MOLECULE
tmp/5km1A00.pdb
 171 168 0 0 0
SMALL
GASTEIGER

@<TRIPOS>ATOM
      1  N        -33.3040   -1.6290  -33.5340 N.3     7  ILE7       -0.1231
      2  CA       -32.2590   -0.8690  -34.2210 C.3     7  ILE7        0.1692
      3  C        -30.8860   -1.4480  -33.9080 C.2     7  ILE7        0.2592
      4  O        -30.0090   -1.5200  -34.7790 O.2     7  ILE7       -0.2718
      5  CB       -32.3520    0.6240  -33.8410 C.3     7  ILE7        0.0266
      6  CG1      -31.1310    1.4070  -34.3370 C.3     7  ILE7        0.0019
      7  CG2      -32.4890    0.8080  -32.3240 C.3     7  ILE7        0.0020
      8  CD1      -30.9750    1.3960  -35.8310 C.3     7  ILE7        0.0001
      9  N        -30.6840   -1.8920  -32.6690 N.am    8  PHE8       -0.1976
     10  CA       -29.3710   -2.4010  -32.2880 C.3     8  PHE8        0.1639
     11  C        -29.1080   -3.7660  -32.9020 C.2     8  PHE8        0.2290
     12  O        -27.9720   -4.0760  -33.2720 O.2     8  PHE8       -0.2864
     13  CB       -29.2500   -2.4470  -30.7650 C.3     8  PHE8        0.0560
     14  CG       -29.1660   -1.0840  -30.1220 C.ar    8  PHE8       -0.0200
     15  CD1      -29.1680    0.0680  -30.8940 C.ar    8  PHE8       -0.0042
     16  CD2      -29.0450   -0.9620  -28.7440 C.ar    8  PHE8       -0.0042
     17  CE1      -29.0770    1.3370  -30.2970 C.ar    8  PHE8       -0.0003
     18  CE2      -28.9610    0.2960  -28.1380 C.ar    8  PHE8       -0.0003
     19  CZ       -28.9800    1.4440  -28.9150 C.ar    8  PHE8       -0.0000
     20  N        -28.0100   -2.9160  -36.3950 N.3    11  ILE11      -0.1245
     21  CA       -26.6390   -2.4160  -36.3820 C.3    11  ILE11       0.1561
     22  C        -25.6480   -3.5650  -36.2210 C.2    11  ILE11       0.2260
     23  O        -24.6060   -3.5940  -36.8860 O.2    11  ILE11      -0.2867
     24  CB       -26.4700   -1.3490  -35.2850 C.3    11  ILE11       0.0252
     25  CG1      -27.1480   -0.0490  -35.7230 C.3    11  ILE11       0.0019
     26  CG2      -24.9910   -1.1190  -34.9720 C.3    11  ILE11       0.0019
     27  CD1      -27.2310    1.0260  -34.6180 C.3    11  ILE11       0.0001
     28  N        -27.9010   -1.5030  -40.7280 N.3    16  ILE16      -0.1231
     29  CA       -28.0580   -0.0640  -40.5480 C.3    16  ILE16       0.1678
     30  C        -26.6960    0.4600  -40.1070 C.2    16  ILE16       0.2434
     31  O        -26.0490   -0.1650  -39.2540 O.2    16  ILE16      -0.2733
     32  CB       -29.1640    0.2560  -39.5300 C.3    16  ILE16       0.0265
     33  CG1      -30.5320   -0.1080  -40.1130 C.3    16  ILE16       0.0019
     34  CG2      -29.1310    1.7220  -39.1220 C.3    16  ILE16       0.0020
     35  CD1      -31.6840    0.1520  -39.1640 C.3    16  ILE16       0.0001
     36  N        -26.2110    1.5740  -40.6540 N.am   17  PRO17      -0.2718
     37  CA       -24.8420    2.0000  -40.3450 C.3    17  PRO17       0.1535
     38  C        -24.7040    2.5460  -38.9380 C.2    17  PRO17       0.2598
     39  O        -25.6420    3.0960  -38.3550 O.2    17  PRO17      -0.2715
     40  CB       -24.5580    3.0960  -41.3830 C.3    17  PRO17       0.0310
     41  CG       -25.5320    2.8380  -42.4860 C.3    17  PRO17       0.0237
     42  CD       -26.7570    2.2840  -41.8240 C.3    17  PRO17       0.0939
     43  N        -23.4960    2.3960  -38.4040 N.am   18  ALA18      -0.1964
     44  CA       -23.1360    2.9960  -37.1310 C.3    18  ALA18       0.1728
     45  C        -21.6510    3.3100  -37.1660 C.2    18  ALA18       0.2616
     46  O        -20.9100    2.8360  -38.0310 O.2    18  ALA18      -0.2715
     47  CB       -23.4790    2.0780  -35.9450 C.3    18  ALA18       0.0334
     48  N        -21.2260    4.1400  -36.2270 N.am   19  LYS19      -0.1977
     49  CA       -19.8300    4.5500  -36.1350 C.3    19  LYS19       0.1596
     50  C        -19.1840    3.6650  -35.0770 C.2    19  LYS19       0.2287
     51  O        -19.2930    3.9190  -33.8720 O.2    19  LYS19      -0.2864
     52  CB       -19.7110    6.0380  -35.8110 C.3    19  LYS19       0.0298
     53  CG       -20.3680    7.0020  -36.8360 C.3    19  LYS19       0.0038
     54  CD       -20.0000    6.7080  -38.2880 C.3    19  LYS19       0.0206
     55  CE       -18.4980    6.6440  -38.5440 C.3    19  LYS19       0.1093
     56  NZ       -17.7730    7.8610  -38.1280 N.3    19  LYS19      -0.1314
     57  N        -20.2090    1.5350  -30.1620 N.3    30  PHE30      -0.1227
     58  CA       -20.4180    2.4810  -31.2500 C.3    30  PHE30       0.1736
     59  C        -20.9620    3.7790  -30.6730 C.2    30  PHE30       0.2595
     60  O        -21.5590    3.8000  -29.5970 O.2    30  PHE30      -0.2718
     61  CB       -21.3500    1.9010  -32.3320 C.3    30  PHE30       0.0547
     62  CG       -22.7110    1.4850  -31.8260 C.ar   30  PHE30      -0.0202
     63  CD1      -23.7970    2.3400  -31.9340 C.ar   30  PHE30      -0.0042
     64  CD2      -22.9000    0.2400  -31.2360 C.ar   30  PHE30      -0.0042
     65  CE1      -25.0530    1.9600  -31.4710 C.ar   30  PHE30      -0.0003
     66  CE2      -24.1450   -0.1460  -30.7720 C.ar   30  PHE30      -0.0003
     67  CZ       -25.2250    0.7170  -30.8840 C.ar   30  PHE30      -0.0000
     68  N        -20.7780    4.8670  -31.4200 N.am   31  HIS31      -0.1961
     69  CA       -21.1710    6.1710  -30.8990 C.3    31  HIS31       0.1787
     70  C        -22.6850    6.3460  -30.8880 C.2    31  HIS31       0.2620
     71  O        -23.4020    5.8400  -31.7500 O.2    31  HIS31      -0.2715
     72  CB       -20.5200    7.2770  -31.7260 C.3    31  HIS31       0.0785
     73  CG       -19.0370    7.3320  -31.5580 C.ar   31  HIS31       0.0821
     74  ND1      -18.4360    8.0260  -30.5300 N.ar   31  HIS31      -0.2267
     75  CD2      -18.0360    6.7480  -32.2590 C.ar   31  HIS31       0.1154
     76  CE1      -17.1250    7.8870  -30.6200 C.ar   31  HIS31       0.1986
     77  NE2      -16.8560    7.1120  -31.6570 N.ar   31  HIS31      -0.2212
     78  N        -23.1700    7.0870  -29.8920 N.am   32  ASP32      -0.1957
     79  CA       -24.5910    7.3880  -29.7990 C.3    32  ASP32       0.1840
     80  C        -24.9780    8.4590  -30.8150 C.2    32  ASP32       0.2622
     81  O        -24.2740    9.4570  -30.9790 O.2    32  ASP32      -0.2715
     82  CB       -24.9360    7.8640  -28.3890 C.3    32  ASP32       0.1450
     83  CG       -26.4110    7.7700  -28.1060 C.2    32  ASP32       0.3671
     84  OD1      -27.1880    8.5630  -28.6770 O.co2  32  ASP32      -0.2456
     85  OD2      -26.7990    6.8960  -27.3250 O.co2  32  ASP32      -0.2456
     86  N        -26.1210    8.2590  -31.4850 N.am   33  ILE33      -0.1963
     87  CA       -26.5530    9.2060  -32.5150 C.3    33  ILE33       0.1727
     88  C        -27.0520   10.5210  -31.9210 C.2    33  ILE33       0.2616
     89  O        -27.1190   11.5360  -32.6310 O.2    33  ILE33      -0.2715
     90  CB       -27.6330    8.5430  -33.3920 C.3    33  ILE33       0.0290
     91  CG1      -27.7750    9.2590  -34.7380 C.3    33  ILE33       0.0022
     92  CG2      -28.9660    8.4690  -32.6520 C.3    33  ILE33       0.0023
     93  CD1      -28.6480    8.4810  -35.7260 C.3    33  ILE33       0.0001
     94  N        -27.3920   10.5360  -30.6340 N.am   34  SER34      -0.1950
     95  CA       -27.8740   11.7340  -29.9460 C.3    34  SER34       0.1924
     96  C        -27.0170   11.9500  -28.7050 C.2    34  SER34       0.2314
     97  O        -27.4640   11.7340  -27.5750 O.2    34  SER34      -0.2863
     98  CB       -29.3550   11.6020  -29.5880 C.3    34  SER34       0.2116
     99  OG       -30.1560   11.5950  -30.7590 O.3    34  SER34      -0.2180
    100  N        -19.9380   10.2630  -26.3020 N.3    40  HIS40      -0.1241
    101  CA       -21.0600    9.4790  -25.7890 C.3    40  HIS40       0.1621
    102  C        -21.2000    8.2620  -26.6890 C.2    40  HIS40       0.2264
    103  O        -21.5920    8.4000  -27.8580 O.2    40  HIS40      -0.2867
    104  CB       -22.3440   10.3200  -25.7620 C.3    40  HIS40       0.0745
    105  CG       -23.5490    9.5900  -25.2460 C.ar   40  HIS40       0.0817
    106  ND1      -24.7810   10.1970  -25.1300 N.ar   40  HIS40      -0.2268
    107  CD2      -23.7170    8.3150  -24.8120 C.ar   40  HIS40       0.1154
    108  CE1      -25.6590    9.3290  -24.6560 C.ar   40  HIS40       0.1986
    109  NE2      -25.0420    8.1760  -24.4610 N.ar   40  HIS40      -0.2212
    110  N        -22.0130    3.6920  -26.8530 N.3    42  LEU42      -0.1245
    111  CA       -22.7820    2.5720  -26.3330 C.3    42  LEU42       0.1561
    112  C        -21.9560    1.3040  -26.4620 C.2    42  LEU42       0.2260
    113  O        -21.2350    1.1350  -27.4490 O.2    42  LEU42      -0.2867
    114  CB       -24.0890    2.4010  -27.1180 C.3    42  LEU42       0.0270
    115  CG       -24.9560    3.6550  -27.1530 C.3    42  LEU42       0.0019
    116  CD1      -25.9440    3.5970  -28.3100 C.3    42  LEU42       0.0001
    117  CD2      -25.6900    3.8090  -25.8360 C.3    42  LEU42       0.0001
    118  N        -30.0010    2.1580  -18.5180 N.3    88  ASN88      -0.1240
    119  CA       -31.3840    2.6010  -18.3330 C.3    88  ASN88       0.1653
    120  C        -32.2980    1.3850  -18.4020 C.2    88  ASN88       0.2266
    121  O        -32.3190    0.6890  -19.4200 O.2    88  ASN88      -0.2867
    122  CB       -31.7990    3.5940  -19.4180 C.3    88  ASN88       0.1155
    123  CG       -31.0970    4.9160  -19.3080 C.2    88  ASN88       0.2627
    124  OD1      -30.6030    5.2840  -18.2490 O.2    88  ASN88      -0.2716
    125  ND2      -31.0820    5.6600  -20.4030 N.am   88  ASN88      -0.0877
    126  N        -35.8750    5.3690  -18.1930 N.3    94  GLY94      -0.1210
    127  CA       -35.7570    6.0820  -19.4420 C.3    94  GLY94       0.1956
    128  C        -35.4010    5.2260  -20.6330 C.2    94  GLY94       0.2612
    129  O        -34.9980    5.7720  -21.6650 O.2    94  GLY94      -0.2717
    130  N        -35.5210    3.9050  -20.5230 N.am   95  GLN95      -0.1965
    131  CA       -35.1490    3.0300  -21.6310 C.3    95  GLN95       0.1733
    132  C        -36.0280    3.2800  -22.8560 C.2    95  GLN95       0.2617
    133  O        -37.2500    3.4350  -22.7470 O.2    95  GLN95      -0.2715
    134  CB       -35.2480    1.5660  -21.1980 C.3    95  GLN95       0.0408
    135  CG       -34.7370    0.5880  -22.2470 C.3    95  GLN95       0.0908
    136  CD       -34.4730   -0.8030  -21.6930 C.2    95  GLN95       0.2608
    137  OE1      -34.8190   -1.1170  -20.5430 O.2    95  GLN95      -0.2717
    138  NE2      -33.8370   -1.6470  -22.5050 N.am   95  GLN95      -0.0878
    139  N        -35.3950    3.3300  -24.0340 N.am   96  SER96      -0.1936
    140  CA       -36.1200    3.4820  -25.2970 C.3    96  SER96       0.2055
    141  C        -35.7900    2.4190  -26.3360 C.2    96  SER96       0.2642
    142  O        -36.5580    2.2710  -27.2900 O.2    96  SER96      -0.2714
    143  CB       -35.8850    4.8730  -25.9110 C.3    96  SER96       0.2130
    144  OG       -34.5400    5.0790  -26.3030 O.3    96  SER96      -0.2179
    145  N        -34.7000    1.6730  -26.1860 N.am   97  VAL97      -0.1977
    146  CA       -34.3600    0.5700  -27.0820 C.3    97  VAL97       0.1596
    147  C        -34.2170   -0.6710  -26.2220 C.2    97  VAL97       0.2287
    148  O        -33.3600   -0.7090  -25.3290 O.2    97  VAL97      -0.2864
    149  CB       -33.0690    0.8280  -27.8740 C.3    97  VAL97       0.0276
    150  CG1      -32.7030   -0.4220  -28.7010 C.3    97  VAL97       0.0022
    151  CG2      -33.2220    2.0540  -28.7780 C.3    97  VAL97       0.0022
    152  N        -27.8880   -2.3200  -23.1730 N.3   101  HIS101     -0.1241
    153  CA       -26.7350   -1.5250  -23.5800 C.3   101  HIS101      0.1621
    154  C        -26.2280   -0.6850  -22.4190 C.2   101  HIS101      0.2264
    155  O        -26.9910   -0.2720  -21.5400 O.2   101  HIS101     -0.2867
    156  CB       -27.0600   -0.6200  -24.7700 C.3   101  HIS101      0.0745
    157  CG       -28.2910    0.2030  -24.5910 C.ar  101  HIS101      0.0817
    158  ND1      -29.5610   -0.3130  -24.7470 N.ar  101  HIS101     -0.2268
    159  CD2      -28.4480    1.5160  -24.3000 C.ar  101  HIS101      0.1154
    160  CE1      -30.4480    0.6450  -24.5510 C.ar  101  HIS101      0.1986
    161  NE2      -29.7990    1.7630  -24.2730 N.ar  101  HIS101     -0.2212
    162  N        -24.3590    2.8800  -21.6500 N.3   103  HIS103     -0.1241
    163  CA       -23.8870    4.1890  -22.0970 C.3   103  HIS103      0.1621
    164  C        -22.5480    4.5110  -21.4550 C.2   103  HIS103      0.2264
    165  O        -22.3430    4.2500  -20.2690 O.2   103  HIS103     -0.2867
    166  CB       -24.8540    5.3050  -21.6900 C.3   103  HIS103      0.0745
    167  CG       -26.2240    5.2110  -22.2840 C.ar  103  HIS103      0.0817
    168  ND1      -26.6040    5.9390  -23.3920 N.ar  103  HIS103     -0.2268
    169  CD2      -27.3210    4.5250  -21.8890 C.ar  103  HIS103      0.1154
    170  CE1      -27.8750    5.6950  -23.6620 C.ar  103  HIS103      0.1986
    171  NE2      -28.3340    4.8430  -22.7620 N.ar  103  HIS103     -0.2212
@<TRIPOS>BOND
     1    41    42    1
     2    41    40    1
     3    42    36    1
     4    40    37    1
     5    28    29    1
     6    36    37    1
     7    36    30   am
     8    29    30    1
     9    29    32    1
    10    37    38    1
    11    33    32    1
    12    33    35    1
    13    30    31    2
    14    32    34    1
    15    38    43   am
    16    38    39    2
    17    55    54    1
    18    55    56    1
    19    43    44    1
    20    54    53    1
    21    46    45    2
    22    45    44    1
    23    45    48   am
    24    44    47    1
    25    23    22    2
    26    53    52    1
    27    20    21    1
    28    21    22    1
    29    21    24    1
    30    48    49    1
    31    49    52    1
    32    49    50    1
    33     8     6    1
    34    93    91    1
    35    25    24    1
    36    25    27    1
    37    24    26    1
    38    50    51    2
    39     4     3    2
    40    91    90    1
    41     6     5    1
    42     2     3    1
    43     2     5    1
    44     2     1    1
    45     3     9   am
    46     5     7    1
    47    90    92    1
    48    90    87    1
    49    12    11    2
    50    11    10    1
    51     9    10    1
    52    89    88    2
    53    87    88    1
    54    87    86    1
    55    61    62    1
    56    61    58    1
    57    10    13    1
    58    75    77   ar
    59    75    73   ar
    60    63    62   ar
    61    63    65   ar
    62    88    94   am
    63    62    64   ar
    64    71    70    2
    65    72    73    1
    66    72    69    1
    67    77    76   ar
    68    73    74   ar
    69    86    80   am
    70    65    67   ar
    71    68    69    1
    72    68    59   am
    73    58    59    1
    74    58    57    1
    75    64    66   ar
    76    81    80    2
    77    69    70    1
    78    15    17   ar
    79    15    14   ar
    80    70    78   am
    81    67    66   ar
    82    80    79    1
    83    13    14    1
    84    99    98    1
    85    59    60    2
    86    94    95    1
    87    76    74   ar
    88    17    19   ar
    89    14    16   ar
    90    95    98    1
    91    95    96    1
    92    78    79    1
    93    79    82    1
    94    19    18   ar
    95   151   149    1
    96    16    18   ar
    97    96    97    2
    98   150   149    1
    99    84    83   ar
   100    82    83    1
   101   116   115    1
   102    83    85   ar
   103   149   146    1
   104   103   102    2
   105   113   112    2
   106   142   141    2
   107   115   114    1
   108   115   117    1
   109   114   111    1
   110   146   147    1
   111   146   145    1
   112   110   111    1
   113   102   101    1
   114   112   111    1
   115   141   145   am
   116   141   140    1
   117   144   143    1
   118   100   101    1
   119   147   148    2
   120   143   140    1
   121   101   104    1
   122   104   105    1
   123   140   139    1
   124   105   106   ar
   125   105   107   ar
   126   106   108   ar
   127   107   109   ar
   128   156   157    1
   129   156   153    1
   130   158   157   ar
   131   158   160   ar
   132   108   109   ar
   133   157   159   ar
   134   160   161   ar
   135   159   161   ar
   136   139   132   am
   137   170   168   ar
   138   170   171   ar
   139   153   152    1
   140   153   154    1
   141   168   167   ar
   142   132   133    2
   143   132   131    1
   144   171   169   ar
   145   138   136   am
   146   154   155    2
   147   167   169   ar
   148   167   166    1
   149   135   136    1
   150   135   134    1
   151   163   166    1
   152   163   162    1
   153   163   164    1
   154   136   137    2
   155   129   128    2
   156   131   134    1
   157   131   130    1
   158   164   165    2
   159   128   130   am
   160   128   127    1
   161   125   123   am
   162   127   126    1
   163   121   120    2
   164   122   123    1
   165   122   119    1
   166   123   124    2
   167   118   119    1
   168   120   119    1
