@<TRIPOS>MOLECULE
tmp/5km2A00.pdb
 150 146 0 0 0
SMALL
GASTEIGER

@<TRIPOS>ATOM
      1  N        -33.2780   -1.8380  -33.5620 N.3     7  ILE7       -0.1231
      2  CA       -32.2590   -1.1110  -34.3060 C.3     7  ILE7        0.1692
      3  C        -30.8450   -1.5890  -33.9390 C.2     7  ILE7        0.2592
      4  O        -29.9570   -1.6150  -34.7880 O.2     7  ILE7       -0.2718
      5  CB       -32.4080    0.4130  -34.1180 C.3     7  ILE7        0.0266
      6  CG1      -33.7420    0.8880  -34.6970 C.3     7  ILE7        0.0019
      7  CG2      -31.2690    1.1670  -34.7880 C.3     7  ILE7        0.0020
      8  CD1      -33.9190    0.5840  -36.1720 C.3     7  ILE7        0.0001
      9  N        -30.6480   -1.9970  -32.6870 N.am    8  PHE8       -0.1976
     10  CA       -29.3430   -2.5080  -32.2650 C.3     8  PHE8        0.1639
     11  C        -29.0280   -3.8810  -32.8650 C.2     8  PHE8        0.2290
     12  O        -27.8860   -4.1440  -33.2620 O.2     8  PHE8       -0.2864
     13  CB       -29.2080   -2.5020  -30.7410 C.3     8  PHE8        0.0560
     14  CG       -29.1720   -1.1230  -30.1430 C.ar    8  PHE8       -0.0200
     15  CD1      -29.1670    0.0160  -30.9390 C.ar    8  PHE8       -0.0042
     16  CD2      -29.1240   -0.9680  -28.7730 C.ar    8  PHE8       -0.0042
     17  CE1      -29.1350    1.2860  -30.3670 C.ar    8  PHE8       -0.0003
     18  CE2      -29.0890    0.3020  -28.2030 C.ar    8  PHE8       -0.0003
     19  CZ       -29.0960    1.4190  -29.0040 C.ar    8  PHE8       -0.0000
     20  N        -27.9530   -3.0490  -36.3400 N.3    11  ILE11      -0.1245
     21  CA       -26.5990   -2.5030  -36.3470 C.3    11  ILE11       0.1561
     22  C        -25.5700   -3.6350  -36.2130 C.2    11  ILE11       0.2260
     23  O        -24.5700   -3.6520  -36.9340 O.2    11  ILE11      -0.2867
     24  CB       -26.4280   -1.4410  -35.2420 C.3    11  ILE11       0.0252
     25  CG1      -27.1210   -0.1350  -35.6540 C.3    11  ILE11       0.0019
     26  CG2      -24.9500   -1.1930  -34.9100 C.3    11  ILE11       0.0019
     27  CD1      -27.1500    0.9270  -34.5710 C.3    11  ILE11       0.0001
     28  N        -27.8920   -1.5490  -40.7020 N.3    16  ILE16      -0.1245
     29  CA       -28.0570   -0.1110  -40.5020 C.3    16  ILE16       0.1561
     30  C        -26.6810    0.3960  -40.1020 C.2    16  ILE16       0.2260
     31  O        -26.0120   -0.2320  -39.2890 O.2    16  ILE16      -0.2867
     32  CB       -29.1050    0.1710  -39.3990 C.3    16  ILE16       0.0252
     33  CG1      -30.4990   -0.1790  -39.9260 C.3    16  ILE16       0.0019
     34  CG2      -29.0580    1.6230  -38.9270 C.3    16  ILE16       0.0019
     35  CD1      -31.5980   -0.0510  -38.9100 C.3    16  ILE16       0.0001
     36  N        -20.2110    1.5990  -30.2350 N.3    30  PHE30      -0.1227
     37  CA       -20.4430    2.5490  -31.3200 C.3    30  PHE30       0.1736
     38  C        -20.9760    3.8550  -30.7420 C.2    30  PHE30       0.2595
     39  O        -21.5540    3.8840  -29.6490 O.2    30  PHE30      -0.2718
     40  CB       -21.4020    1.9720  -32.3820 C.3    30  PHE30       0.0547
     41  CG       -22.7570    1.6020  -31.8560 C.ar   30  PHE30      -0.0202
     42  CD1      -23.8090    2.4980  -31.8980 C.ar   30  PHE30      -0.0042
     43  CD2      -22.9760    0.3440  -31.3140 C.ar   30  PHE30      -0.0042
     44  CE1      -25.0580    2.1450  -31.4060 C.ar   30  PHE30      -0.0003
     45  CE2      -24.2220   -0.0160  -30.8270 C.ar   30  PHE30      -0.0003
     46  CZ       -25.2620    0.8820  -30.8710 C.ar   30  PHE30      -0.0000
     47  N        -20.7840    4.9470  -31.4730 N.am   31  HIS31      -0.1961
     48  CA       -21.1530    6.2660  -30.9860 C.3    31  HIS31       0.1787
     49  C        -22.6600    6.4690  -30.9900 C.2    31  HIS31       0.2620
     50  O        -23.3510    6.0180  -31.8990 O.2    31  HIS31      -0.2715
     51  CB       -20.4630    7.3340  -31.8210 C.3    31  HIS31       0.0785
     52  CG       -18.9840    7.3560  -31.6360 C.ar   31  HIS31       0.0821
     53  ND1      -18.3820    8.0170  -30.5840 N.ar   31  HIS31      -0.2267
     54  CD2      -17.9870    6.7720  -32.3400 C.ar   31  HIS31       0.1154
     55  CE1      -17.0740    7.8600  -30.6680 C.ar   31  HIS31       0.1986
     56  NE2      -16.8070    7.1030  -31.7180 N.ar   31  HIS31      -0.2212
     57  N        -23.1650    7.1530  -29.9690 N.am   32  ASP32      -0.1957
     58  CA       -24.5890    7.4580  -29.8740 C.3    32  ASP32       0.1840
     59  C        -24.9760    8.5290  -30.8940 C.2    32  ASP32       0.2622
     60  O        -24.2680    9.5120  -31.0560 O.2    32  ASP32      -0.2715
     61  CB       -24.9200    7.9430  -28.4580 C.3    32  ASP32       0.1450
     62  CG       -26.3930    7.8560  -28.1360 C.2    32  ASP32       0.3671
     63  OD1      -27.1710    8.6690  -28.6930 O.co2  32  ASP32      -0.2456
     64  OD2      -26.7660    7.0000  -27.3060 O.co2  32  ASP32      -0.2456
     65  N        -26.1090    8.3390  -31.5590 N.am   33  ILE33      -0.1963
     66  CA       -26.5830    9.2750  -32.5750 C.3    33  ILE33       0.1727
     67  C        -27.0730   10.6090  -31.9970 C.2    33  ILE33       0.2616
     68  O        -27.1710   11.6080  -32.7160 O.2    33  ILE33      -0.2715
     69  CB       -27.7030    8.6160  -33.4260 C.3    33  ILE33       0.0290
     70  CG1      -27.8710    9.3190  -34.7730 C.3    33  ILE33       0.0022
     71  CG2      -29.0200    8.5460  -32.6600 C.3    33  ILE33       0.0023
     72  CD1      -28.7960    8.5760  -35.7220 C.3    33  ILE33       0.0001
     73  N        -27.3840   10.6150  -30.7040 N.am   34  SER34      -0.1950
     74  CA       -27.8260   11.8260  -30.0180 C.3    34  SER34       0.1924
     75  C        -26.9860   12.0360  -28.7610 C.2    34  SER34       0.2314
     76  O        -27.4590   11.8280  -27.6430 O.2    34  SER34      -0.2863
     77  CB       -29.3130   11.7290  -29.6650 C.3    34  SER34       0.2116
     78  OG       -30.1200   11.6730  -30.8310 O.3    34  SER34      -0.2180
     79  N        -19.9090   10.2650  -26.3260 N.3    40  HIS40      -0.1241
     80  CA       -21.0250    9.4790  -25.8180 C.3    40  HIS40       0.1621
     81  C        -21.1690    8.2710  -26.7240 C.2    40  HIS40       0.2264
     82  O        -21.5430    8.4020  -27.8990 O.2    40  HIS40      -0.2867
     83  CB       -22.3010   10.3310  -25.8030 C.3    40  HIS40       0.0745
     84  CG       -23.5200    9.6140  -25.3000 C.ar   40  HIS40       0.0817
     85  ND1      -24.7490   10.2320  -25.2080 N.ar   40  HIS40      -0.2268
     86  CD2      -23.7010    8.3430  -24.8550 C.ar   40  HIS40       0.1154
     87  CE1      -25.6370    9.3700  -24.7370 C.ar   40  HIS40       0.1986
     88  NE2      -25.0270    8.2200  -24.5100 N.ar   40  HIS40      -0.2212
     89  N        -22.0570    3.7410  -26.9050 N.3    42  LEU42      -0.1245
     90  CA       -22.7890    2.6110  -26.3550 C.3    42  LEU42       0.1561
     91  C        -21.9620    1.3500  -26.5010 C.2    42  LEU42       0.2260
     92  O        -21.2710    1.1760  -27.5030 O.2    42  LEU42      -0.2867
     93  CB       -24.0880    2.4260  -27.1360 C.3    42  LEU42       0.0270
     94  CG       -25.0070    3.6400  -27.1530 C.3    42  LEU42       0.0019
     95  CD1      -26.2650    3.3410  -27.9600 C.3    42  LEU42       0.0001
     96  CD2      -25.3550    4.1180  -25.7500 C.3    42  LEU42       0.0001
     97  N        -29.9990    2.1850  -18.5640 N.3    88  ASN88      -0.1240
     98  CA       -31.3840    2.6090  -18.3880 C.3    88  ASN88       0.1653
     99  C        -32.3120    1.4180  -18.4580 C.2    88  ASN88       0.2266
    100  O        -32.3870    0.7430  -19.4880 O.2    88  ASN88      -0.2867
    101  CB       -31.7860    3.6010  -19.4780 C.3    88  ASN88       0.1155
    102  CG       -31.0910    4.9280  -19.3370 C.2    88  ASN88       0.2627
    103  OD1      -30.6380    5.2830  -18.2520 O.2    88  ASN88      -0.2716
    104  ND2      -31.0190    5.6760  -20.4180 N.am   88  ASN88      -0.0877
    105  N        -36.0240    5.3520  -18.4320 N.3    94  GLY94      -0.1210
    106  CA       -36.0420    6.0470  -19.7070 C.3    94  GLY94       0.1956
    107  C        -35.6590    5.1930  -20.9100 C.2    94  GLY94       0.2612
    108  O        -35.4120    5.7260  -21.9960 O.2    94  GLY94      -0.2717
    109  N        -35.6170    3.8720  -20.7240 N.am   95  GLN95      -0.1965
    110  CA       -35.2190    2.9530  -21.7890 C.3    95  GLN95       0.1733
    111  C        -36.0660    3.1210  -23.0530 C.2    95  GLN95       0.2617
    112  O        -37.2960    3.1720  -22.9810 O.2    95  GLN95      -0.2715
    113  CB       -35.2820    1.5080  -21.2870 C.3    95  GLN95       0.0408
    114  CG       -34.7940    0.5110  -22.3140 C.3    95  GLN95       0.0908
    115  CD       -34.4790   -0.8530  -21.7280 C.2    95  GLN95       0.2608
    116  OE1      -34.8390   -1.1670  -20.5880 O.2    95  GLN95      -0.2717
    117  NE2      -33.7990   -1.6760  -22.5120 N.am   95  GLN95      -0.0878
    118  N        -35.4130    3.2190  -24.2040 N.am   96  SER96      -0.1936
    119  CA       -36.1380    3.3970  -25.4590 C.3    96  SER96       0.2055
    120  C        -35.8360    2.3080  -26.4890 C.2    96  SER96       0.2642
    121  O        -36.5680    2.1660  -27.4710 O.2    96  SER96      -0.2714
    122  CB       -35.8780    4.7810  -26.0570 C.3    96  SER96       0.2130
    123  OG       -34.5330    4.9120  -26.4530 O.3    96  SER96      -0.2179
    124  N        -34.7480    1.5660  -26.2880 N.am   97  VAL97      -0.1977
    125  CA       -34.4130    0.4300  -27.1400 C.3    97  VAL97       0.1596
    126  C        -34.2380   -0.7890  -26.2490 C.2    97  VAL97       0.2287
    127  O        -33.4030   -0.7870  -25.3320 O.2    97  VAL97      -0.2864
    128  CB       -33.1150    0.6600  -27.9450 C.3    97  VAL97       0.0276
    129  CG1      -32.8010   -0.5640  -28.7780 C.3    97  VAL97       0.0022
    130  CG2      -33.2430    1.8930  -28.8450 C.3    97  VAL97       0.0022
    131  N        -27.8650   -2.2890  -23.2400 N.3   101  HIS101     -0.1241
    132  CA       -26.7350   -1.4630  -23.6380 C.3   101  HIS101      0.1621
    133  C        -26.2150   -0.6220  -22.4850 C.2   101  HIS101      0.2264
    134  O        -26.9710   -0.2220  -21.5880 O.2   101  HIS101     -0.2867
    135  CB       -27.0770   -0.5830  -24.8410 C.3   101  HIS101      0.0745
    136  CG       -28.3120    0.2430  -24.6760 C.ar  101  HIS101      0.0817
    137  ND1      -29.5800   -0.2780  -24.8240 N.ar  101  HIS101     -0.2268
    138  CD2      -28.4730    1.5660  -24.4430 C.ar  101  HIS101      0.1154
    139  CE1      -30.4700    0.6860  -24.6660 C.ar  101  HIS101      0.1986
    140  NE2      -29.8230    1.8140  -24.4310 N.ar  101  HIS101     -0.2212
    141  N        -24.3240    2.9080  -21.7140 N.3   103  HIS103     -0.1241
    142  CA       -23.8640    4.2260  -22.1650 C.3   103  HIS103      0.1621
    143  C        -22.5370    4.5380  -21.5010 C.2   103  HIS103      0.2264
    144  O        -22.3590    4.2440  -20.3220 O.2   103  HIS103     -0.2867
    145  CB       -24.8210    5.3350  -21.7240 C.3   103  HIS103      0.0745
    146  CG       -26.1940    5.2640  -22.3160 C.ar  103  HIS103      0.0817
    147  ND1      -26.5790    6.0470  -23.3800 N.ar  103  HIS103     -0.2268
    148  CD2      -27.2900    4.5570  -21.9500 C.ar  103  HIS103      0.1154
    149  CE1      -27.8460    5.7970  -23.6690 C.ar  103  HIS103      0.1986
    150  NE2      -28.3020    4.9020  -22.8130 N.ar  103  HIS103     -0.2212
@<TRIPOS>BOND
     1    28    29    1
     2    29    30    1
     3    29    32    1
     4    30    31    2
     5    33    32    1
     6    33    35    1
     7    32    34    1
     8    23    22    2
     9    21    20    1
    10    21    22    1
    11    21    24    1
    12     8     6    1
    13    72    70    1
    14    25    24    1
    15    25    27    1
    16    24    26    1
    17     7     5    1
    18     4     3    2
    19    70    69    1
    20     6     5    1
    21     2     5    1
    22     2     3    1
    23     2     1    1
    24     3     9   am
    25    69    71    1
    26    69    66    1
    27    12    11    2
    28    11    10    1
    29    68    67    2
    30     9    10    1
    31    66    67    1
    32    66    65    1
    33    40    41    1
    34    40    37    1
    35    54    56   ar
    36    54    52   ar
    37    10    13    1
    38    67    73   am
    39    50    49    2
    40    42    41   ar
    41    42    44   ar
    42    41    43   ar
    43    51    52    1
    44    51    48    1
    45    56    55   ar
    46    52    53   ar
    47    65    59   am
    48    47    48    1
    49    47    38   am
    50    44    46   ar
    51    37    38    1
    52    37    36    1
    53    43    45   ar
    54    60    59    2
    55    49    48    1
    56    49    57   am
    57    15    17   ar
    58    15    14   ar
    59    59    58    1
    60    46    45   ar
    61    78    77    1
    62    38    39    2
    63    13    14    1
    64    73    74    1
    65    55    53   ar
    66    17    19   ar
    67    14    16   ar
    68    74    77    1
    69    74    75    1
    70    57    58    1
    71    58    61    1
    72    19    18   ar
    73   130   128    1
    74   129   128    1
    75    16    18   ar
    76    75    76    2
    77    63    62   ar
    78    61    62    1
    79    62    64   ar
    80    95    94    1
    81   128   125    1
    82    82    81    2
    83    92    91    2
    84   121   120    2
    85    94    93    1
    86    94    96    1
    87   125   124    1
    88   125   126    1
    89    93    90    1
    90    89    90    1
    91    81    80    1
    92    91    90    1
    93   120   124   am
    94   120   119    1
    95   123   122    1
    96    79    80    1
    97   126   127    2
    98   122   119    1
    99    80    83    1
   100    83    84    1
   101   119   118    1
   102    84    85   ar
   103    84    86   ar
   104    85    87   ar
   105    86    88   ar
   106   135   136    1
   107   135   132    1
   108   137   136   ar
   109   137   139   ar
   110    87    88   ar
   111   136   138   ar
   112   139   140   ar
   113   138   140   ar
   114   118   111   am
   115   149   147   ar
   116   149   150   ar
   117   132   131    1
   118   132   133    1
   119   147   146   ar
   120   111   112    2
   121   111   110    1
   122   150   148   ar
   123   117   115   am
   124   133   134    2
   125   146   148   ar
   126   146   145    1
   127   114   115    1
   128   114   113    1
   129   142   145    1
   130   142   141    1
   131   142   143    1
   132   108   107    2
   133   110   113    1
   134   110   109    1
   135   115   116    2
   136   143   144    2
   137   107   109   am
   138   107   106    1
   139   104   102   am
   140   106   105    1
   141   100    99    2
   142   101   102    1
   143   101    98    1
   144   102   103    2
   145    97    98    1
   146    99    98    1
