@<TRIPOS>MOLECULE
tmp/5km4A00.pdb
 159 154 0 0 0
SMALL
GASTEIGER

@<TRIPOS>ATOM
      1  N        -33.8010   -1.4040  -33.5830 N.3     7  ILE7       -0.1231
      2  CA       -32.7810   -0.6900  -34.3300 C.3     7  ILE7        0.1692
      3  C        -31.3810   -1.1830  -33.9490 C.2     7  ILE7        0.2592
      4  O        -30.5090   -1.2970  -34.8100 O.2     7  ILE7       -0.2718
      5  CB       -32.8980    0.8330  -34.1240 C.3     7  ILE7        0.0266
      6  CG1      -34.2120    1.3390  -34.7340 C.3     7  ILE7        0.0019
      7  CG2      -31.7160    1.5770  -34.7370 C.3     7  ILE7        0.0020
      8  CD1      -34.4070    0.9900  -36.2050 C.3     7  ILE7        0.0001
      9  N        -31.1750   -1.5240  -32.6780 N.am    8  PHE8       -0.1976
     10  CA       -29.8590   -1.9810  -32.2530 C.3     8  PHE8        0.1639
     11  C        -29.5370   -3.3790  -32.8050 C.2     8  PHE8        0.2290
     12  O        -28.3990   -3.6410  -33.1870 O.2     8  PHE8       -0.2864
     13  CB       -29.7490   -1.9660  -30.7260 C.3     8  PHE8        0.0560
     14  CG       -29.6680   -0.5890  -30.1280 C.ar    8  PHE8       -0.0200
     15  CD1      -29.8490    0.5520  -30.8950 C.ar    8  PHE8       -0.0042
     16  CD2      -29.4120   -0.4460  -28.7790 C.ar    8  PHE8       -0.0042
     17  CE1      -29.7800    1.8240  -30.3150 C.ar    8  PHE8       -0.0003
     18  CE2      -29.3380    0.8120  -28.1960 C.ar    8  PHE8       -0.0003
     19  CZ       -29.5160    1.9470  -28.9660 C.ar    8  PHE8       -0.0000
     20  N        -28.4370   -2.6420  -36.2840 N.3    11  ILE11      -0.1245
     21  CA       -27.0960   -2.0810  -36.2920 C.3    11  ILE11       0.1561
     22  C        -26.0600   -3.1960  -36.1250 C.2    11  ILE11       0.2260
     23  O        -25.0560   -3.2270  -36.8300 O.2    11  ILE11      -0.2867
     24  CB       -26.9360   -0.9990  -35.1920 C.3    11  ILE11       0.0252
     25  CG1      -27.6590    0.2830  -35.6110 C.3    11  ILE11       0.0019
     26  CG2      -25.4680   -0.6970  -34.9030 C.3    11  ILE11       0.0019
     27  CD1      -27.7130    1.3430  -34.5200 C.3    11  ILE11       0.0001
     28  N        -28.3270   -1.1590  -40.6270 N.3    16  ILE16      -0.1245
     29  CA       -28.4850    0.2750  -40.4160 C.3    16  ILE16       0.1561
     30  C        -27.1210    0.8160  -40.0280 C.2    16  ILE16       0.2260
     31  O        -26.4590    0.2380  -39.1650 O.2    16  ILE16      -0.2867
     32  CB       -29.5240    0.5780  -39.3220 C.3    16  ILE16       0.0252
     33  CG1      -30.9180    0.2030  -39.8200 C.3    16  ILE16       0.0019
     34  CG2      -29.4930    2.0430  -38.9220 C.3    16  ILE16       0.0019
     35  CD1      -31.9970    0.4120  -38.7970 C.3    16  ILE16       0.0001
     36  N        -20.7000    2.1720  -30.1870 N.3    30  PHE30      -0.1227
     37  CA       -20.9230    3.1460  -31.2450 C.3    30  PHE30       0.1736
     38  C        -21.4110    4.4590  -30.6500 C.2    30  PHE30       0.2595
     39  O        -21.9540    4.4880  -29.5480 O.2    30  PHE30      -0.2718
     40  CB       -21.9180    2.6240  -32.3070 C.3    30  PHE30       0.0547
     41  CG       -23.2590    2.2150  -31.7620 C.ar   30  PHE30      -0.0202
     42  CD1      -24.2940    3.1330  -31.6420 C.ar   30  PHE30      -0.0042
     43  CD2      -23.4910    0.8970  -31.3920 C.ar   30  PHE30      -0.0042
     44  CE1      -25.5330    2.7340  -31.1500 C.ar   30  PHE30      -0.0003
     45  CE2      -24.7170    0.4960  -30.9020 C.ar   30  PHE30      -0.0003
     46  CZ       -25.7370    1.4120  -30.7760 C.ar   30  PHE30      -0.0000
     47  N        -21.2100    5.5580  -31.3770 N.am   31  HIS31      -0.1961
     48  CA       -21.5900    6.8700  -30.8770 C.3    31  HIS31       0.1787
     49  C        -23.0920    7.0740  -30.8480 C.2    31  HIS31       0.2620
     50  O        -23.8020    6.6620  -31.7540 O.2    31  HIS31      -0.2715
     51  CB       -20.9260    7.9600  -31.7100 C.3    31  HIS31       0.0785
     52  CG       -19.4450    7.9860  -31.5560 C.ar   31  HIS31       0.0821
     53  ND1      -18.8240    8.6200  -30.5000 N.ar   31  HIS31      -0.2267
     54  CD2      -18.4630    7.4140  -32.2890 C.ar   31  HIS31       0.1154
     55  CE1      -17.5180    8.4630  -30.6120 C.ar   31  HIS31       0.1986
     56  NE2      -17.2730    7.7300  -31.6850 N.ar   31  HIS31      -0.2212
     57  N        -23.5720    7.7310  -29.7990 N.am   32  ASP32      -0.1957
     58  CA       -24.9900    8.0190  -29.6670 C.3    32  ASP32       0.1840
     59  C        -25.4030    9.0620  -30.7090 C.2    32  ASP32       0.2622
     60  O        -24.6900   10.0370  -30.9180 O.2    32  ASP32      -0.2715
     61  CB       -25.3010    8.5090  -28.2430 C.3    32  ASP32       0.1450
     62  CG       -26.7630    8.3930  -27.9050 C.2    32  ASP32       0.3671
     63  OD1      -27.5700    9.1960  -28.4340 O.co2  32  ASP32      -0.2456
     64  OD2      -27.1070    7.5020  -27.1030 O.co2  32  ASP32      -0.2456
     65  N        -26.5640    8.8580  -31.3290 N.am   33  ILE33      -0.1963
     66  CA       -27.0810    9.7730  -32.3480 C.3    33  ILE33       0.1727
     67  C        -27.5760   11.1040  -31.7690 C.2    33  ILE33       0.2616
     68  O        -27.7280   12.0920  -32.4850 O.2    33  ILE33      -0.2715
     69  CB       -28.2290    9.0880  -33.1380 C.3    33  ILE33       0.0290
     70  CG1      -28.4790    9.7840  -34.4760 C.3    33  ILE33       0.0022
     71  CG2      -29.5030    9.0050  -32.3110 C.3    33  ILE33       0.0023
     72  CD1      -29.4580    9.0390  -35.3600 C.3    33  ILE33       0.0001
     73  N        -27.8300   11.1280  -30.4630 N.am   34  SER34      -0.1950
     74  CA       -28.2680   12.3430  -29.7860 C.3    34  SER34       0.1924
     75  C        -27.3970   12.5690  -28.5610 C.2    34  SER34       0.2314
     76  O        -27.8340   12.3550  -27.4230 O.2    34  SER34      -0.2863
     77  CB       -29.7470   12.2500  -29.3960 C.3    34  SER34       0.2116
     78  OG       -30.5810   12.1510  -30.5410 O.3    34  SER34      -0.2180
     79  N        -25.4150   13.6770  -25.3440 N.3    36  GLN36      -0.1245
     80  CA       -25.7450   14.4890  -24.1780 C.3    36  GLN36       0.1566
     81  C        -24.4870   15.0150  -23.5040 C.2    36  GLN36       0.2260
     82  O        -24.5550   15.6710  -22.4640 O.2    36  GLN36      -0.2867
     83  CB       -26.5650   13.6760  -23.1850 C.3    36  GLN36       0.0367
     84  CG       -27.8590   13.1340  -23.7480 C.3    36  GLN36       0.0905
     85  CD       -28.8160   14.2220  -24.1780 C.2    36  GLN36       0.2608
     86  OE1      -29.1980   15.0800  -23.3780 O.2    36  GLN36      -0.2717
     87  NE2      -29.2070   14.2030  -25.4490 N.am   36  GLN36      -0.0878
     88  N        -20.2350   10.8180  -26.1800 N.3    40  HIS40      -0.1241
     89  CA       -21.3550   10.0350  -25.6910 C.3    40  HIS40       0.1621
     90  C        -21.5290    8.8280  -26.6020 C.2    40  HIS40       0.2264
     91  O        -21.9240    8.9700  -27.7700 O.2    40  HIS40      -0.2867
     92  CB       -22.6180   10.9020  -25.6380 C.3    40  HIS40       0.0745
     93  CG       -23.8380   10.1900  -25.1390 C.ar   40  HIS40       0.0817
     94  ND1      -25.0680   10.8050  -25.0720 N.ar   40  HIS40      -0.2268
     95  CD2      -24.0230    8.9230  -24.6940 C.ar   40  HIS40       0.1154
     96  CE1      -25.9620    9.9470  -24.6110 C.ar   40  HIS40       0.1986
     97  NE2      -25.3540    8.7970  -24.3720 N.ar   40  HIS40      -0.2212
     98  N        -22.4590    4.3090  -26.8090 N.3    42  LEU42      -0.1245
     99  CA       -23.1580    3.1710  -26.2430 C.3    42  LEU42       0.1561
    100  C        -22.3270    1.9190  -26.4070 C.2    42  LEU42       0.2260
    101  O        -21.6390    1.7560  -27.4150 O.2    42  LEU42      -0.2867
    102  CB       -24.5150    2.9820  -26.9270 C.3    42  LEU42       0.0270
    103  CG       -25.4410    4.1910  -26.9800 C.3    42  LEU42       0.0019
    104  CD1      -26.7770    3.7910  -27.5890 C.3    42  LEU42       0.0001
    105  CD2      -25.6440    4.7550  -25.5930 C.3    42  LEU42       0.0001
    106  N        -30.3380    2.8330  -18.4790 N.3    88  ASN88      -0.1240
    107  CA       -31.7220    3.2620  -18.2930 C.3    88  ASN88       0.1653
    108  C        -32.6470    2.0660  -18.3360 C.2    88  ASN88       0.2266
    109  O        -32.8180    1.4490  -19.3860 O.2    88  ASN88      -0.2867
    110  CB       -32.1490    4.2580  -19.3770 C.3    88  ASN88       0.1155
    111  CG       -31.4280    5.5860  -19.2830 C.2    88  ASN88       0.2627
    112  OD1      -30.8940    5.9450  -18.2340 O.2    88  ASN88      -0.2716
    113  ND2      -31.4130    6.3220  -20.3830 N.am   88  ASN88      -0.0877
    114  N        -36.4540    5.7920  -18.2130 N.3    94  GLY94      -0.1210
    115  CA       -36.5670    6.5170  -19.4660 C.3    94  GLY94       0.1956
    116  C        -36.1310    5.6980  -20.6660 C.2    94  GLY94       0.2612
    117  O        -35.8440    6.2450  -21.7290 O.2    94  GLY94      -0.2717
    118  N        -36.0980    4.3800  -20.5030 N.am   95  GLN95      -0.1965
    119  CA       -35.6530    3.4950  -21.5780 C.3    95  GLN95       0.1733
    120  C        -36.4700    3.6770  -22.8610 C.2    95  GLN95       0.2617
    121  O        -37.7000    3.7580  -22.8250 O.2    95  GLN95      -0.2715
    122  CB       -35.7030    2.0370  -21.1020 C.3    95  GLN95       0.0408
    123  CG       -35.2060    1.0420  -22.1400 C.3    95  GLN95       0.0908
    124  CD       -34.8520   -0.3190  -21.5630 C.2    95  GLN95       0.2608
    125  OE1      -35.1670   -0.6230  -20.4060 O.2    95  GLN95      -0.2717
    126  NE2      -34.1850   -1.1510  -22.3650 N.am   95  GLN95      -0.0878
    127  N        -35.7790    3.7600  -23.9940 N.am   96  SER96      -0.1936
    128  CA       -36.4500    3.9550  -25.2780 C.3    96  SER96       0.2055
    129  C        -36.1940    2.8370  -26.2880 C.2    96  SER96       0.2642
    130  O        -36.9760    2.6530  -27.2160 O.2    96  SER96      -0.2714
    131  CB       -36.0420    5.2970  -25.8840 C.3    96  SER96       0.2130
    132  OG       -36.4620    6.3600  -25.0420 O.3    96  SER96      -0.2179
    133  N        -35.0870    2.1190  -26.1270 N.am   97  VAL97      -0.1977
    134  CA       -34.7870    0.9790  -26.9830 C.3    97  VAL97       0.1596
    135  C        -34.6210   -0.2360  -26.0840 C.2    97  VAL97       0.2287
    136  O        -33.8000   -0.2270  -25.1700 O.2    97  VAL97      -0.2864
    137  CB       -33.5150    1.2040  -27.8390 C.3    97  VAL97       0.0276
    138  CG1      -33.1890   -0.0450  -28.6370 C.3    97  VAL97       0.0022
    139  CG2      -33.6940    2.4150  -28.7770 C.3    97  VAL97       0.0022
    140  N        -28.2120   -1.7270  -23.0920 N.3   101  HIS101     -0.1241
    141  CA       -27.0410   -0.9640  -23.4850 C.3   101  HIS101      0.1621
    142  C        -26.5470   -0.0820  -22.3570 C.2   101  HIS101      0.2264
    143  O        -27.3230    0.3640  -21.4930 O.2   101  HIS101     -0.2867
    144  CB       -27.3290   -0.1170  -24.7270 C.3   101  HIS101      0.0745
    145  CG       -28.5420    0.7480  -24.6130 C.ar  101  HIS101      0.0817
    146  ND1      -29.8230    0.2600  -24.7600 N.ar  101  HIS101     -0.2268
    147  CD2      -28.6690    2.0760  -24.3790 C.ar  101  HIS101      0.1154
    148  CE1      -30.6870    1.2490  -24.6060 C.ar  101  HIS101      0.1986
    149  NE2      -30.0120    2.3630  -24.3820 N.ar  101  HIS101     -0.2212
    150  N        -24.5910    3.4580  -21.5560 N.3   103  HIS103     -0.1241
    151  CA       -24.1290    4.7740  -22.0020 C.3   103  HIS103      0.1621
    152  C        -22.7860    5.0680  -21.3700 C.2   103  HIS103      0.2264
    153  O        -22.5740    4.7540  -20.2010 O.2   103  HIS103     -0.2867
    154  CB       -25.0810    5.8930  -21.5710 C.3   103  HIS103      0.0745
    155  CG       -26.4530    5.8180  -22.1570 C.ar  103  HIS103      0.0817
    156  ND1      -26.8540    6.6210  -23.2030 N.ar  103  HIS103     -0.2268
    157  CD2      -27.5330    5.0770  -21.8150 C.ar  103  HIS103      0.1154
    158  CE1      -28.1180    6.3670  -23.4890 C.ar  103  HIS103      0.1986
    159  NE2      -28.5520    5.4330  -22.6610 N.ar  103  HIS103     -0.2212
@<TRIPOS>BOND
     1    28    29    1
     2    29    30    1
     3    29    32    1
     4    30    31    2
     5    33    32    1
     6    33    35    1
     7    32    34    1
     8    23    22    2
     9    21    20    1
    10    21    22    1
    11    21    24    1
    12     8     6    1
    13    25    24    1
    14    25    27    1
    15    72    70    1
    16    24    26    1
    17     4     3    2
    18     7     5    1
    19     6     5    1
    20    70    69    1
    21     2     5    1
    22     2     3    1
    23     2     1    1
    24     3     9   am
    25    12    11    2
    26    69    66    1
    27    69    71    1
    28    11    10    1
    29     9    10    1
    30    68    67    2
    31    66    67    1
    32    66    65    1
    33    40    41    1
    34    40    37    1
    35    54    56   ar
    36    54    52   ar
    37    10    13    1
    38    67    73   am
    39    41    42   ar
    40    41    43   ar
    41    50    49    2
    42    51    52    1
    43    51    48    1
    44    56    55   ar
    45    42    44   ar
    46    52    53   ar
    47    43    45   ar
    48    47    48    1
    49    47    38   am
    50    65    59   am
    51    37    38    1
    52    37    36    1
    53    44    46   ar
    54    60    59    2
    55    45    46   ar
    56    15    17   ar
    57    15    14   ar
    58    48    49    1
    59    49    57   am
    60    13    14    1
    61    59    58    1
    62    38    39    2
    63    55    53   ar
    64    78    77    1
    65    73    74    1
    66    17    19   ar
    67    14    16   ar
    68    57    58    1
    69    74    77    1
    70    74    75    1
    71    58    61    1
    72    19    18   ar
    73    16    18   ar
    74   139   137    1
    75   138   137    1
    76    75    76    2
    77    63    62   ar
    78    61    62    1
    79    62    64   ar
    80   137   134    1
    81    91    90    2
    82   104   103    1
    83   101   100    2
    84   130   129    2
    85   134   133    1
    86   134   135    1
    87   103   102    1
    88   103   105    1
    89   102    99    1
    90    98    99    1
    91    90    89    1
    92   100    99    1
    93   129   133   am
    94   129   128    1
    95    88    89    1
    96   135   136    2
    97   131   128    1
    98   131   132    1
    99    89    92    1
   100    92    93    1
   101    87    85   am
   102    79    80    1
   103   128   127    1
   104    93    94   ar
   105    93    95   ar
   106    94    96   ar
   107   146   145   ar
   108   146   148   ar
   109   144   145    1
   110   144   141    1
   111    95    97   ar
   112   145   147   ar
   113    96    97   ar
   114   148   149   ar
   115   149   147   ar
   116    85    84    1
   117    85    86    2
   118    80    81    1
   119    80    83    1
   120   127   120   am
   121    84    83    1
   122    81    82    2
   123   158   156   ar
   124   158   159   ar
   125   141   140    1
   126   141   142    1
   127   156   155   ar
   128   120   121    2
   129   120   119    1
   130   159   157   ar
   131   126   124   am
   132   142   143    2
   133   155   157   ar
   134   155   154    1
   135   123   124    1
   136   123   122    1
   137   151   154    1
   138   151   150    1
   139   151   152    1
   140   117   116    2
   141   119   122    1
   142   119   118    1
   143   124   125    2
   144   152   153    2
   145   116   118   am
   146   116   115    1
   147   113   111   am
   148   115   114    1
   149   109   108    2
   150   110   111    1
   151   110   107    1
   152   111   112    2
   153   106   107    1
   154   108   107    1
