@<TRIPOS>MOLECULE
tmp/5km5B00.pdb
 171 166 0 0 0
SMALL
GASTEIGER

@<TRIPOS>ATOM
      1  N         -3.7730   -0.1270    7.9920 N.3     4  ILE4       -0.1231
      2  CA        -3.5390   -1.5230    8.3250 C.3     4  ILE4        0.1692
      3  C         -2.7810   -2.2140    7.1760 C.2     4  ILE4        0.2592
      4  O         -2.1040   -3.2220    7.3930 O.2     4  ILE4       -0.2718
      5  CB        -4.8640   -2.2520    8.6500 C.3     4  ILE4        0.0266
      6  CG1       -4.5950   -3.5730    9.3920 C.3     4  ILE4        0.0019
      7  CG2       -5.7160   -2.4520    7.3880 C.3     4  ILE4        0.0020
      8  CD1       -3.9710   -3.3840   10.7500 C.3     4  ILE4        0.0001
      9  N         -2.8300   -1.6440    5.9710 N.am    5  PHE5       -0.1976
     10  CA        -2.1020   -2.2400    4.8470 C.3     5  PHE5        0.1639
     11  C         -0.5840   -2.1570    5.0590 C.2     5  PHE5        0.2290
     12  O          0.1550   -2.9680    4.5140 O.2     5  PHE5       -0.2864
     13  CB        -2.4840   -1.5870    3.5130 C.3     5  PHE5        0.0560
     14  CG        -3.8490   -1.9890    2.9990 C.ar    5  PHE5       -0.0200
     15  CD1       -4.6640   -2.8490    3.7270 C.ar    5  PHE5       -0.0042
     16  CD2       -4.3090   -1.5170    1.7680 C.ar    5  PHE5       -0.0042
     17  CE1       -5.9330   -3.2210    3.2450 C.ar    5  PHE5       -0.0003
     18  CE2       -5.5730   -1.8740    1.2830 C.ar    5  PHE5       -0.0003
     19  CZ        -6.3880   -2.7240    2.0310 C.ar    5  PHE5       -0.0000
     20  N          0.3220   -5.4450    6.5600 N.3     8  ILE8       -0.1245
     21  CA         0.3460   -6.5140    5.5620 C.3     8  ILE8        0.1561
     22  C          1.6480   -6.4250    4.7450 C.2     8  ILE8        0.2260
     23  O          2.3140   -7.4360    4.5030 O.2     8  ILE8       -0.2867
     24  CB        -0.8840   -6.4490    4.6390 C.3     8  ILE8        0.0252
     25  CG1       -2.1630   -6.6370    5.4620 C.3     8  ILE8        0.0019
     26  CG2       -0.7900   -7.4920    3.5170 C.3     8  ILE8        0.0019
     27  CD1       -3.4400   -6.5580    4.6470 C.3     8  ILE8        0.0001
     28  N          1.2870   -8.7140    9.8260 N.3    13  LEU13      -0.1231
     29  CA        -0.0800   -9.2150    9.8200 C.3    13  LEU13       0.1678
     30  C         -0.2110  -10.1760    8.6450 C.2    13  LEU13       0.2434
     31  O         -0.1200   -9.7590    7.4890 O.2    13  LEU13      -0.2733
     32  CB        -1.0750   -8.0530    9.7430 C.3    13  LEU13       0.0284
     33  CG        -2.5920   -8.2770    9.6130 C.3    13  LEU13       0.0019
     34  CD1       -3.1050   -9.3490   10.5310 C.3    13  LEU13       0.0001
     35  CD2       -3.2960   -6.9670    9.9210 C.3    13  LEU13       0.0001
     36  N         -0.4020  -11.4730    8.9350 N.am   14  PRO14      -0.2718
     37  CA        -0.3880  -12.5110    7.8940 C.3    14  PRO14       0.1535
     38  C         -1.5760  -12.3850    6.9500 C.2    14  PRO14       0.2598
     39  O         -2.7150  -12.3650    7.4120 O.2    14  PRO14      -0.2715
     40  CB        -0.4750  -13.8260    8.6870 C.3    14  PRO14       0.0310
     41  CG        -0.3770  -13.4480   10.1300 C.3    14  PRO14       0.0237
     42  CD        -0.7610  -12.0200   10.2530 C.3    14  PRO14       0.0939
     43  N         -1.3090  -12.3040    5.6520 N.am   15  ALA15      -0.1978
     44  CA        -2.3620  -12.1900    4.6540 C.3    15  ALA15       0.1597
     45  C         -2.2460  -13.3200    3.6270 C.2    15  ALA15       0.2287
     46  O         -1.1910  -13.9610    3.5130 O.2    15  ALA15      -0.2864
     47  CB        -2.2940  -10.8310    3.9710 C.3    15  ALA15       0.0319
     48  N         -3.0870   -9.4220   -2.4790 N.3    27  PHE27      -0.1227
     49  CA        -3.6110  -10.3160   -1.4500 C.3    27  PHE27       0.1736
     50  C         -5.1260  -10.3440   -1.4920 C.2    27  PHE27       0.2595
     51  O         -5.7520   -9.4150   -2.0120 O.2    27  PHE27      -0.2718
     52  CB        -3.1060   -9.9010   -0.0490 C.3    27  PHE27       0.0547
     53  CG        -3.3300   -8.4460    0.2900 C.ar   27  PHE27      -0.0202
     54  CD1       -4.4120   -8.0580    1.0690 C.ar   27  PHE27      -0.0042
     55  CD2       -2.4530   -7.4670   -0.1620 C.ar   27  PHE27      -0.0042
     56  CE1       -4.6250   -6.7250    1.3800 C.ar   27  PHE27      -0.0003
     57  CE2       -2.6560   -6.1280    0.1550 C.ar   27  PHE27      -0.0003
     58  CZ        -3.7410   -5.7590    0.9290 C.ar   27  PHE27      -0.0000
     59  N         -5.7120  -11.4160   -0.9580 N.am   28  ARG28      -0.1966
     60  CA        -7.1650  -11.5550   -0.9380 C.3    28  ARG28       0.1729
     61  C         -7.8020  -10.6180    0.0630 C.2    28  ARG28       0.2616
     62  O         -7.2780  -10.4080    1.1590 O.2    28  ARG28      -0.2715
     63  CB        -7.5920  -12.9920   -0.6160 C.3    28  ARG28       0.0348
     64  CG        -7.0490  -14.0190   -1.5790 C.3    28  ARG28       0.0492
     65  CD        -7.7410  -15.3820   -1.4430 C.3    28  ARG28       0.2205
     66  NE        -7.0630  -16.3400   -2.3050 N.pl3  28  ARG28      -0.0865
     67  CZ        -7.2930  -16.4530   -3.6080 C.cat  28  ARG28       0.5346
     68  NH1       -8.2140  -15.6860   -4.1870 N.pl3  28  ARG28       0.1354
     69  NH2       -6.6090  -17.3340   -4.3300 N.pl3  28  ARG28       0.1354
     70  N         -8.9460  -10.0690   -0.3260 N.am   29  ASP29      -0.1957
     71  CA        -9.7790   -9.2690    0.5700 C.3    29  ASP29       0.1840
     72  C        -10.3380  -10.1400    1.6910 C.2    29  ASP29       0.2622
     73  O        -10.8260  -11.2300    1.4110 O.2    29  ASP29      -0.2715
     74  CB       -10.9220   -8.6280   -0.2240 C.3    29  ASP29       0.1450
     75  CG       -11.4890   -7.4120    0.4570 C.2    29  ASP29       0.3671
     76  OD1      -12.1700   -7.5750    1.4980 O.co2  29  ASP29      -0.2456
     77  OD2      -11.2570   -6.2920   -0.0570 O.co2  29  ASP29      -0.2456
     78  N        -10.2850   -9.6770    2.9480 N.am   30  VAL30      -0.1963
     79  CA       -10.8350  -10.4630    4.0600 C.3    30  VAL30       0.1727
     80  C        -12.3580  -10.3840    4.1590 C.2    30  VAL30       0.2616
     81  O        -12.9660  -11.1220    4.9300 O.2    30  VAL30      -0.2715
     82  CB       -10.2700  -10.0380    5.4360 C.3    30  VAL30       0.0290
     83  CG1       -8.7820  -10.3030    5.5050 C.3    30  VAL30       0.0023
     84  CG2      -10.6030   -8.5780    5.7230 C.3    30  VAL30       0.0023
     85  N        -12.9730   -9.4800    3.4050 N.am   31  ALA31      -0.1977
     86  CA       -14.4370   -9.4400    3.3130 C.3    31  ALA31       0.1597
     87  C        -14.8500   -9.4330    1.8480 C.2    31  ALA31       0.2287
     88  O        -15.2590   -8.3960    1.3170 O.2    31  ALA31      -0.2864
     89  CB       -14.9990   -8.2170    4.0400 C.3    31  ALA31       0.0319
     90  N        -16.4790   -9.6230   -1.8100 N.3    33  GLN33      -0.1245
     91  CA       -17.7990   -9.3080   -2.3310 C.3    33  GLN33       0.1566
     92  C        -18.0820  -10.1160   -3.5900 C.2    33  GLN33       0.2260
     93  O        -19.0340   -9.8400   -4.3100 O.2    33  GLN33      -0.2867
     94  CB       -17.9080   -7.8140   -2.6160 C.3    33  GLN33       0.0367
     95  CG       -17.5760   -6.9520   -1.4230 C.3    33  GLN33       0.0905
     96  CD       -18.6200   -7.0710   -0.3240 C.2    33  GLN33       0.2608
     97  OE1      -19.8050   -6.8110   -0.5520 O.2    33  GLN33      -0.2717
     98  NE2      -18.1870   -7.4690    0.8710 N.am   33  GLN33      -0.0878
     99  N        -12.0060  -12.1550   -4.9560 N.3    37  HIS37      -0.1241
    100  CA       -11.8620  -10.7340   -4.6670 C.3    37  HIS37       0.1621
    101  C        -10.4990  -10.5120   -4.0200 C.2    37  HIS37       0.2264
    102  O        -10.2670  -10.9330   -2.8870 O.2    37  HIS37      -0.2867
    103  CB       -13.0070  -10.2470   -3.7650 C.3    37  HIS37       0.0745
    104  CG       -12.9800   -8.7750   -3.4680 C.ar   37  HIS37       0.0817
    105  ND1      -13.9020   -8.1690   -2.6380 N.ar   37  HIS37      -0.2268
    106  CD2      -12.1500   -7.7890   -3.8950 C.ar   37  HIS37       0.1154
    107  CE1      -13.6430   -6.8730   -2.5690 C.ar   37  HIS37       0.1986
    108  NE2      -12.5850   -6.6190   -3.3220 N.ar   37  HIS37      -0.2212
    109  N         -6.8690   -7.6560   -3.8050 N.3    39  LEU39      -0.1245
    110  CA        -6.4310   -6.2670   -3.8750 C.3    39  LEU39       0.1561
    111  C         -5.0120   -6.1830   -4.4080 C.2    39  LEU39       0.2260
    112  O         -4.1450   -6.9770   -4.0350 O.2    39  LEU39      -0.2867
    113  CB        -6.5000   -5.6020   -2.4930 C.3    39  LEU39       0.0270
    114  CG        -7.8900   -5.6450   -1.8290 C.3    39  LEU39       0.0019
    115  CD1       -7.8220   -5.1390   -0.4240 C.3    39  LEU39       0.0001
    116  CD2       -8.8980   -4.8130   -2.6170 C.3    39  LEU39       0.0001
    117  N        -11.5990    3.1190   -5.4290 N.3    85  ASN85      -0.1240
    118  CA       -12.4030    4.0630   -4.6550 C.3    85  ASN85       0.1653
    119  C        -11.5520    5.2330   -4.1660 C.2    85  ASN85       0.2266
    120  O        -10.4770    5.0330   -3.6010 O.2    85  ASN85      -0.2867
    121  CB       -13.0590    3.3780   -3.4470 C.3    85  ASN85       0.1155
    122  CG       -14.0190    2.2530   -3.8480 C.2    85  ASN85       0.2627
    123  OD1      -14.5630    2.2540   -4.9390 O.2    85  ASN85      -0.2716
    124  ND2      -14.2310    1.3040   -2.9540 N.am   85  ASN85      -0.0877
    125  N        -16.6540    5.8560   -1.4920 N.3    91  ALA91      -0.1231
    126  CA       -16.7030    4.8380   -0.4300 C.3    91  ALA91       0.1694
    127  C        -15.3120    4.2840   -0.0370 C.2    91  ALA91       0.2592
    128  O        -15.1960    3.1580    0.4530 O.2    91  ALA91      -0.2718
    129  CB       -17.6520    3.6780   -0.8300 C.3    91  ALA91       0.0304
    130  N        -14.2550    5.0680   -0.2490 N.am   92  GLN92      -0.1966
    131  CA       -12.9200    4.6410    0.1770 C.3    92  GLN92       0.1733
    132  C        -12.8820    4.5620    1.7100 C.2    92  GLN92       0.2617
    133  O        -13.4400    5.4220    2.3960 O.2    92  GLN92      -0.2715
    134  CB       -11.8290    5.5920   -0.3340 C.3    92  GLN92       0.0408
    135  CG       -10.4190    5.0920   -0.0000 C.3    92  GLN92       0.0908
    136  CD        -9.3300    5.9780   -0.5450 C.2    92  GLN92       0.2608
    137  OE1       -9.5840    7.0960   -0.9810 O.2    92  GLN92      -0.2717
    138  NE2       -8.0960    5.4750   -0.5330 N.am   92  GLN92      -0.0878
    139  N        -12.2520    3.5230    2.2500 N.am   93  SER93      -0.1936
    140  CA       -12.1960    3.3770    3.6970 C.3    93  SER93       0.2055
    141  C        -10.7720    3.0930    4.1770 C.2    93  SER93       0.2642
    142  O        -10.3940    3.4860    5.2730 O.2    93  SER93      -0.2714
    143  CB       -13.1570    2.2830    4.1670 C.3    93  SER93       0.2130
    144  OG       -12.8370    1.0380    3.5860 O.3    93  SER93      -0.2179
    145  N         -9.9690    2.4280    3.3530 N.am   94  VAL94      -0.1977
    146  CA        -8.5520    2.2890    3.6740 C.3    94  VAL94       0.1596
    147  C         -7.7500    3.2450    2.8040 C.2    94  VAL94       0.2287
    148  O         -7.7460    3.1240    1.5700 O.2    94  VAL94      -0.2864
    149  CB        -8.0590    0.8430    3.4810 C.3    94  VAL94       0.0276
    150  CG1       -6.5590    0.7580    3.7200 C.3    94  VAL94       0.0022
    151  CG2       -8.8180   -0.1060    4.4300 C.3    94  VAL94       0.0022
    152  N         -5.2910    1.2430   -3.8370 N.3    98  HIS98      -0.1241
    153  CA        -5.4340   -0.1820   -4.1510 C.3    98  HIS98       0.1621
    154  C         -6.5000   -0.3950   -5.2010 C.2    98  HIS98       0.2264
    155  O         -7.4680    0.3600   -5.2870 O.2    98  HIS98      -0.2867
    156  CB        -5.7730   -1.0130   -2.8880 C.3    98  HIS98       0.0745
    157  CG        -7.0310   -0.5950   -2.1970 C.ar   98  HIS98       0.0817
    158  ND1       -7.0980    0.4990   -1.3620 N.ar   98  HIS98      -0.2268
    159  CD2       -8.2780   -1.1360   -2.2030 C.ar   98  HIS98       0.1154
    160  CE1       -8.3300    0.6280   -0.8980 C.ar   98  HIS98       0.1986
    161  NE2       -9.0640   -0.3560   -1.3940 N.ar   98  HIS98      -0.2212
    162  N         -9.2910   -3.0440   -6.4510 N.3   100  HIS100     -0.1241
    163  CA       -10.1020   -4.2350   -6.2300 C.3   100  HIS100      0.1621
    164  C        -10.2000   -5.0180   -7.5270 C.2   100  HIS100      0.2264
    165  O        -10.4570   -4.4400   -8.5750 O.2   100  HIS100     -0.2867
    166  CB       -11.5450   -3.9000   -5.7800 C.3   100  HIS100      0.0745
    167  CG       -11.6560   -3.1520   -4.4870 C.ar  100  HIS100      0.0817
    168  ND1      -11.9250   -3.7740   -3.2890 N.ar  100  HIS100     -0.2268
    169  CD2      -11.6060   -1.8240   -4.2160 C.ar  100  HIS100      0.1154
    170  CE1      -11.9960   -2.8700   -2.3300 C.ar  100  HIS100      0.1986
    171  NE2      -11.8200   -1.6770   -2.8680 N.ar  100  HIS100     -0.2212
@<TRIPOS>BOND
     1   165   164    2
     2   164   163    1
     3   162   163    1
     4   163   166    1
     5   166   167    1
     6   117   118    1
     7   155   154    2
     8   154   153    1
     9    99   100    1
    10   123   122    2
    11   100   101    1
    12   100   103    1
    13   118   119    1
    14   118   121    1
    15   167   169   ar
    16   167   168   ar
    17   111   112    2
    18   111   110    1
    19    69    67    1
    20    93    92    2
    21   169   171   ar
    22    68    67    1
    23   119   120    2
    24   153   152    1
    25   153   156    1
    26   101   102    2
    27   106   104   ar
    28   106   108   ar
    29   110   109    1
    30   110   113    1
    31   122   121    1
    32   122   124   am
    33   103   104    1
    34    67    66    2
    35    92    91    1
    36   104   105   ar
    37   108   107   ar
    38   168   170   ar
    39   156   157    1
    40   171   170   ar
    41   105   107   ar
    42   116   114    1
    43    94    91    1
    44    94    95    1
    45   113   114    1
    46    48    49    1
    47    91    90    1
    48    66    65    1
    49   159   157   ar
    50   159   161   ar
    51   157   158   ar
    52    51    50    2
    53   114   115    1
    54    64    65    1
    55    64    63    1
    56    50    49    1
    57    50    59   am
    58   125   126    1
    59    49    52    1
    60    95    96    1
    61   161   160   ar
    62   158   160   ar
    63   137   136    2
    64    59    60    1
    65    60    63    1
    66    60    61    1
    67   129   126    1
    68    97    96    2
    69   136   138   am
    70   136   135    1
    71   126   127    1
    72   134   135    1
    73   134   131    1
    74    70    61   am
    75    70    71    1
    76    96    98   am
    77   130   127   am
    78   130   131    1
    79    74    75    1
    80    74    71    1
    81    55    57   ar
    82    55    53   ar
    83    77    75   ar
    84    52    53    1
    85   127   128    2
    86    61    62    2
    87    57    58   ar
    88   131   132    1
    89    53    54   ar
    90    75    76   ar
    91    71    72    1
    92    58    56   ar
    93    54    56   ar
    94    18    16   ar
    95    18    19   ar
    96    88    87    2
    97    73    72    2
    98   148   147    2
    99    72    78   am
   100   132   139   am
   101   132   133    2
   102    16    14   ar
   103    87    86    1
   104    19    17   ar
   105   139   140    1
   106   147   146    1
   107    78    79    1
   108    14    13    1
   109    14    15   ar
   110    17    15   ar
   111    86    85    1
   112    86    89    1
   113   145   146    1
   114   145   141   am
   115    85    80   am
   116   149   146    1
   117   149   150    1
   118   149   151    1
   119    13    10    1
   120    46    45    2
   121    26    24    1
   122   144   143    1
   123    45    44    1
   124   140   143    1
   125   140   141    1
   126    47    44    1
   127    79    80    1
   128    79    82    1
   129    80    81    2
   130   141   142    2
   131    23    22    2
   132    12    11    2
   133    24    25    1
   134    24    21    1
   135    27    25    1
   136    44    43    1
   137    22    21    1
   138    10    11    1
   139    10     9    1
   140    82    83    1
   141    82    84    1
   142    21    20    1
   143    43    38   am
   144     9     3   am
   145    38    39    2
   146    38    37    1
   147     3     4    2
   148     3     2    1
   149     7     5    1
   150    31    30    2
   151    37    40    1
   152    37    36    1
   153     1     2    1
   154     2     5    1
   155    30    36   am
   156    30    29    1
   157     5     6    1
   158    40    41    1
   159    36    42    1
   160     6     8    1
   161    33    32    1
   162    33    35    1
   163    33    34    1
   164    32    29    1
   165    29    28    1
   166    41    42    1
