@<TRIPOS>MOLECULE
tmp/5km8B00.pdb
 96 90 0 0 0
SMALL
GASTEIGER

@<TRIPOS>ATOM
      1  N         -2.3470   -0.9360    5.6950 N.3     5  PHE5       -0.1241
      2  CA        -1.5860   -1.5150    4.5860 C.3     5  PHE5        0.1605
      3  C         -0.0930   -1.4940    4.8960 C.2     5  PHE5        0.2264
      4  O          0.6700   -2.3080    4.3870 O.2     5  PHE5       -0.2867
      5  CB        -1.8720   -0.7830    3.2630 C.3     5  PHE5        0.0534
      6  CG        -3.2220   -1.1000    2.6680 C.ar    5  PHE5       -0.0203
      7  CD1       -4.1010   -1.9570    3.3140 C.ar    5  PHE5       -0.0042
      8  CD2       -3.6110   -0.5390    1.4560 C.ar    5  PHE5       -0.0042
      9  CE1       -5.3560   -2.2460    2.7660 C.ar    5  PHE5       -0.0003
     10  CE2       -4.8560   -0.8240    0.9020 C.ar    5  PHE5       -0.0003
     11  CZ        -5.7280   -1.6790    1.5540 C.ar    5  PHE5       -0.0000
     12  N         -8.4650   -9.6080   -0.3060 N.3    29  ASP29      -0.1239
     13  CA        -9.2540   -8.7230    0.5370 C.3    29  ASP29       0.1674
     14  C         -9.9120   -9.5640    1.6240 C.2    29  ASP29       0.2266
     15  O        -10.5060  -10.6010    1.3290 O.2    29  ASP29      -0.2867
     16  CB       -10.3010   -7.9900   -0.3100 C.3    29  ASP29       0.1410
     17  CG       -10.9890   -6.8620    0.4400 C.2    29  ASP29       0.3668
     18  OD1      -11.5530   -7.1100    1.5220 O.co2  29  ASP29      -0.2456
     19  OD2      -10.9710   -5.7180   -0.0640 O.co2  29  ASP29      -0.2456
     20  N        -12.3640   -8.6710    3.5180 N.3    31  ALA31      -0.1245
     21  CA       -13.8170   -8.4700    3.4780 C.3    31  ALA31       0.1562
     22  C        -14.3450   -8.5980    2.0440 C.2    31  ALA31       0.2260
     23  O        -14.8720   -7.6310    1.4840 O.2    31  ALA31      -0.2867
     24  CB       -14.1830   -7.1130    4.0580 C.3    31  ALA31       0.0290
     25  N        -16.0390   -8.9540   -1.5240 N.3    33  GLN33      -0.1245
     26  CA       -17.3590   -8.6350   -2.0590 C.3    33  GLN33       0.1566
     27  C        -17.6650   -9.4940   -3.2800 C.2    33  GLN33       0.2260
     28  O        -18.6920   -9.3110   -3.9320 O.2    33  GLN33      -0.2867
     29  CB       -17.4470   -7.1540   -2.4210 C.3    33  GLN33       0.0367
     30  CG       -17.2260   -6.2090   -1.2420 C.3    33  GLN33       0.0905
     31  CD       -18.3240   -6.3300   -0.1980 C.2    33  GLN33       0.2608
     32  OE1      -19.5050   -6.4550   -0.5260 O.2    33  GLN33      -0.2717
     33  NE2      -17.9360   -6.3140    1.0580 N.am   33  GLN33      -0.0878
     34  N         -6.5060   -7.1840   -3.8460 N.3    39  LEU39      -0.1245
     35  CA        -6.0920   -5.7910   -3.9220 C.3    39  LEU39       0.1561
     36  C         -4.6840   -5.6890   -4.4760 C.2    39  LEU39       0.2260
     37  O         -3.8040   -6.4630   -4.0930 O.2    39  LEU39      -0.2867
     38  CB        -6.1410   -5.1400   -2.5440 C.3    39  LEU39       0.0270
     39  CG        -7.4790   -5.2360   -1.8070 C.3    39  LEU39       0.0019
     40  CD1       -7.3560   -4.6540   -0.4040 C.3    39  LEU39       0.0001
     41  CD2       -8.5160   -4.4900   -2.5950 C.3    39  LEU39       0.0001
     42  N        -11.1170    3.6130   -5.7000 N.3    85  ASN85      -0.1240
     43  CA       -11.9660    4.5760   -4.9980 C.3    85  ASN85       0.1653
     44  C        -11.1480    5.7540   -4.5470 C.2    85  ASN85       0.2266
     45  O        -10.0800    5.5690   -3.9680 O.2    85  ASN85      -0.2867
     46  CB       -12.6460    3.9280   -3.7870 C.3    85  ASN85       0.1155
     47  CG       -13.5670    2.7930   -4.1740 C.2    85  ASN85       0.2627
     48  OD1      -14.3290    2.8910   -5.1390 O.2    85  ASN85      -0.2716
     49  ND2      -13.5240    1.7140   -3.4030 N.am   85  ASN85      -0.0877
     50  N        -16.2850    6.3380   -1.7400 N.3    91  ALA91      -0.1231
     51  CA       -16.2930    5.3610   -0.6390 C.3    91  ALA91       0.1694
     52  C        -14.9080    4.7930   -0.3250 C.2    91  ALA91       0.2592
     53  O        -14.7900    3.6370    0.0690 O.2    91  ALA91      -0.2718
     54  CB       -17.2650    4.2200   -0.9320 C.3    91  ALA91       0.0304
     55  N        -13.8670    5.6000   -0.4890 N.am   92  GLN92      -0.1966
     56  CA       -12.5350    5.1750   -0.0950 C.3    92  GLN92       0.1733
     57  C        -12.4470    5.1650    1.4310 C.2    92  GLN92       0.2617
     58  O        -12.7840    6.1530    2.0850 O.2    92  GLN92      -0.2715
     59  CB       -11.4590    6.0830   -0.6870 C.3    92  GLN92       0.0408
     60  CG       -10.0440    5.5730   -0.4160 C.3    92  GLN92       0.0908
     61  CD        -8.9520    6.4410   -1.0060 C.2    92  GLN92       0.2608
     62  OE1       -9.1920    7.5630   -1.4620 O.2    92  GLN92      -0.2717
     63  NE2       -7.7310    5.9250   -0.9900 N.am   92  GLN92      -0.0878
     64  N        -12.0280    4.0450    2.0060 N.am   93  SER93      -0.1936
     65  CA       -11.9540    3.9630    3.4660 C.3    93  SER93       0.2055
     66  C        -10.5200    3.7450    3.9580 C.2    93  SER93       0.2642
     67  O        -10.2060    3.9990    5.1270 O.2    93  SER93      -0.2714
     68  CB       -12.8750    2.8580    3.9820 C.3    93  SER93       0.2130
     69  OG       -12.4030    1.5820    3.5870 O.3    93  SER93      -0.2179
     70  N         -9.6450    3.2900    3.0670 N.am   94  VAL94      -0.1977
     71  CA        -8.2320    3.1650    3.3990 C.3    94  VAL94       0.1596
     72  C         -7.4230    4.0760    2.4940 C.2    94  VAL94       0.2287
     73  O         -7.4060    3.8920    1.2850 O.2    94  VAL94      -0.2864
     74  CB        -7.7180    1.7100    3.2560 C.3    94  VAL94       0.0276
     75  CG1       -6.2290    1.6480    3.5500 C.3    94  VAL94       0.0022
     76  CG2       -8.4860    0.7650    4.1770 C.3    94  VAL94       0.0022
     77  N         -5.1330    1.7380   -3.8380 N.3    98  HIS98      -0.1241
     78  CA        -5.2510    0.3250   -4.1740 C.3    98  HIS98       0.1621
     79  C         -6.3260    0.0850   -5.2150 C.2    98  HIS98       0.2264
     80  O         -7.3710    0.7540   -5.2310 O.2    98  HIS98      -0.2867
     81  CB        -5.5320   -0.5300   -2.9310 C.3    98  HIS98       0.0745
     82  CG        -6.7230   -0.0930   -2.1350 C.ar   98  HIS98       0.0817
     83  ND1       -6.7440    1.0760   -1.4020 N.ar   98  HIS98      -0.2268
     84  CD2       -7.9240   -0.6860   -1.9310 C.ar   98  HIS98       0.1154
     85  CE1       -7.9090    1.1880   -0.7880 C.ar   98  HIS98       0.1986
     86  NE2       -8.6420    0.1310   -1.0880 N.ar   98  HIS98      -0.2212
     87  N         -8.9690   -2.5990   -6.5490 N.3   100  HIS100     -0.1241
     88  CA        -9.7410   -3.8020   -6.2640 C.3   100  HIS100      0.1621
     89  C         -9.8550   -4.6360   -7.5250 C.2   100  HIS100      0.2264
     90  O        -10.1200   -4.0990   -8.5980 O.2   100  HIS100     -0.2867
     91  CB       -11.1660   -3.4650   -5.7810 C.3   100  HIS100      0.0745
     92  CG       -11.2270   -2.7070   -4.4920 C.ar  100  HIS100      0.0817
     93  ND1      -11.4500   -3.3240   -3.2810 N.ar  100  HIS100     -0.2268
     94  CD2      -11.1440   -1.3820   -4.2300 C.ar  100  HIS100      0.1154
     95  CE1      -11.4690   -2.4160   -2.3230 C.ar  100  HIS100      0.1986
     96  NE2      -11.2940   -1.2290   -2.8710 N.ar  100  HIS100     -0.2212
@<TRIPOS>BOND
     1    90    89    2
     2    89    88    1
     3    87    88    1
     4    88    91    1
     5    91    92    1
     6    42    43    1
     7    80    79    2
     8    79    78    1
     9    48    47    2
    10    43    44    1
    11    43    46    1
    12    44    45    2
    13    92    94   ar
    14    92    93   ar
    15    36    37    2
    16    36    35    1
    17    94    96   ar
    18    47    46    1
    19    47    49   am
    20    78    77    1
    21    78    81    1
    22    28    27    2
    23    35    34    1
    24    35    38    1
    25    93    95   ar
    26    27    26    1
    27    81    82    1
    28    96    95   ar
    29    41    39    1
    30    38    39    1
    31    29    26    1
    32    29    30    1
    33    82    84   ar
    34    82    83   ar
    35    26    25    1
    36    84    86   ar
    37    39    40    1
    38    50    51    1
    39    62    61    2
    40    83    85   ar
    41    30    31    1
    42    86    85   ar
    43    61    63   am
    44    61    60    1
    45    54    51    1
    46    59    60    1
    47    59    56    1
    48    51    52    1
    49    32    31    2
    50    55    52   am
    51    55    56    1
    52    52    53    2
    53    16    17    1
    54    16    13    1
    55    12    13    1
    56    31    33   am
    57    56    57    1
    58    19    17   ar
    59    17    18   ar
    60    13    14    1
    61    10     8   ar
    62    10    11   ar
    63    73    72    2
    64    15    14    2
    65    57    64   am
    66    57    58    2
    67     8     6   ar
    68    23    22    2
    69    11     9   ar
    70    64    65    1
    71    22    21    1
    72    72    71    1
    73     6     5    1
    74     6     7   ar
    75     9     7   ar
    76    70    71    1
    77    70    66   am
    78    74    71    1
    79    74    75    1
    80    74    76    1
    81     5     2    1
    82    65    66    1
    83    65    68    1
    84    21    20    1
    85    21    24    1
    86    69    68    1
    87    66    67    2
    88     4     3    2
    89     2     3    1
    90     2     1    1
