@<TRIPOS>MOLECULE
tmp/5km9A00.pdb
 151 145 0 0 0
SMALL
GASTEIGER

@<TRIPOS>ATOM
      1  N         -3.6180    0.4310    7.7330 N.3     4  ILE4       -0.1231
      2  CA        -3.3750   -0.9800    7.9870 C.3     4  ILE4        0.1692
      3  C         -2.6070   -1.6350    6.8260 C.2     4  ILE4        0.2592
      4  O         -1.9600   -2.6590    7.0170 O.2     4  ILE4       -0.2718
      5  CB        -4.7090   -1.7380    8.2490 C.3     4  ILE4        0.0266
      6  CG1       -4.4580   -3.1010    8.9100 C.3     4  ILE4        0.0019
      7  CG2       -5.5360   -1.8770    6.9630 C.3     4  ILE4        0.0020
      8  CD1       -3.9200   -2.9940   10.3180 C.3     4  ILE4        0.0001
      9  N         -2.6490   -1.0430    5.6280 N.am    5  PHE5       -0.1976
     10  CA        -1.9010   -1.6350    4.5180 C.3     5  PHE5        0.1639
     11  C         -0.3970   -1.5660    4.7890 C.2     5  PHE5        0.2290
     12  O          0.3570   -2.3580    4.2540 O.2     5  PHE5       -0.2864
     13  CB        -2.2330   -0.9600    3.1800 C.3     5  PHE5        0.0560
     14  CG        -3.6130   -1.2670    2.6550 C.ar    5  PHE5       -0.0200
     15  CD1       -4.4810   -2.0950    3.3450 C.ar    5  PHE5       -0.0042
     16  CD2       -4.0450   -0.7090    1.4520 C.ar    5  PHE5       -0.0042
     17  CE1       -5.7640   -2.3530    2.8580 C.ar    5  PHE5       -0.0003
     18  CE2       -5.3260   -0.9740    0.9620 C.ar    5  PHE5       -0.0003
     19  CZ        -6.1770   -1.7900    1.6590 C.ar    5  PHE5       -0.0000
     20  N          0.4170   -4.8280    6.1710 N.3     8  ILE8       -0.1245
     21  CA         0.3980   -5.8730    5.1720 C.3     8  ILE8        0.1561
     22  C          1.7170   -5.8320    4.3910 C.2     8  ILE8        0.2260
     23  O          2.3360   -6.8680    4.1470 O.2     8  ILE8       -0.2867
     24  CB        -0.8260   -5.7270    4.2600 C.3     8  ILE8        0.0252
     25  CG1       -2.1040   -5.9260    5.0950 C.3     8  ILE8        0.0019
     26  CG2       -0.7690   -6.7440    3.1290 C.3     8  ILE8        0.0019
     27  CD1       -3.4000   -5.7430    4.3440 C.3     8  ILE8        0.0001
     28  N          1.1650   -7.9970    9.6230 N.3    13  LEU13      -0.1245
     29  CA        -0.1680   -8.5830    9.5550 C.3    13  LEU13       0.1561
     30  C         -0.1630   -9.6370    8.4410 C.2    13  LEU13       0.2260
     31  O         -0.0090   -9.2980    7.2630 O.2    13  LEU13      -0.2867
     32  CB        -1.2380   -7.5080    9.3000 C.3    13  LEU13       0.0270
     33  CG        -2.6570   -8.0000    9.0020 C.3    13  LEU13       0.0019
     34  CD1       -3.1700   -8.9110   10.0980 C.3    13  LEU13       0.0001
     35  CD2       -3.6140   -6.8350    8.7870 C.3    13  LEU13       0.0001
     36  N         -1.1670  -11.8570    5.5340 N.3    15  ALA15      -0.1245
     37  CA        -2.1590  -11.6730    4.4900 C.3    15  ALA15       0.1562
     38  C         -2.0100  -12.7850    3.4750 C.2    15  ALA15       0.2260
     39  O         -0.9630  -13.4350    3.4130 O.2    15  ALA15      -0.2867
     40  CB        -1.9950  -10.3140    3.8320 C.3    15  ALA15       0.0290
     41  N         -2.9600   -8.8510   -2.5850 N.3    27  PHE27      -0.1227
     42  CA        -3.4430   -9.7160   -1.5090 C.3    27  PHE27       0.1736
     43  C         -4.9580   -9.7910   -1.4990 C.2    27  PHE27       0.2595
     44  O         -5.6370   -8.9100   -2.0170 O.2    27  PHE27      -0.2718
     45  CB        -2.9280   -9.2360   -0.1380 C.3    27  PHE27       0.0547
     46  CG        -3.2350   -7.7890    0.1580 C.ar   27  PHE27      -0.0202
     47  CD1       -4.3630   -7.4350    0.8770 C.ar   27  PHE27      -0.0042
     48  CD2       -2.4020   -6.7810   -0.3040 C.ar   27  PHE27      -0.0042
     49  CE1       -4.6490   -6.0990    1.1460 C.ar   27  PHE27      -0.0003
     50  CE2       -2.6860   -5.4450   -0.0410 C.ar   27  PHE27      -0.0003
     51  CZ        -3.8070   -5.1050    0.6910 C.ar   27  PHE27      -0.0000
     52  N         -5.4920  -10.8600   -0.9230 N.am   28  ARG28      -0.1966
     53  CA        -6.9440  -11.0220   -0.8740 C.3    28  ARG28       0.1729
     54  C         -7.5930  -10.0240    0.0770 C.2    28  ARG28       0.2616
     55  O         -7.0680   -9.7220    1.1550 O.2    28  ARG28      -0.2715
     56  CB        -7.3340  -12.4430   -0.4680 C.3    28  ARG28       0.0348
     57  CG        -6.8380  -13.4970   -1.4160 C.3    28  ARG28       0.0492
     58  CD        -7.5950  -14.8120   -1.2610 C.3    28  ARG28       0.2205
     59  NE        -6.9450  -15.8420   -2.0680 N.pl3  28  ARG28      -0.0865
     60  CZ        -7.1190  -15.9940   -3.3750 C.cat  28  ARG28       0.5346
     61  NH1       -7.9500  -15.2010   -4.0400 N.pl3  28  ARG28       0.1354
     62  NH2       -6.4620  -16.9530   -4.0140 N.pl3  28  ARG28       0.1354
     63  N         -8.7560   -9.5280   -0.3290 N.am   29  ASP29      -0.1957
     64  CA        -9.5700   -8.6550    0.5140 C.3    29  ASP29       0.1840
     65  C        -10.2320   -9.4810    1.6180 C.2    29  ASP29       0.2622
     66  O        -10.7930  -10.5420    1.3360 O.2    29  ASP29      -0.2715
     67  CB       -10.6340   -7.9590   -0.3390 C.3    29  ASP29       0.1450
     68  CG       -11.2130   -6.7400    0.3350 C.2    29  ASP29       0.3671
     69  OD1      -11.8500   -6.8890    1.4000 O.co2  29  ASP29      -0.2456
     70  OD2      -11.0410   -5.6250   -0.1930 O.co2  29  ASP29      -0.2456
     71  N        -10.1810   -9.0130    2.8670 N.am   30  VAL30      -0.1963
     72  CA       -10.7420   -9.7990    3.9670 C.3    30  VAL30       0.1727
     73  C        -12.2250   -9.5350    4.1930 C.2    30  VAL30       0.2616
     74  O        -12.8320  -10.1630    5.0600 O.2    30  VAL30      -0.2715
     75  CB        -9.9930   -9.5510    5.2870 C.3    30  VAL30       0.0290
     76  CG1       -8.5430  -10.0100    5.1640 C.3    30  VAL30       0.0023
     77  CG2      -10.1110   -8.0770    5.7000 C.3    30  VAL30       0.0023
     78  N        -12.8090   -8.6220    3.4130 N.am   31  ALA31      -0.1977
     79  CA       -14.2630   -8.4570    3.3640 C.3    31  ALA31       0.1597
     80  C        -14.7140   -8.5840    1.9090 C.2    31  ALA31       0.2287
     81  O        -15.1850   -7.6190    1.2920 O.2    31  ALA31      -0.2864
     82  CB       -14.6870   -7.1240    3.9450 C.3    31  ALA31       0.0319
     83  N        -16.2840   -9.0210   -1.6940 N.3    33  GLN33      -0.1245
     84  CA       -17.5730   -8.6740   -2.2730 C.3    33  GLN33       0.1566
     85  C        -17.8860   -9.5490   -3.4810 C.2    33  GLN33       0.2260
     86  O        -18.8850   -9.3360   -4.1600 O.2    33  GLN33      -0.2867
     87  CB       -17.5860   -7.2020   -2.6790 C.3    33  GLN33       0.0367
     88  CG       -17.3360   -6.2750   -1.4990 C.3    33  GLN33       0.0905
     89  CD       -18.4080   -6.4010   -0.4480 C.2    33  GLN33       0.2608
     90  OE1      -19.5960   -6.2400   -0.7320 O.2    33  GLN33      -0.2717
     91  NE2      -17.9980   -6.6950    0.7790 N.am   33  GLN33      -0.0878
     92  N        -11.8610  -11.6830   -4.7800 N.3    37  HIS37      -0.1241
     93  CA       -11.7430  -10.2550   -4.5280 C.3    37  HIS37       0.1621
     94  C        -10.3700   -9.9960   -3.9360 C.2    37  HIS37       0.2264
     95  O        -10.0920  -10.3750   -2.7920 O.2    37  HIS37      -0.2867
     96  CB       -12.8620   -9.7760   -3.5910 C.3    37  HIS37       0.0745
     97  CG       -12.8730   -8.2970   -3.3460 C.ar   37  HIS37       0.0817
     98  ND1      -13.8350   -7.6900   -2.5640 N.ar   37  HIS37      -0.2268
     99  CD2      -12.0570   -7.3020   -3.7700 C.ar   37  HIS37       0.1154
    100  CE1      -13.6050   -6.3900   -2.5120 C.ar   37  HIS37       0.1986
    101  NE2      -12.5330   -6.1270   -3.2410 N.ar   37  HIS37      -0.2212
    102  N         -6.7550   -7.1200   -3.8980 N.3    39  LEU39      -0.1245
    103  CA        -6.3000   -5.7410   -3.9830 C.3    39  LEU39       0.1561
    104  C         -4.8890   -5.7090   -4.5300 C.2    39  LEU39       0.2260
    105  O         -4.0480   -6.5210   -4.1420 O.2    39  LEU39      -0.2867
    106  CB        -6.3330   -5.0670   -2.6010 C.3    39  LEU39       0.0270
    107  CG        -7.6600   -5.0460   -1.8450 C.3    39  LEU39       0.0019
    108  CD1       -7.4740   -4.2740   -0.5540 C.3    39  LEU39       0.0001
    109  CD2       -8.7630   -4.4230   -2.6600 C.3    39  LEU39       0.0001
    110  N        -13.7440    5.2840   -0.5290 N.3    92  GLN92      -0.1231
    111  CA       -12.3800    4.7450   -0.4730 C.3    92  GLN92       0.1698
    112  C        -11.9770    4.0710    0.8690 C.2    92  GLN92       0.2593
    113  O        -11.3920    2.9780    0.8680 O.2    92  GLN92      -0.2718
    114  CB       -11.3770    5.8510   -0.8230 C.3    92  GLN92       0.0381
    115  CG        -9.9570    5.3010   -0.8620 C.3    92  GLN92       0.0905
    116  CD        -8.9010    6.2840   -1.3050 C.2    92  GLN92       0.2608
    117  OE1       -9.1860    7.3850   -1.7840 O.2    92  GLN92      -0.2717
    118  NE2       -7.6460    5.8630   -1.1750 N.am   92  GLN92      -0.0878
    119  N        -12.2580    4.7520    1.9760 N.am   93  SER93      -0.1938
    120  CA       -12.0540    4.2300    3.3430 C.3    93  SER93       0.2055
    121  C        -10.5990    4.0270    3.7860 C.2    93  SER93       0.2642
    122  O        -10.2250    4.4600    4.8690 O.2    93  SER93      -0.2714
    123  CB       -12.8070    2.9110    3.5380 C.3    93  SER93       0.2130
    124  OG       -14.1990    3.1360    3.6480 O.3    93  SER93      -0.2179
    125  N         -9.7790    3.3460    2.9830 N.am   94  VAL94      -0.1977
    126  CA        -8.3530    3.1990    3.3310 C.3    94  VAL94       0.1596
    127  C         -7.5320    4.0770    2.3970 C.2    94  VAL94       0.2287
    128  O         -7.5770    3.8940    1.1790 O.2    94  VAL94      -0.2864
    129  CB        -7.8510    1.7370    3.2400 C.3    94  VAL94       0.0276
    130  CG1       -6.3380    1.6800    3.4400 C.3    94  VAL94       0.0022
    131  CG2       -8.5400    0.8730    4.2910 C.3    94  VAL94       0.0022
    132  N         -5.3320    1.6170   -3.9610 N.3    98  HIS98      -0.1241
    133  CA        -5.5450    0.1920   -4.1930 C.3    98  HIS98       0.1621
    134  C         -6.5180   -0.0230   -5.3430 C.2    98  HIS98       0.2264
    135  O         -7.4880    0.7220   -5.5060 O.2    98  HIS98      -0.2867
    136  CB        -6.0280   -0.5360   -2.9130 C.3    98  HIS98       0.0745
    137  CG        -7.2400    0.0620   -2.2610 C.ar   98  HIS98       0.0817
    138  ND1       -7.1870    1.2010   -1.4870 N.ar   98  HIS98      -0.2268
    139  CD2       -8.5280   -0.3590   -2.2220 C.ar   98  HIS98       0.1154
    140  CE1       -8.3960    1.4690   -1.0160 C.ar   98  HIS98       0.1986
    141  NE2       -9.2310    0.5420   -1.4550 N.ar   98  HIS98      -0.2212
    142  N         -9.1870   -2.6500   -6.6370 N.3   100  HIS100     -0.1241
    143  CA        -9.9960   -3.8360   -6.3900 C.3   100  HIS100      0.1621
    144  C        -10.0980   -4.6610   -7.6540 C.2   100  HIS100      0.2264
    145  O        -10.3640   -4.1120   -8.7240 O.2   100  HIS100     -0.2867
    146  CB       -11.4260   -3.4800   -5.9750 C.3   100  HIS100      0.0745
    147  CG       -11.5450   -2.7220   -4.6940 C.ar  100  HIS100      0.0817
    148  ND1      -11.7710   -3.3410   -3.4800 N.ar  100  HIS100     -0.2268
    149  CD2      -11.5380   -1.3920   -4.4400 C.ar  100  HIS100      0.1154
    150  CE1      -11.8610   -2.4270   -2.5350 C.ar  100  HIS100      0.1986
    151  NE2      -11.7260   -1.2330   -3.0900 N.ar  100  HIS100     -0.2212
@<TRIPOS>BOND
     1   145   144    2
     2   144   143    1
     3   142   143    1
     4   143   146    1
     5   146   147    1
     6   135   134    2
     7   134   133    1
     8    92    93    1
     9   147   149   ar
    10   147   148   ar
    11   104   105    2
    12   104   103    1
    13    93    94    1
    14    93    96    1
    15   149   151   ar
    16   133   132    1
    17   133   136    1
    18    86    85    2
    19    61    60    1
    20    62    60    1
    21   103   102    1
    22   103   106    1
    23    94    95    2
    24    99    97   ar
    25    99   101   ar
    26    96    97    1
    27    85    84    1
    28   148   150   ar
    29    60    59    2
    30    97    98   ar
    31   101   100   ar
    32   151   150   ar
    33   136   137    1
    34    87    84    1
    35    87    88    1
    36   109   107    1
    37   106   107    1
    38    41    42    1
    39    98   100   ar
    40    84    83    1
    41   137   139   ar
    42   137   138   ar
    43   139   141   ar
    44    59    58    1
    45    44    43    2
    46   107   108    1
    47   117   116    2
    48    42    43    1
    49    42    45    1
    50    43    52   am
    51    88    89    1
    52   138   140   ar
    53   141   140   ar
    54    57    58    1
    55    57    56    1
    56   116   118   am
    57   116   115    1
    58    52    53    1
    59    53    56    1
    60    53    54    1
    61   115   114    1
    62   114   111    1
    63    90    89    2
    64   110   111    1
    65   111   112    1
    66    89    91   am
    67    67    68    1
    68    67    64    1
    69    63    54   am
    70    63    64    1
    71    48    50   ar
    72    48    46   ar
    73    70    68   ar
    74    45    46    1
    75    50    51   ar
    76    54    55    2
    77    46    47   ar
    78    68    69   ar
    79    64    65    1
    80    51    49   ar
    81   113   112    2
    82   112   119   am
    83    47    49   ar
    84    18    16   ar
    85    18    19   ar
    86   128   127    2
    87    81    80    2
    88    66    65    2
    89    16    14   ar
    90    65    71   am
    91    19    17   ar
    92    80    79    1
    93   119   120    1
    94   127   126    1
    95    14    13    1
    96    14    15   ar
    97    17    15   ar
    98    71    72    1
    99   125   126    1
   100   125   121   am
   101    26    24    1
   102    13    10    1
   103   129   126    1
   104   129   130    1
   105   129   131    1
   106   120   123    1
   107   120   121    1
   108    79    78    1
   109    79    82    1
   110    39    38    2
   111    78    73   am
   112    38    37    1
   113   123   124    1
   114   121   122    2
   115    40    37    1
   116    72    73    1
   117    72    75    1
   118    23    22    2
   119    73    74    2
   120    12    11    2
   121    24    25    1
   122    24    21    1
   123    27    25    1
   124    22    21    1
   125    37    36    1
   126    10    11    1
   127    10     9    1
   128    76    75    1
   129    21    20    1
   130    75    77    1
   131     9     3   am
   132     3     4    2
   133     3     2    1
   134     7     5    1
   135    31    30    2
   136     1     2    1
   137     2     5    1
   138     5     6    1
   139    30    29    1
   140    35    33    1
   141     6     8    1
   142    33    32    1
   143    33    34    1
   144    32    29    1
   145    29    28    1
