@<TRIPOS>MOLECULE
tmp/5kmaA00.pdb
 169 165 0 0 0
SMALL
GASTEIGER

@<TRIPOS>ATOM
      1  N        -32.9490   -1.5850  -33.5280 N.3     7  ILE7       -0.1231
      2  CA       -31.9320   -0.8390  -34.2640 C.3     7  ILE7        0.1692
      3  C        -30.5370   -1.4170  -33.9840 C.2     7  ILE7        0.2592
      4  O        -29.6890   -1.4580  -34.8790 O.2     7  ILE7       -0.2718
      5  CB       -31.9780    0.6860  -33.9090 C.3     7  ILE7        0.0266
      6  CG1      -30.7770    1.4430  -34.4890 C.3     7  ILE7        0.0019
      7  CG2      -32.0440    0.9110  -32.4060 C.3     7  ILE7        0.0020
      8  CD1      -30.7820    1.5080  -35.9780 C.3     7  ILE7        0.0001
      9  N        -30.3180   -1.9080  -32.7640 N.am    8  PHE8       -0.1976
     10  CA       -28.9960   -2.4080  -32.3920 C.3     8  PHE8        0.1639
     11  C        -28.7160   -3.7490  -33.0610 C.2     8  PHE8        0.2290
     12  O        -27.5720   -4.0380  -33.4230 O.2     8  PHE8       -0.2864
     13  CB       -28.8610   -2.5140  -30.8720 C.3     8  PHE8        0.0560
     14  CG       -28.8130   -1.1810  -30.1690 C.ar    8  PHE8       -0.0200
     15  CD1      -28.7150   -0.0010  -30.8910 C.ar    8  PHE8       -0.0042
     16  CD2      -28.8550   -1.1140  -28.7860 C.ar    8  PHE8       -0.0042
     17  CE1      -28.6680    1.2290  -30.2460 C.ar    8  PHE8       -0.0003
     18  CE2      -28.8140    0.1180  -28.1330 C.ar    8  PHE8       -0.0003
     19  CZ       -28.7210    1.2870  -28.8710 C.ar    8  PHE8       -0.0000
     20  N        -27.5990   -2.8770  -36.5150 N.3    11  ILE11      -0.1245
     21  CA       -26.2350   -2.3580  -36.4780 C.3    11  ILE11       0.1561
     22  C        -25.2200   -3.5000  -36.3140 C.2    11  ILE11       0.2260
     23  O        -24.1980   -3.5340  -37.0060 O.2    11  ILE11      -0.2867
     24  CB       -26.0910   -1.3100  -35.3520 C.3    11  ILE11       0.0252
     25  CG1      -26.7360    0.0120  -35.7910 C.3    11  ILE11       0.0019
     26  CG2      -24.6200   -1.0800  -34.9890 C.3    11  ILE11       0.0019
     27  CD1      -26.8860    1.0460  -34.6660 C.3    11  ILE11       0.0001
     28  N        -27.4740   -1.4600  -40.8710 N.3    16  ILE16      -0.1231
     29  CA       -27.5850   -0.0210  -40.6580 C.3    16  ILE16       0.1678
     30  C        -26.2160    0.4740  -40.1990 C.2    16  ILE16       0.2434
     31  O        -25.5880   -0.1590  -39.3540 O.2    16  ILE16      -0.2733
     32  CB       -28.6760    0.3200  -39.6130 C.3    16  ILE16       0.0265
     33  CG1      -30.0600   -0.0290  -40.1760 C.3    16  ILE16       0.0019
     34  CG2      -28.6280    1.7870  -39.2160 C.3    16  ILE16       0.0020
     35  CD1      -31.2080    0.3360  -39.2680 C.3    16  ILE16       0.0001
     36  N        -25.7300    1.5900  -40.7780 N.am   17  PRO17      -0.2718
     37  CA       -24.3770    2.0450  -40.4280 C.3    17  PRO17       0.1535
     38  C        -24.2490    2.5870  -39.0060 C.2    17  PRO17       0.2598
     39  O        -25.1910    3.1430  -38.4430 O.2    17  PRO17      -0.2715
     40  CB       -24.0980    3.1660  -41.4450 C.3    17  PRO17       0.0310
     41  CG       -25.0640    2.9400  -42.5600 C.3    17  PRO17       0.0237
     42  CD       -26.2690    2.2880  -41.9580 C.3    17  PRO17       0.0939
     43  N        -23.0560    2.4240  -38.4520 N.am   18  ALA18      -0.1964
     44  CA       -22.7070    3.0340  -37.1830 C.3    18  ALA18       0.1728
     45  C        -21.2180    3.3380  -37.1810 C.2    18  ALA18       0.2616
     46  O        -20.4640    2.8430  -38.0300 O.2    18  ALA18      -0.2715
     47  CB       -23.0880    2.1190  -36.0170 C.3    18  ALA18       0.0334
     48  N        -20.8000    4.1790  -36.2480 N.am   19  LYS19      -0.1977
     49  CA       -19.4030    4.5490  -36.1450 C.3    19  LYS19       0.1596
     50  C        -18.7910    3.6580  -35.0810 C.2    19  LYS19       0.2287
     51  O        -18.9040    3.9300  -33.8940 O.2    19  LYS19      -0.2864
     52  CB       -19.2490    6.0320  -35.8010 C.3    19  LYS19       0.0298
     53  CG       -19.8430    6.9890  -36.8520 C.3    19  LYS19       0.0038
     54  CD       -19.2710    6.7490  -38.2500 C.3    19  LYS19       0.0206
     55  CE       -17.7960    7.1270  -38.3670 C.3    19  LYS19       0.1093
     56  NZ       -17.2800    6.8570  -39.7440 N.3    19  LYS19      -0.1314
     57  N        -19.8310    1.5350  -30.1390 N.3    30  PHE30      -0.1227
     58  CA       -20.0520    2.4660  -31.2450 C.3    30  PHE30       0.1736
     59  C        -20.5960    3.7840  -30.7030 C.2    30  PHE30       0.2595
     60  O        -21.1720    3.8130  -29.6230 O.2    30  PHE30      -0.2718
     61  CB       -21.0040    1.8580  -32.2990 C.3    30  PHE30       0.0547
     62  CG       -22.3660    1.4790  -31.7630 C.ar   30  PHE30      -0.0202
     63  CD1      -23.4690    2.3040  -31.9690 C.ar   30  PHE30      -0.0042
     64  CD2      -22.5420    0.2940  -31.0580 C.ar   30  PHE30      -0.0042
     65  CE1      -24.7320    1.9520  -31.4700 C.ar   30  PHE30      -0.0003
     66  CE2      -23.7930   -0.0650  -30.5590 C.ar   30  PHE30      -0.0003
     67  CZ       -24.8850    0.7570  -30.7620 C.ar   30  PHE30      -0.0000
     68  N        -20.4210    4.8750  -31.4430 N.am   31  HIS31      -0.1961
     69  CA       -20.8190    6.1850  -30.9360 C.3    31  HIS31       0.1787
     70  C        -22.3300    6.3640  -30.9270 C.2    31  HIS31       0.2620
     71  O        -23.0350    5.8260  -31.7810 O.2    31  HIS31      -0.2715
     72  CB       -20.1520    7.2870  -31.7530 C.3    31  HIS31       0.0785
     73  CG       -18.6720    7.3290  -31.5670 C.ar   31  HIS31       0.0821
     74  ND1      -18.0780    8.0070  -30.5230 N.ar   31  HIS31      -0.2267
     75  CD2      -17.6690    6.7310  -32.2500 C.ar   31  HIS31       0.1154
     76  CE1      -16.7680    7.8510  -30.5910 C.ar   31  HIS31       0.1986
     77  NE2      -16.4940    7.0760  -31.6260 N.ar   31  HIS31      -0.2212
     78  N        -22.8250    7.0990  -29.9300 N.am   32  ASP32      -0.1957
     79  CA       -24.2480    7.4000  -29.8460 C.3    32  ASP32       0.1840
     80  C        -24.6380    8.4670  -30.8700 C.2    32  ASP32       0.2622
     81  O        -23.9330    9.4620  -31.0300 O.2    32  ASP32      -0.2715
     82  CB       -24.6090    7.8750  -28.4350 C.3    32  ASP32       0.1450
     83  CG       -26.0780    7.7530  -28.1430 C.2    32  ASP32       0.3671
     84  OD1      -26.8820    8.5190  -28.7350 O.co2  32  ASP32      -0.2456
     85  OD2      -26.4320    6.9040  -27.3020 O.co2  32  ASP32      -0.2456
     86  N        -25.7630    8.2540  -31.5510 N.am   33  ILE33      -0.1963
     87  CA       -26.2220    9.1710  -32.5960 C.3    33  ILE33       0.1727
     88  C        -26.7400   10.4840  -31.9960 C.2    33  ILE33       0.2616
     89  O        -26.8130   11.4990  -32.6870 O.2    33  ILE33      -0.2715
     90  CB       -27.3220    8.5050  -33.4570 C.3    33  ILE33       0.0290
     91  CG1      -27.4680    9.2060  -34.8130 C.3    33  ILE33       0.0022
     92  CG2      -28.6460    8.4150  -32.6890 C.3    33  ILE33       0.0023
     93  CD1      -28.2590    8.3920  -35.8190 C.3    33  ILE33       0.0001
     94  N        -27.0780   10.4570  -30.7090 N.am   34  SER34      -0.1950
     95  CA       -27.5450   11.6510  -30.0040 C.3    34  SER34       0.1924
     96  C        -26.7160   11.8900  -28.7510 C.2    34  SER34       0.2314
     97  O        -27.1950   11.7000  -27.6320 O.2    34  SER34      -0.2863
     98  CB       -29.0220   11.5180  -29.6480 C.3    34  SER34       0.2116
     99  OG       -29.8130   11.4630  -30.8290 O.3    34  SER34      -0.2180
    100  N        -19.6070   10.2820  -26.2890 N.3    40  HIS40      -0.1241
    101  CA       -20.7180    9.4800  -25.7970 C.3    40  HIS40       0.1621
    102  C        -20.8530    8.2620  -26.6970 C.2    40  HIS40       0.2264
    103  O        -21.2480    8.3860  -27.8650 O.2    40  HIS40      -0.2867
    104  CB       -22.0120   10.3130  -25.7810 C.3    40  HIS40       0.0745
    105  CG       -23.2100    9.5770  -25.2550 C.ar   40  HIS40       0.0817
    106  ND1      -24.4540   10.1640  -25.1570 N.ar   40  HIS40      -0.2268
    107  CD2      -23.3510    8.3170  -24.7720 C.ar   40  HIS40       0.1154
    108  CE1      -25.3130    9.2940  -24.6560 C.ar   40  HIS40       0.1986
    109  NE2      -24.6690    8.1670  -24.4110 N.ar   40  HIS40      -0.2212
    110  N        -21.6740    3.7110  -26.8790 N.3    42  LEU42      -0.1245
    111  CA       -22.4460    2.6020  -26.3560 C.3    42  LEU42       0.1561
    112  C        -21.6450    1.3170  -26.4700 C.2    42  LEU42       0.2260
    113  O        -20.9240    1.1180  -27.4500 O.2    42  LEU42      -0.2867
    114  CB       -23.7600    2.4600  -27.1280 C.3    42  LEU42       0.0270
    115  CG       -24.6070    3.7180  -27.2260 C.3    42  LEU42       0.0019
    116  CD1      -25.7720    3.4660  -28.1680 C.3    42  LEU42       0.0001
    117  CD2      -25.1140    4.1560  -25.8650 C.3    42  LEU42       0.0001
    118  N        -29.6770    1.9520  -18.4790 N.3    88  ASN88      -0.1240
    119  CA       -31.0580    2.3150  -18.1990 C.3    88  ASN88       0.1653
    120  C        -31.9860    1.1190  -18.2850 C.2    88  ASN88       0.2266
    121  O        -31.9570    0.3890  -19.2760 O.2    88  ASN88      -0.2867
    122  CB       -31.5270    3.3700  -19.1880 C.3    88  ASN88       0.1155
    123  CG       -30.7530    4.6380  -19.0740 C.2    88  ASN88       0.2627
    124  OD1      -30.4070    5.0640  -17.9740 O.2    88  ASN88      -0.2716
    125  ND2      -30.4840    5.2660  -20.2150 N.am   88  ASN88      -0.0877
    126  N        -35.5710    5.3800  -18.2720 N.3    94  GLY94      -0.1210
    127  CA       -35.4510    6.1220  -19.5130 C.3    94  GLY94       0.1956
    128  C        -34.9920    5.2770  -20.6900 C.2    94  GLY94       0.2612
    129  O        -34.5110    5.8090  -21.6920 O.2    94  GLY94      -0.2717
    130  N        -35.1260    3.9610  -20.5800 N.am   95  GLN95      -0.1965
    131  CA       -34.7040    3.0810  -21.6650 C.3    95  GLN95       0.1733
    132  C        -35.5350    3.3170  -22.9290 C.2    95  GLN95       0.2617
    133  O        -36.7620    3.4230  -22.8600 O.2    95  GLN95      -0.2715
    134  CB       -34.8090    1.6170  -21.2300 C.3    95  GLN95       0.0408
    135  CG       -34.1910    0.6520  -22.2370 C.3    95  GLN95       0.0908
    136  CD       -34.0630   -0.7670  -21.7010 C.2    95  GLN95       0.2608
    137  OE1      -34.5150   -1.0730  -20.5970 O.2    95  GLN95      -0.2717
    138  NE2      -33.4410   -1.6450  -22.4910 N.am   95  GLN95      -0.0878
    139  N        -34.8790    3.4000  -24.0840 N.am   96  SER96      -0.1936
    140  CA       -35.5980    3.6440  -25.3340 C.3    96  SER96       0.2055
    141  C        -35.3820    2.5430  -26.3760 C.2    96  SER96       0.2642
    142  O        -36.1770    2.3940  -27.2930 O.2    96  SER96      -0.2714
    143  CB       -35.2100    5.0090  -25.9260 C.3    96  SER96       0.2130
    144  OG       -33.8350    5.0790  -26.2780 O.3    96  SER96      -0.2179
    145  N        -34.3100    1.7710  -26.2290 N.am   97  VAL97      -0.1977
    146  CA       -34.0280    0.6540  -27.1260 C.3    97  VAL97       0.1596
    147  C        -33.9300   -0.5920  -26.2760 C.2    97  VAL97       0.2287
    148  O        -33.0750   -0.6660  -25.3900 O.2    97  VAL97      -0.2864
    149  CB       -32.7200    0.8360  -27.9210 C.3    97  VAL97       0.0276
    150  CG1      -32.4640   -0.3890  -28.8140 C.3    97  VAL97       0.0022
    151  CG2      -32.7570    2.1240  -28.7550 C.3    97  VAL97       0.0022
    152  N        -27.7790   -1.9540  -23.2710 N.3   101  ASN101     -0.1240
    153  CA       -26.6880   -1.0900  -23.7190 C.3   101  ASN101      0.1653
    154  C        -26.0780   -0.3000  -22.5670 C.2   101  ASN101      0.2266
    155  O        -26.7840    0.2330  -21.7070 O.2   101  ASN101     -0.2867
    156  CB       -27.1520   -0.1470  -24.8500 C.3   101  ASN101      0.1155
    157  CG       -28.2990    0.7730  -24.4530 C.2   101  ASN101      0.2627
    158  OD1      -28.0740    1.9160  -24.0630 O.2   101  ASN101     -0.2716
    159  ND2      -29.5330    0.2960  -24.6020 N.am  101  ASN101     -0.0877
    160  N        -23.9680    2.9380  -21.6270 N.3   103  HIS103     -0.1241
    161  CA       -23.4710    4.2520  -22.0720 C.3   103  HIS103      0.1621
    162  C        -22.1380    4.5750  -21.4320 C.2   103  HIS103      0.2264
    163  O        -21.9530    4.3300  -20.2480 O.2   103  HIS103     -0.2867
    164  CB       -24.4430    5.3780  -21.7020 C.3   103  HIS103      0.0745
    165  CG       -25.8060    5.2480  -22.3030 C.ar  103  HIS103      0.0817
    166  ND1      -26.2350    6.0220  -23.3590 N.ar  103  HIS103     -0.2268
    167  CD2      -26.8400    4.4340  -21.9880 C.ar  103  HIS103      0.1154
    168  CE1      -27.4720    5.6840  -23.6780 C.ar  103  HIS103      0.1986
    169  NE2      -27.8650    4.7290  -22.8540 N.ar  103  HIS103     -0.2212
@<TRIPOS>BOND
     1    41    42    1
     2    41    40    1
     3    42    36    1
     4    40    37    1
     5    28    29    1
     6    36    37    1
     7    36    30   am
     8    29    30    1
     9    29    32    1
    10    37    38    1
    11    30    31    2
    12    33    32    1
    13    33    35    1
    14    56    55    1
    15    32    34    1
    16    38    43   am
    17    38    39    2
    18    43    44    1
    19    55    54    1
    20    54    53    1
    21    46    45    2
    22    44    45    1
    23    44    47    1
    24    45    48   am
    25    23    22    2
    26    53    52    1
    27    20    21    1
    28    21    22    1
    29    21    24    1
    30    48    49    1
    31    49    52    1
    32    49    50    1
    33     8     6    1
    34    93    91    1
    35    25    24    1
    36    25    27    1
    37    24    26    1
    38    50    51    2
    39     4     3    2
    40    91    90    1
    41     6     5    1
    42     2     3    1
    43     2     5    1
    44     2     1    1
    45     3     9   am
    46     5     7    1
    47    90    92    1
    48    90    87    1
    49    12    11    2
    50    11    10    1
    51     9    10    1
    52    89    88    2
    53    87    88    1
    54    87    86    1
    55    10    13    1
    56    61    62    1
    57    61    58    1
    58    75    77   ar
    59    75    73   ar
    60    88    94   am
    61    63    62   ar
    62    63    65   ar
    63    71    70    2
    64    62    64   ar
    65    72    73    1
    66    72    69    1
    67    77    76   ar
    68    73    74   ar
    69    86    80   am
    70    65    67   ar
    71    68    69    1
    72    68    59   am
    73    58    59    1
    74    58    57    1
    75    64    66   ar
    76    81    80    2
    77    69    70    1
    78    70    78   am
    79    15    17   ar
    80    15    14   ar
    81    13    14    1
    82    80    79    1
    83    99    98    1
    84    67    66   ar
    85    94    95    1
    86    59    60    2
    87    76    74   ar
    88    17    19   ar
    89    14    16   ar
    90    95    98    1
    91    95    96    1
    92    78    79    1
    93    79    82    1
    94    19    18   ar
    95   150   149    1
    96    16    18   ar
    97   151   149    1
    98    96    97    2
    99    84    83   ar
   100    82    83    1
   101   116   115    1
   102    83    85   ar
   103   149   146    1
   104   103   102    2
   105   113   112    2
   106   142   141    2
   107   115   114    1
   108   115   117    1
   109   114   111    1
   110   146   147    1
   111   146   145    1
   112   110   111    1
   113   102   101    1
   114   112   111    1
   115   141   145   am
   116   141   140    1
   117   100   101    1
   118   144   143    1
   119   147   148    2
   120   143   140    1
   121   101   104    1
   122   104   105    1
   123   140   139    1
   124   105   106   ar
   125   105   107   ar
   126   106   108   ar
   127   156   157    1
   128   156   153    1
   129   107   109   ar
   130   108   109   ar
   131   159   157   am
   132   157   158    2
   133   139   132   am
   134   153   152    1
   135   153   154    1
   136   168   166   ar
   137   168   169   ar
   138   166   165   ar
   139   132   133    2
   140   132   131    1
   141   169   167   ar
   142   154   155    2
   143   138   136   am
   144   165   167   ar
   145   165   164    1
   146   135   136    1
   147   135   134    1
   148   161   164    1
   149   161   160    1
   150   161   162    1
   151   136   137    2
   152   129   128    2
   153   131   134    1
   154   131   130    1
   155   162   163    2
   156   128   130   am
   157   128   127    1
   158   125   123   am
   159   127   126    1
   160   121   120    2
   161   122   123    1
   162   122   119    1
   163   123   124    2
   164   118   119    1
   165   120   119    1
