@<TRIPOS>MOLECULE
tmp/5kmbA00.pdb
 181 177 0 0 0
SMALL
GASTEIGER

@<TRIPOS>ATOM
      1  N        -33.0020   -2.6090  -33.4760 N.3     7  ILE7       -0.1231
      2  CA       -31.9930   -1.8530  -34.2050 C.3     7  ILE7        0.1692
      3  C        -30.5870   -2.3820  -33.9060 C.2     7  ILE7        0.2592
      4  O        -29.7210   -2.3760  -34.7780 O.2     7  ILE7       -0.2718
      5  CB       -32.0850   -0.3290  -33.8670 C.3     7  ILE7        0.0266
      6  CG1      -30.9930    0.4740  -34.5750 C.3     7  ILE7        0.0019
      7  CG2      -32.0250   -0.0710  -32.3600 C.3     7  ILE7        0.0020
      8  CD1      -31.2930    0.7310  -36.0040 C.3     7  ILE7        0.0001
      9  N        -30.3660   -2.8760  -32.6900 N.am    8  PHE8       -0.1976
     10  CA       -29.0350   -3.3600  -32.3210 C.3     8  PHE8        0.1639
     11  C        -28.7320   -4.6940  -32.9980 C.2     8  PHE8        0.2290
     12  O        -27.5930   -4.9520  -33.3940 O.2     8  PHE8       -0.2864
     13  CB       -28.9020   -3.4750  -30.7980 C.3     8  PHE8        0.0560
     14  CG       -28.8950   -2.1360  -30.0920 C.ar    8  PHE8       -0.0200
     15  CD1      -28.8140   -0.9540  -30.8230 C.ar    8  PHE8       -0.0042
     16  CD2      -28.9620   -2.0570  -28.7070 C.ar    8  PHE8       -0.0042
     17  CE1      -28.8050    0.2960  -30.1720 C.ar    8  PHE8       -0.0003
     18  CE2      -28.9650   -0.8130  -28.0610 C.ar    8  PHE8       -0.0003
     19  CZ       -28.8810    0.3550  -28.7990 C.ar    8  PHE8       -0.0000
     20  N        -27.6510   -3.7870  -36.4100 N.3    11  ILE11      -0.1245
     21  CA       -26.2820   -3.2840  -36.3920 C.3    11  ILE11       0.1561
     22  C        -25.2680   -4.4330  -36.2330 C.2    11  ILE11       0.2260
     23  O        -24.2400   -4.4540  -36.9150 O.2    11  ILE11      -0.2867
     24  CB       -26.1080   -2.2220  -35.2810 C.3    11  ILE11       0.0252
     25  CG1      -26.8430   -0.9480  -35.6800 C.3    11  ILE11       0.0019
     26  CG2      -24.6260   -1.9140  -35.0250 C.3    11  ILE11       0.0019
     27  CD1      -26.8920    0.1260  -34.5980 C.3    11  ILE11       0.0001
     28  N        -27.5690   -2.3960  -40.7870 N.3    16  ILE16      -0.1231
     29  CA       -27.7070   -0.9620  -40.5590 C.3    16  ILE16       0.1678
     30  C        -26.3390   -0.4530  -40.1400 C.2    16  ILE16       0.2434
     31  O        -25.6960   -1.0600  -39.2860 O.2    16  ILE16      -0.2733
     32  CB       -28.7740   -0.6600  -39.4820 C.3    16  ILE16       0.0265
     33  CG1      -30.1620   -0.9250  -40.0730 C.3    16  ILE16       0.0019
     34  CG2      -28.6660    0.7810  -38.9710 C.3    16  ILE16       0.0020
     35  CD1      -31.3020   -0.6630  -39.1410 C.3    16  ILE16       0.0001
     36  N        -25.8740    0.6550  -40.7470 N.am   17  PRO17      -0.2718
     37  CA       -24.5110    1.1030  -40.4380 C.3    17  PRO17       0.1535
     38  C        -24.3760    1.6970  -39.0450 C.2    17  PRO17       0.2598
     39  O        -25.3240    2.2620  -38.4990 O.2    17  PRO17      -0.2715
     40  CB       -24.2310    2.1690  -41.5060 C.3    17  PRO17       0.0310
     41  CG       -25.5770    2.5990  -41.9870 C.3    17  PRO17       0.0237
     42  CD       -26.4620    1.3960  -41.8750 C.3    17  PRO17       0.0939
     43  N        -23.1820    1.5550  -38.4820 N.am   18  ALA18      -0.1964
     44  CA       -22.8380    2.1770  -37.2180 C.3    18  ALA18       0.1728
     45  C        -21.3590    2.5000  -37.2260 C.2    18  ALA18       0.2616
     46  O        -20.6190    1.9950  -38.0600 O.2    18  ALA18      -0.2715
     47  CB       -23.1830    1.2620  -36.0560 C.3    18  ALA18       0.0334
     48  N        -20.9320    3.3490  -36.2980 N.am   19  LYS19      -0.1977
     49  CA       -19.5220    3.6880  -36.1800 C.3    19  LYS19       0.1596
     50  C        -18.9170    2.8070  -35.1030 C.2    19  LYS19       0.2287
     51  O        -19.0310    3.0920  -33.9100 O.2    19  LYS19      -0.2864
     52  CB       -19.3340    5.1720  -35.8480 C.3    19  LYS19       0.0298
     53  CG       -19.9660    6.1330  -36.8670 C.3    19  LYS19       0.0038
     54  CD       -19.4420    5.8990  -38.2740 C.3    19  LYS19       0.0206
     55  CE       -17.9460    6.1160  -38.3710 C.3    19  LYS19       0.1093
     56  NZ       -17.4730    5.9150  -39.7740 N.3    19  LYS19      -0.1314
     57  N        -19.9450    0.6420  -30.1530 N.3    30  PHE30      -0.1227
     58  CA       -20.1600    1.5770  -31.2630 C.3    30  PHE30       0.1736
     59  C        -20.6960    2.8920  -30.7110 C.2    30  PHE30       0.2595
     60  O        -21.2780    2.9180  -29.6340 O.2    30  PHE30      -0.2718
     61  CB       -21.1180    0.9750  -32.3160 C.3    30  PHE30       0.0547
     62  CG       -22.4770    0.5970  -31.7760 C.ar   30  PHE30      -0.0202
     63  CD1      -23.5600    1.4470  -31.9330 C.ar   30  PHE30      -0.0042
     64  CD2      -22.6670   -0.6130  -31.1100 C.ar   30  PHE30      -0.0042
     65  CE1      -24.8120    1.1070  -31.4410 C.ar   30  PHE30      -0.0003
     66  CE2      -23.9120   -0.9590  -30.6020 C.ar   30  PHE30      -0.0003
     67  CZ       -24.9860   -0.1100  -30.7740 C.ar   30  PHE30      -0.0000
     68  N        -20.5190    3.9850  -31.4540 N.am   31  HIS31      -0.1961
     69  CA       -20.9090    5.2930  -30.9420 C.3    31  HIS31       0.1787
     70  C        -22.4210    5.4930  -30.9420 C.2    31  HIS31       0.2620
     71  O        -23.1190    5.0160  -31.8460 O.2    31  HIS31      -0.2715
     72  CB       -20.2300    6.3790  -31.7620 C.3    31  HIS31       0.0785
     73  CG       -18.7510    6.4100  -31.5790 C.ar   31  HIS31       0.0821
     74  ND1      -18.1540    7.1030  -30.5490 N.ar   31  HIS31      -0.2267
     75  CD2      -17.7500    5.8100  -32.2620 C.ar   31  HIS31       0.1154
     76  CE1      -16.8440    6.9500  -30.6200 C.ar   31  HIS31       0.1986
     77  NE2      -16.5720    6.1630  -31.6450 N.ar   31  HIS31      -0.2212
     78  N        -22.9220    6.1930  -29.9270 N.am   32  ASP32      -0.1957
     79  CA       -24.3460    6.5150  -29.8470 C.3    32  ASP32       0.1840
     80  C        -24.7240    7.6080  -30.8660 C.2    32  ASP32       0.2622
     81  O        -23.9960    8.5860  -31.0300 O.2    32  ASP32      -0.2715
     82  CB       -24.6990    6.9680  -28.4320 C.3    32  ASP32       0.1450
     83  CG       -26.1750    6.8710  -28.1410 C.2    32  ASP32       0.3671
     84  OD1      -26.9590    7.6150  -28.7640 O.co2  32  ASP32      -0.2456
     85  OD2      -26.5540    6.0700  -27.2670 O.co2  32  ASP32      -0.2456
     86  N        -25.8640    7.4340  -31.5300 N.am   33  ILE33      -0.1963
     87  CA       -26.3040    8.3520  -32.5720 C.3    33  ILE33       0.1727
     88  C        -26.8150    9.6710  -31.9890 C.2    33  ILE33       0.2616
     89  O        -26.8910   10.6790  -32.6950 O.2    33  ILE33      -0.2715
     90  CB       -27.3970    7.6990  -33.4510 C.3    33  ILE33       0.0290
     91  CG1      -27.5100    8.4060  -34.8020 C.3    33  ILE33       0.0022
     92  CG2      -28.7350    7.6320  -32.7130 C.3    33  ILE33       0.0023
     93  CD1      -28.3400    7.6340  -35.7930 C.3    33  ILE33       0.0001
     94  N        -27.1620    9.6630  -30.7040 N.am   34  SER34      -0.1950
     95  CA       -27.6100   10.8780  -30.0280 C.3    34  SER34       0.1924
     96  C        -26.7860   11.0860  -28.7660 C.2    34  SER34       0.2314
     97  O        -27.2810   10.8870  -27.6540 O.2    34  SER34      -0.2863
     98  CB       -29.0990   10.7960  -29.6940 C.3    34  SER34       0.2116
     99  OG       -29.8750   10.6410  -30.8720 O.3    34  SER34      -0.2180
    100  N        -19.6790    9.3440  -26.2980 N.3    40  HIS40      -0.1241
    101  CA       -20.8060    8.5670  -25.8060 C.3    40  HIS40       0.1621
    102  C        -20.9440    7.3500  -26.6920 C.2    40  HIS40       0.2264
    103  O        -21.3490    7.4750  -27.8400 O.2    40  HIS40      -0.2867
    104  CB       -22.0930    9.4090  -25.8180 C.3    40  HIS40       0.0745
    105  CG       -23.3030    8.7090  -25.2670 C.ar   40  HIS40       0.0817
    106  ND1      -24.5160    9.3460  -25.1160 N.ar   40  HIS40      -0.2268
    107  CD2      -23.4910    7.4400  -24.8270 C.ar   40  HIS40       0.1154
    108  CE1      -25.4000    8.5050  -24.6120 C.ar   40  HIS40       0.1986
    109  NE2      -24.8060    7.3400  -24.4270 N.ar   40  HIS40      -0.2212
    110  N        -21.7920    2.7960  -26.8700 N.3    42  LEU42      -0.1245
    111  CA       -22.5950    1.6930  -26.3690 C.3    42  LEU42       0.1561
    112  C        -21.7880    0.4190  -26.4880 C.2    42  LEU42       0.2260
    113  O        -21.0340    0.2530  -27.4480 O.2    42  LEU42      -0.2867
    114  CB       -23.8990    1.5830  -27.1770 C.3    42  LEU42       0.0270
    115  CG       -24.7620    2.8500  -27.1860 C.3    42  LEU42       0.0019
    116  CD1      -25.8750    2.7240  -28.2250 C.3    42  LEU42       0.0001
    117  CD2      -25.3550    3.1150  -25.8160 C.3    42  LEU42       0.0001
    118  N        -29.7850    1.2430  -18.5330 N.3    88  ASN88      -0.1240
    119  CA       -31.1750    1.6210  -18.3040 C.3    88  ASN88       0.1653
    120  C        -32.0700    0.4070  -18.3620 C.2    88  ASN88       0.2266
    121  O        -32.0320   -0.3280  -19.3360 O.2    88  ASN88      -0.2867
    122  CB       -31.6470    2.6380  -19.3480 C.3    88  ASN88       0.1155
    123  CG       -30.8690    3.9350  -19.2950 C.2    88  ASN88       0.2627
    124  OD1      -30.4510    4.3780  -18.2240 O.2    88  ASN88      -0.2716
    125  ND2      -30.6750    4.5530  -20.4580 N.am   88  ASN88      -0.0877
    126  N        -38.8750    3.1670  -16.0420 N.3    92  ASP92      -0.1225
    127  CA       -38.2820    4.1470  -15.1380 C.3    92  ASP92       0.1805
    128  C        -36.8070    4.3950  -15.4570 C.2    92  ASP92       0.2598
    129  O        -36.2830    5.4610  -15.1480 O.2    92  ASP92      -0.2718
    130  CB       -38.4430    3.7090  -13.6730 C.3    92  ASP92       0.1424
    131  CG       -39.7760    4.1430  -13.0730 C.2    92  ASP92       0.3668
    132  OD1      -40.5310    4.8760  -13.7540 O.co2  92  ASP92      -0.2456
    133  OD2      -40.0610    3.7710  -11.9100 O.co2  92  ASP92      -0.2456
    134  N        -36.1410    3.4200  -16.0700 N.am   93  GLY93      -0.1942
    135  CA       -34.7670    3.6100  -16.5090 C.3    93  GLY93       0.2014
    136  C        -34.6930    4.3960  -17.8030 C.2    93  GLY93       0.2639
    137  O        -33.6520    4.9550  -18.1460 O.2    93  GLY93      -0.2714
    138  N        -35.8040    4.4430  -18.5310 N.am   94  GLY94      -0.1939
    139  CA       -35.8410    5.1340  -19.8040 C.3    94  GLY94       0.2014
    140  C        -35.3890    4.2660  -20.9650 C.2    94  GLY94       0.2639
    141  O        -35.0400    4.7700  -22.0260 O.2    94  GLY94      -0.2714
    142  N        -35.3790    2.9530  -20.7640 N.am   95  GLN95      -0.1963
    143  CA       -34.9460    2.0430  -21.8220 C.3    95  GLN95       0.1733
    144  C        -35.7990    2.1590  -23.0970 C.2    95  GLN95       0.2617
    145  O        -37.0240    2.0420  -23.0390 O.2    95  GLN95      -0.2715
    146  CB       -34.9710    0.6070  -21.3040 C.3    95  GLN95       0.0408
    147  CG       -34.4820   -0.3790  -22.3290 C.3    95  GLN95       0.0908
    148  CD       -34.1700   -1.7380  -21.7380 C.2    95  GLN95       0.2608
    149  OE1      -34.5750   -2.0560  -20.6140 O.2    95  GLN95      -0.2717
    150  NE2      -33.4510   -2.5540  -22.5020 N.am   95  GLN95      -0.0878
    151  N        -35.1640    2.3830  -24.2490 N.am   96  SER96      -0.1936
    152  CA       -35.9350    2.5330  -25.4910 C.3    96  SER96       0.2055
    153  C        -35.6430    1.4660  -26.5400 C.2    96  SER96       0.2642
    154  O        -36.3690    1.3560  -27.5250 O.2    96  SER96      -0.2714
    155  CB       -35.6880    3.8980  -26.1180 C.3    96  SER96       0.2130
    156  OG       -34.3620    3.9960  -26.6230 O.3    96  SER96      -0.2179
    157  N        -34.5680    0.7100  -26.3370 N.am   97  VAL97      -0.1977
    158  CA       -34.2140   -0.4150  -27.1980 C.3    97  VAL97       0.1596
    159  C        -34.0870   -1.6290  -26.3030 C.2    97  VAL97       0.2287
    160  O        -33.2760   -1.6270  -25.3570 O.2    97  VAL97      -0.2864
    161  CB       -32.8790   -0.2080  -27.9520 C.3    97  VAL97       0.0276
    162  CG1      -32.5540   -1.4250  -28.8220 C.3    97  VAL97       0.0022
    163  CG2      -32.9050    1.0800  -28.8020 C.3    97  VAL97       0.0022
    164  N        -27.7940   -2.9450  -23.2190 N.3   101  ASN101     -0.1240
    165  CA       -26.7120   -2.0920  -23.6820 C.3   101  ASN101      0.1653
    166  C        -26.0890   -1.2970  -22.5440 C.2   101  ASN101      0.2266
    167  O        -26.7800   -0.8570  -21.6200 O.2   101  ASN101     -0.2867
    168  CB       -27.2080   -1.1500  -24.7860 C.3   101  ASN101      0.1155
    169  CG       -28.3550   -0.2660  -24.3390 C.2   101  ASN101      0.2627
    170  OD1      -28.1480    0.8890  -23.9710 O.2   101  ASN101     -0.2716
    171  ND2      -29.5780   -0.8020  -24.3810 N.am  101  ASN101     -0.0877
    172  N        -24.0680    2.0210  -21.6550 N.3   103  HIS103     -0.1241
    173  CA       -23.6270    3.3450  -22.1000 C.3   103  HIS103      0.1621
    174  C        -22.2980    3.6930  -21.4640 C.2   103  HIS103      0.2264
    175  O        -22.1030    3.4310  -20.2880 O.2   103  HIS103     -0.2867
    176  CB       -24.6260    4.4280  -21.7140 C.3   103  HIS103      0.0745
    177  CG       -25.9560    4.3050  -22.3770 C.ar  103  HIS103      0.0817
    178  ND1      -26.3960    5.2040  -23.3220 N.ar  103  HIS103     -0.2268
    179  CD2      -26.9550    3.4100  -22.2110 C.ar  103  HIS103      0.1154
    180  CE1      -27.6050    4.8580  -23.7270 C.ar  103  HIS103      0.1986
    181  NE2      -27.9680    3.7750  -23.0630 N.ar  103  HIS103     -0.2212
@<TRIPOS>BOND
     1    41    42    1
     2    41    40    1
     3    42    36    1
     4    40    37    1
     5    28    29    1
     6    36    37    1
     7    36    30   am
     8    29    30    1
     9    29    32    1
    10    37    38    1
    11    30    31    2
    12    33    32    1
    13    33    35    1
    14    56    55    1
    15    32    34    1
    16    38    39    2
    17    38    43   am
    18    43    44    1
    19    55    54    1
    20    54    53    1
    21    46    45    2
    22    45    44    1
    23    45    48   am
    24    44    47    1
    25    23    22    2
    26    53    52    1
    27    20    21    1
    28    21    22    1
    29    21    24    1
    30    48    49    1
    31    49    52    1
    32    49    50    1
    33     8     6    1
    34    93    91    1
    35    25    24    1
    36    25    27    1
    37    24    26    1
    38    50    51    2
    39    91    90    1
    40     4     3    2
    41     6     5    1
    42     2     3    1
    43     2     5    1
    44     2     1    1
    45     3     9   am
    46     5     7    1
    47    90    92    1
    48    90    87    1
    49    12    11    2
    50    11    10    1
    51    89    88    2
    52     9    10    1
    53    87    88    1
    54    87    86    1
    55    10    13    1
    56    61    62    1
    57    61    58    1
    58    75    77   ar
    59    75    73   ar
    60    88    94   am
    61    63    62   ar
    62    63    65   ar
    63    71    70    2
    64    62    64   ar
    65    72    73    1
    66    72    69    1
    67    77    76   ar
    68    73    74   ar
    69    86    80   am
    70    68    69    1
    71    68    59   am
    72    65    67   ar
    73    58    59    1
    74    58    57    1
    75    64    66   ar
    76    81    80    2
    77    70    69    1
    78    70    78   am
    79    99    98    1
    80    80    79    1
    81    15    17   ar
    82    15    14   ar
    83    13    14    1
    84    67    66   ar
    85    59    60    2
    86    94    95    1
    87    76    74   ar
    88    17    19   ar
    89    14    16   ar
    90    95    98    1
    91    95    96    1
    92    78    79    1
    93    79    82    1
    94   162   161    1
    95   163   161    1
    96    19    18   ar
    97    96    97    2
    98    84    83   ar
    99    16    18   ar
   100    82    83    1
   101   116   115    1
   102    83    85   ar
   103   161   158    1
   104   103   102    2
   105   154   153    2
   106   113   112    2
   107   158   157    1
   108   158   159    1
   109   115   114    1
   110   115   117    1
   111   114   111    1
   112   110   111    1
   113   102   101    1
   114   156   155    1
   115   153   157   am
   116   153   152    1
   117   112   111    1
   118   159   160    2
   119   100   101    1
   120   155   152    1
   121   104   101    1
   122   104   105    1
   123   152   151    1
   124   105   106   ar
   125   105   107   ar
   126   106   108   ar
   127   107   109   ar
   128   168   169    1
   129   168   165    1
   130   108   109   ar
   131   171   169   am
   132   169   170    2
   133   151   144   am
   134   180   178   ar
   135   180   181   ar
   136   165   164    1
   137   165   166    1
   138   178   177   ar
   139   144   145    2
   140   144   143    1
   141   181   179   ar
   142   166   167    2
   143   150   148   am
   144   177   179   ar
   145   177   176    1
   146   147   148    1
   147   147   146    1
   148   173   176    1
   149   173   172    1
   150   173   174    1
   151   141   140    2
   152   143   146    1
   153   143   142    1
   154   148   149    2
   155   174   175    2
   156   140   142   am
   157   140   139    1
   158   125   123   am
   159   139   138    1
   160   122   123    1
   161   122   119    1
   162   121   120    2
   163   123   124    2
   164   118   119    1
   165   138   136   am
   166   120   119    1
   167   137   136    2
   168   136   135    1
   169   135   134    1
   170   134   128   am
   171   126   127    1
   172   128   129    2
   173   128   127    1
   174   127   130    1
   175   132   131   ar
   176   130   131    1
   177   131   133   ar
