@<TRIPOS>MOLECULE
tmp/5kmcA00.pdb
 126 123 0 0 0
SMALL
GASTEIGER

@<TRIPOS>ATOM
      1  N        -32.9790   -1.7000  -33.4900 N.3     7  ILE7       -0.1231
      2  CA       -31.9370   -1.0110  -34.2470 C.3     7  ILE7        0.1692
      3  C        -30.5530   -1.5280  -33.8770 C.2     7  ILE7        0.2592
      4  O        -29.6540   -1.5680  -34.7260 O.2     7  ILE7       -0.2718
      5  CB       -32.0460    0.5180  -34.1180 C.3     7  ILE7        0.0266
      6  CG1      -31.9970    0.9470  -32.6540 C.3     7  ILE7        0.0019
      7  CG2      -33.3030    1.0180  -34.8290 C.3     7  ILE7        0.0020
      8  CD1      -31.9620    2.4290  -32.4990 C.3     7  ILE7        0.0001
      9  N        -30.3590   -1.9420  -32.6180 N.am    8  PHE8       -0.1976
     10  CA       -29.0550   -2.4500  -32.2010 C.3     8  PHE8        0.1639
     11  C        -28.7690   -3.8240  -32.8000 C.2     8  PHE8        0.2290
     12  O        -27.6280   -4.1090  -33.1840 O.2     8  PHE8       -0.2864
     13  CB       -28.9380   -2.4280  -30.6750 C.3     8  PHE8        0.0560
     14  CG       -28.9500   -1.0340  -30.0890 C.ar    8  PHE8       -0.0200
     15  CD1      -28.7620    0.0850  -30.8880 C.ar    8  PHE8       -0.0042
     16  CD2      -29.1500   -0.8500  -28.7350 C.ar    8  PHE8       -0.0042
     17  CE1      -28.7830    1.3670  -30.3380 C.ar    8  PHE8       -0.0003
     18  CE2      -29.1680    0.4240  -28.1790 C.ar    8  PHE8       -0.0003
     19  CZ       -28.9860    1.5300  -28.9810 C.ar    8  PHE8       -0.0000
     20  N        -27.7130   -3.0070  -36.2520 N.3    11  ILE11      -0.1245
     21  CA       -26.3470   -2.4920  -36.2630 C.3    11  ILE11       0.1561
     22  C        -25.3400   -3.6320  -36.1300 C.2    11  ILE11       0.2260
     23  O        -24.3220   -3.6630  -36.8350 O.2    11  ILE11      -0.2867
     24  CB       -26.1800   -1.4080  -35.1830 C.3    11  ILE11       0.0252
     25  CG1      -26.8930   -0.1180  -35.6120 C.3    11  ILE11       0.0019
     26  CG2      -24.7090   -1.1680  -34.8690 C.3    11  ILE11       0.0019
     27  CD1      -26.8880    0.9790  -34.5440 C.3    11  ILE11       0.0001
     28  N        -20.0060    1.6230  -30.1440 N.3    30  PHE30      -0.1227
     29  CA       -20.2790    2.5490  -31.2330 C.3    30  PHE30       0.1736
     30  C        -20.8290    3.8410  -30.6450 C.2    30  PHE30       0.2595
     31  O        -21.3970    3.8610  -29.5490 O.2    30  PHE30      -0.2718
     32  CB       -21.2330    1.9330  -32.2750 C.3    30  PHE30       0.0547
     33  CG       -22.5540    1.5050  -31.7100 C.ar   30  PHE30      -0.0202
     34  CD1      -23.6630    2.3290  -31.7890 C.ar   30  PHE30      -0.0042
     35  CD2      -22.6890    0.2700  -31.0910 C.ar   30  PHE30      -0.0042
     36  CE1      -24.8820    1.9310  -31.2560 C.ar   30  PHE30      -0.0003
     37  CE2      -23.9080   -0.1300  -30.5680 C.ar   30  PHE30      -0.0003
     38  CZ       -25.0010    0.6960  -30.6440 C.ar   30  PHE30      -0.0000
     39  N        -20.6900    4.9240  -31.4050 N.am   31  HIS31      -0.1961
     40  CA       -21.0480    6.2400  -30.8930 C.3    31  HIS31       0.1787
     41  C        -22.5570    6.4470  -30.9000 C.2    31  HIS31       0.2620
     42  O        -23.2660    5.9730  -31.7920 O.2    31  HIS31      -0.2715
     43  CB       -20.3680    7.3260  -31.7230 C.3    31  HIS31       0.0785
     44  CG       -18.8890    7.3600  -31.5370 C.ar   31  HIS31       0.0821
     45  ND1      -18.2910    8.0370  -30.4960 N.ar   31  HIS31      -0.2267
     46  CD2      -17.8900    6.7660  -32.2300 C.ar   31  HIS31       0.1154
     47  CE1      -16.9830    7.8770  -30.5710 C.ar   31  HIS31       0.1986
     48  NE2      -16.7130    7.1040  -31.6080 N.ar   31  HIS31      -0.2212
     49  N        -23.0420    7.1730  -29.8940 N.am   32  ASP32      -0.1957
     50  CA       -24.4560    7.5220  -29.8140 C.3    32  ASP32       0.1840
     51  C        -24.7530    8.6470  -30.8050 C.2    32  ASP32       0.2621
     52  O        -24.0000    9.6190  -30.9020 O.2    32  ASP32      -0.2715
     53  CB       -24.7850    7.9830  -28.3890 C.3    32  ASP32       0.1450
     54  CG       -26.2760    8.0010  -28.1030 C.2    32  ASP32       0.3671
     55  OD1      -27.0030    8.7980  -28.7210 O.co2  32  ASP32      -0.2456
     56  OD2      -26.7330    7.2310  -27.2360 O.co2  32  ASP32      -0.2456
     57  N        -25.8660    8.5210  -31.5330 N.am   33  ILE33      -0.1977
     58  CA       -26.2180    9.5160  -32.5510 C.3    33  ILE33       0.1596
     59  C        -26.7660   10.8080  -31.9740 C.2    33  ILE33       0.2287
     60  O        -26.9030   11.7930  -32.7120 O.2    33  ILE33      -0.2864
     61  CB       -27.2570    8.9570  -33.5410 C.3    33  ILE33       0.0276
     62  CG1      -28.5340    8.5400  -32.7990 C.3    33  ILE33       0.0022
     63  CG2      -26.6640    7.7980  -34.3290 C.3    33  ILE33       0.0022
     64  CD1      -29.6910    8.1660  -33.7150 C.3    33  ILE33       0.0001
     65  N        -21.8300    3.7390  -26.8160 N.3    42  LEU42      -0.1245
     66  CA       -22.5380    2.6080  -26.2450 C.3    42  LEU42       0.1561
     67  C        -21.6880    1.3590  -26.4010 C.2    42  LEU42       0.2260
     68  O        -20.9160    1.2300  -27.3550 O.2    42  LEU42      -0.2867
     69  CB       -23.8530    2.3700  -26.9920 C.3    42  LEU42       0.0270
     70  CG       -24.9070    3.4730  -27.0180 C.3    42  LEU42       0.0019
     71  CD1      -26.1210    2.9340  -27.7490 C.3    42  LEU42       0.0001
     72  CD2      -25.2890    3.8960  -25.6150 C.3    42  LEU42       0.0001
     73  N        -29.7540    2.0310  -18.4960 N.3    88  ASN88      -0.1240
     74  CA       -31.1410    2.4000  -18.2550 C.3    88  ASN88       0.1653
     75  C        -32.0130    1.1550  -18.2990 C.2    88  ASN88       0.2266
     76  O        -31.8950    0.3480  -19.2250 O.2    88  ASN88      -0.2867
     77  CB       -31.6110    3.3820  -19.3270 C.3    88  ASN88       0.1155
     78  CG       -30.8850    4.6980  -19.2550 C.2    88  ASN88       0.2627
     79  OD1      -30.4210    5.0960  -18.1850 O.2    88  ASN88      -0.2716
     80  ND2      -30.7870    5.3870  -20.3820 N.am   88  ASN88      -0.0877
     81  N        -35.6030    5.3550  -18.2160 N.3    94  GLY94      -0.1210
     82  CA       -35.4010    6.0620  -19.4600 C.3    94  GLY94       0.1956
     83  C        -34.9750    5.1870  -20.6130 C.2    94  GLY94       0.2612
     84  O        -34.4700    5.7000  -21.6120 O.2    94  GLY94      -0.2717
     85  N        -35.1670    3.8740  -20.5120 N.am   95  GLN95      -0.1965
     86  CA       -34.7870    2.9880  -21.6050 C.3    95  GLN95       0.1733
     87  C        -35.7020    3.2030  -22.8070 C.2    95  GLN95       0.2617
     88  O        -36.9260    3.2980  -22.6610 O.2    95  GLN95      -0.2715
     89  CB       -34.8500    1.5330  -21.1460 C.3    95  GLN95       0.0408
     90  CG       -34.3650    0.5650  -22.2060 C.3    95  GLN95       0.0908
     91  CD       -34.1800   -0.8520  -21.6830 C.2    95  GLN95       0.2608
     92  OE1      -34.5720   -1.1910  -20.5600 O.2    95  GLN95      -0.2717
     93  NE2      -33.5770   -1.6930  -22.5110 N.am   95  GLN95      -0.0878
     94  N        -35.1080    3.2850  -24.0030 N.am   96  SER96      -0.1936
     95  CA       -35.8690    3.4410  -25.2380 C.3    96  SER96       0.2055
     96  C        -35.6520    2.3360  -26.2650 C.2    96  SER96       0.2642
     97  O        -36.4840    2.1970  -27.1670 O.2    96  SER96      -0.2714
     98  CB       -35.6030    4.8050  -25.9000 C.3    96  SER96       0.2130
     99  OG       -34.2450    4.9440  -26.2610 O.3    96  SER96      -0.2179
    100  N        -34.5640    1.5730  -26.1770 N.am   97  VAL97      -0.1977
    101  CA       -34.2920    0.4540  -27.0750 C.3    97  VAL97       0.1596
    102  C        -34.1160   -0.7860  -26.2090 C.2    97  VAL97       0.2287
    103  O        -33.2820   -0.7990  -25.2900 O.2    97  VAL97      -0.2864
    104  CB       -33.0390    0.7040  -27.9270 C.3    97  VAL97       0.0276
    105  CG1      -32.7480   -0.5070  -28.8070 C.3    97  VAL97       0.0022
    106  CG2      -33.2040    1.9700  -28.7720 C.3    97  VAL97       0.0022
    107  N        -27.7590   -2.0180  -23.3330 N.3   101  HIS101     -0.1241
    108  CA       -26.6670   -1.1140  -23.7950 C.3   101  HIS101      0.1621
    109  C        -26.1090   -0.3260  -22.6340 C.2   101  HIS101      0.2264
    110  O        -26.8470    0.2550  -21.8380 O.2   101  HIS101     -0.2867
    111  CB       -27.0720   -0.1470  -24.9260 C.3   101  HIS101      0.0745
    112  CG       -28.4290    0.5010  -24.7350 C.ar  101  HIS101      0.0817
    113  ND1      -29.5680   -0.2270  -24.7930 N.ar  101  HIS101     -0.2268
    114  CD2      -28.7150    1.8680  -24.5280 C.ar  101  HIS101      0.1154
    115  CE1      -30.7310    0.6260  -24.5990 C.ar  101  HIS101      0.1986
    116  NE2      -30.0500    1.8710  -24.4600 N.ar  101  HIS101     -0.2212
    117  N        -24.1010    2.9270  -21.6750 N.3   103  HIS103     -0.1241
    118  CA       -23.6420    4.2350  -22.1270 C.3   103  HIS103      0.1621
    119  C        -22.3150    4.5480  -21.4560 C.2   103  HIS103      0.2264
    120  O        -22.1150    4.2300  -20.2790 O.2   103  HIS103     -0.2867
    121  CB       -24.6100    5.3370  -21.6790 C.3   103  HIS103      0.0745
    122  CG       -25.9750    5.2610  -22.2860 C.ar  103  HIS103      0.0817
    123  ND1      -26.3450    6.0080  -23.3850 N.ar  103  HIS103     -0.2268
    124  CD2      -27.0720    4.5590  -21.9220 C.ar  103  HIS103      0.1154
    125  CE1      -27.6060    5.7520  -23.6830 C.ar  103  HIS103      0.1986
    126  NE2      -28.0740    4.8810  -22.8050 N.ar  103  HIS103     -0.2212
@<TRIPOS>BOND
     1    23    22    2
     2    21    20    1
     3    21    22    1
     4    21    24    1
     5    25    24    1
     6    25    27    1
     7    24    26    1
     8     7     5    1
     9     4     3    2
    10    63    61    1
    11     2     5    1
    12     2     3    1
    13     2     1    1
    14     5     6    1
    15     3     9   am
    16    64    62    1
    17    61    62    1
    18    61    58    1
    19    12    11    2
    20    11    10    1
    21    60    59    2
    22     6     8    1
    23     9    10    1
    24    58    59    1
    25    58    57    1
    26    32    33    1
    27    32    29    1
    28    46    48   ar
    29    46    44   ar
    30    10    13    1
    31    42    41    2
    32    34    33   ar
    33    34    36   ar
    34    43    44    1
    35    43    40    1
    36    33    35   ar
    37    48    47   ar
    38    44    45   ar
    39    57    51   am
    40    39    40    1
    41    39    30   am
    42    36    38   ar
    43    29    30    1
    44    29    28    1
    45    35    37   ar
    46    52    51    2
    47    41    40    1
    48    41    49   am
    49    15    17   ar
    50    15    14   ar
    51    51    50    1
    52    13    14    1
    53    30    31    2
    54    38    37   ar
    55    47    45   ar
    56    17    19   ar
    57    14    16   ar
    58    49    50    1
    59    50    53    1
    60    19    18   ar
    61   105   104    1
    62   106   104    1
    63    16    18   ar
    64    55    54   ar
    65    53    54    1
    66    54    56   ar
    67   104   101    1
    68    71    70    1
    69    68    67    2
    70    97    96    2
    71   101   102    1
    72   101   100    1
    73    70    69    1
    74    70    72    1
    75    69    66    1
    76    65    66    1
    77    67    66    1
    78    96   100   am
    79    96    95    1
    80    99    98    1
    81   102   103    2
    82    98    95    1
    83    95    94    1
    84   111   112    1
    85   111   108    1
    86   113   112   ar
    87   113   115   ar
    88   112   114   ar
    89   115   116   ar
    90   114   116   ar
    91    94    87   am
    92   108   107    1
    93   108   109    1
    94   125   123   ar
    95   125   126   ar
    96   123   122   ar
    97    87    88    2
    98    87    86    1
    99   126   124   ar
   100   109   110    2
   101    93    91   am
   102   122   124   ar
   103   122   121    1
   104    90    91    1
   105    90    89    1
   106   118   121    1
   107   118   117    1
   108   118   119    1
   109    91    92    2
   110    84    83    2
   111    86    89    1
   112    86    85    1
   113   119   120    2
   114    83    85   am
   115    83    82    1
   116    80    78   am
   117    82    81    1
   118    77    78    1
   119    77    74    1
   120    78    79    2
   121    76    75    2
   122    73    74    1
   123    75    74    1
