@<TRIPOS>MOLECULE
tmp/5kmiA00.pdb
 203 193 0 0 0
SMALL
GASTEIGER

@<TRIPOS>ATOM
      1  N        -12.7870    0.6930  -32.6490 N.3     1  LEU1       -0.1245
      2  CA       -12.2800    0.4740  -31.2920 C.3     1  LEU1        0.1561
      3  C        -12.1020   -1.0120  -30.9690 C.2     1  LEU1        0.2260
      4  O        -13.0880   -1.7560  -30.9390 O.2     1  LEU1       -0.2867
      5  CB       -13.2150    1.1090  -30.2350 C.3     1  LEU1        0.0270
      6  CG       -12.8160    2.4330  -29.5520 C.3     1  LEU1        0.0019
      7  CD1      -13.3860    2.4990  -28.1470 C.3     1  LEU1        0.0001
      8  CD2      -11.3260    2.5900  -29.4330 C.3     1  LEU1        0.0001
      9  N        -11.9520   -4.1600  -28.8500 N.3     3  GLY3       -0.1210
     10  CA       -12.5970   -4.5380  -27.5900 C.3     3  GLY3        0.1956
     11  C        -14.0450   -4.1060  -27.5140 C.2     3  GLY3        0.2612
     12  O        -14.7820   -4.5670  -26.6360 O.2     3  GLY3       -0.2717
     13  N        -14.4610   -3.1970  -28.4260 N.am    4  HIS4       -0.1961
     14  CA       -15.8410   -2.7070  -28.4650 C.3     4  HIS4        0.1787
     15  C        -16.6280   -3.7710  -29.1800 C.2     4  HIS4        0.2620
     16  O        -16.3080   -4.1150  -30.3270 O.2     4  HIS4       -0.2715
     17  CB       -15.9300   -1.3660  -29.2010 C.3     4  HIS4        0.0785
     18  CG       -17.2150   -0.6330  -28.9720 C.ar    4  HIS4        0.0821
     19  ND1      -17.4250    0.6310  -29.5110 N.ar    4  HIS4       -0.2267
     20  CD2      -18.3220   -1.0040  -28.2800 C.ar    4  HIS4        0.1154
     21  CE1      -18.6420    0.9890  -29.1240 C.ar    4  HIS4        0.1986
     22  NE2      -19.2240    0.0340  -28.3890 N.ar    4  HIS4       -0.2212
     23  N        -17.6340   -4.3280  -28.4900 N.am    5  ILE5       -0.1977
     24  CA       -18.4510   -5.4330  -28.9800 C.3     5  ILE5        0.1596
     25  C        -19.0480   -5.2010  -30.4050 C.2     5  ILE5        0.2287
     26  O        -19.0720   -6.1450  -31.1980 O.2     5  ILE5       -0.2864
     27  CB       -19.5300   -5.8470  -27.9420 C.3     5  ILE5        0.0276
     28  CG1      -20.1050   -7.2480  -28.2980 C.3     5  ILE5        0.0022
     29  CG2      -20.6240   -4.7540  -27.7150 C.3     5  ILE5        0.0022
     30  CD1      -21.0110   -7.8920  -27.2770 C.3     5  ILE5        0.0001
     31  N        -18.2230   -6.4960  -34.2380 N.3     8  ASN8       -0.1240
     32  CA       -18.6270   -7.8440  -34.6250 C.3     8  ASN8        0.1653
     33  C        -19.9390   -7.7700  -35.4420 C.2     8  ASN8        0.2266
     34  O        -20.9660   -7.3510  -34.9000 O.2     8  ASN8       -0.2867
     35  CB       -18.7990   -8.7280  -33.3930 C.3     8  ASN8        0.1155
     36  CG       -17.4920   -9.1050  -32.7620 C.2     8  ASN8        0.2627
     37  OD1      -16.7690   -9.9670  -33.2670 O.2     8  ASN8       -0.2716
     38  ND2      -17.1560   -8.4630  -31.6440 N.am    8  ASN8       -0.0877
     39  N        -16.8970    7.4130  -21.9320 N.3    31  PHE31      -0.1241
     40  CA       -18.2230    7.0650  -22.4590 C.3    31  PHE31       0.1605
     41  C        -19.3430    7.0570  -21.3990 C.2    31  PHE31       0.2264
     42  O        -20.5160    6.8640  -21.7520 O.2    31  PHE31      -0.2867
     43  CB       -18.1470    5.7180  -23.2170 C.3    31  PHE31       0.0534
     44  CG       -17.2790    5.7870  -24.4560 C.ar   31  PHE31      -0.0203
     45  CD1      -15.8900    5.7200  -24.3600 C.ar   31  PHE31      -0.0042
     46  CD2      -17.8480    5.9430  -25.7140 C.ar   31  PHE31      -0.0042
     47  CE1      -15.0870    5.8070  -25.5030 C.ar   31  PHE31      -0.0003
     48  CE2      -17.0440    6.0210  -26.8580 C.ar   31  PHE31      -0.0003
     49  CZ       -15.6690    5.9520  -26.7440 C.ar   31  PHE31      -0.0000
     50  N        -24.2780    0.5740  -16.0880 N.3    54  LYS54      -0.1245
     51  CA       -23.4570    1.4280  -16.9250 C.3    54  LYS54       0.1561
     52  C        -24.3880    2.5170  -17.4890 C.2    54  LYS54       0.2260
     53  O        -25.3380    2.2040  -18.1980 O.2    54  LYS54      -0.2867
     54  CB       -22.8070    0.5920  -18.0440 C.3    54  LYS54       0.0271
     55  CG       -21.8610    1.3680  -18.9550 C.3    54  LYS54       0.0035
     56  CD       -21.4100    0.4740  -20.1050 C.3    54  LYS54       0.0206
     57  CE       -20.9830    1.2450  -21.3330 C.3    54  LYS54       0.1093
     58  NZ       -19.6520    1.8710  -21.1650 N.3    54  LYS54      -0.1314
     59  N        -24.9250   -2.4600  -29.2280 N.3    67  GLU67      -0.1245
     60  CA       -24.2070   -3.0710  -28.1020 C.3    67  GLU67       0.1567
     61  C        -25.1610   -3.9580  -27.3420 C.2    67  GLU67       0.2260
     62  O        -24.8360   -5.1100  -27.0800 O.2    67  GLU67      -0.2867
     63  CB       -23.6910   -2.0050  -27.1250 C.3    67  GLU67       0.0388
     64  CG       -22.5380   -1.1660  -27.6050 C.3    67  GLU67       0.1160
     65  CD       -22.4250    0.1630  -26.8910 C.2    67  GLU67       0.3649
     66  OE1      -21.5030    0.9390  -27.2270 O.co2  67  GLU67      -0.2457
     67  OE2      -23.2610    0.4390  -26.0000 O.co2  67  GLU67      -0.2457
     68  N        -24.7400   -7.9640  -26.6830 N.3    71  LEU71      -0.1245
     69  CA       -24.6140   -8.3880  -25.2750 C.3    71  LEU71       0.1561
     70  C        -25.7130   -9.3820  -24.8810 C.2    71  LEU71       0.2260
     71  O        -25.4620  -10.2850  -24.0840 O.2    71  LEU71      -0.2867
     72  CB       -24.5870   -7.1890  -24.3170 C.3    71  LEU71       0.0270
     73  CG       -23.3990   -6.2260  -24.4320 C.3    71  LEU71       0.0019
     74  CD1      -23.6890   -4.8930  -23.7460 C.3    71  LEU71       0.0001
     75  CD2      -22.1170   -6.8420  -23.9120 C.3    71  LEU71       0.0001
     76  N        -24.7060  -12.9780  -25.9900 N.3    74  LEU74      -0.1245
     77  CA       -23.6890  -13.6190  -25.1700 C.3    74  LEU74       0.1561
     78  C        -24.2670  -14.1140  -23.8850 C.2    74  LEU74       0.2260
     79  O        -24.6290  -13.3120  -23.0330 O.2    74  LEU74      -0.2867
     80  CB       -22.4960  -12.6800  -24.9260 C.3    74  LEU74       0.0270
     81  CG       -21.8330  -12.0620  -26.1680 C.3    74  LEU74       0.0019
     82  CD1      -20.7070  -11.1480  -25.7730 C.3    74  LEU74       0.0001
     83  CD2      -21.3040  -13.1170  -27.1150 C.3    74  LEU74       0.0001
     84  N        -18.9080  -15.4660  -19.2580 N.3    79  ILE79      -0.1231
     85  CA       -19.1090  -14.1720  -19.9040 C.3    79  ILE79       0.1692
     86  C        -19.9410  -13.4020  -18.8770 C.2    79  ILE79       0.2591
     87  O        -20.9530  -13.9360  -18.4170 O.2    79  ILE79      -0.2718
     88  CB       -19.8320  -14.2410  -21.2790 C.3    79  ILE79       0.0266
     89  CG1      -19.0420  -15.0400  -22.3500 C.3    79  ILE79       0.0019
     90  CG2      -20.1960  -12.8230  -21.7920 C.3    79  ILE79       0.0020
     91  CD1      -17.6280  -14.4900  -22.7980 C.3    79  ILE79       0.0001
     92  N        -19.5280  -12.1620  -18.5120 N.am   80  VAL80      -0.1980
     93  CA       -20.2700  -11.3170  -17.5600 C.3    80  VAL80       0.1595
     94  C        -21.7320  -11.2000  -18.0200 C.2    80  VAL80       0.2287
     95  O        -21.9950  -10.8650  -19.1750 O.2    80  VAL80      -0.2864
     96  CB       -19.6060   -9.9330  -17.3120 C.3    80  VAL80       0.0276
     97  CG1      -20.4550   -9.0860  -16.3550 C.3    80  VAL80       0.0022
     98  CG2      -18.2210  -10.1220  -16.7130 C.3    80  VAL80       0.0022
     99  N        -25.3340  -10.0150  -18.8560 N.3    82  PHE82      -0.1241
    100  CA       -26.0120   -8.7770  -19.2350 C.3    82  PHE82       0.1605
    101  C        -27.4960   -9.0410  -18.9840 C.2    82  PHE82       0.2264
    102  O        -28.0370  -10.0260  -19.4980 O.2    82  PHE82      -0.2867
    103  CB       -25.7530   -8.4350  -20.7010 C.3    82  PHE82       0.0534
    104  CG       -26.4640   -7.1970  -21.1910 C.ar   82  PHE82      -0.0203
    105  CD1      -26.0840   -5.9370  -20.7490 C.ar   82  PHE82      -0.0042
    106  CD2      -27.5050   -7.2890  -22.1160 C.ar   82  PHE82      -0.0042
    107  CE1      -26.7250   -4.7900  -21.2240 C.ar   82  PHE82      -0.0003
    108  CE2      -28.1370   -6.1480  -22.5920 C.ar   82  PHE82      -0.0003
    109  CZ       -27.7420   -4.9030  -22.1520 C.ar   82  PHE82      -0.0000
    110  N        -27.4180    0.3410  -18.9340 N.3    94  MET94      -0.1245
    111  CA       -27.1820   -1.0680  -19.2510 C.3    94  MET94       0.1570
    112  C        -26.9450   -1.7180  -17.9290 C.2    94  MET94       0.2261
    113  O        -26.1800   -1.1880  -17.1270 O.2    94  MET94      -0.2867
    114  CB       -25.9850   -1.2470  -20.1670 C.3    94  MET94       0.0387
    115  CG       -26.3440   -1.0690  -21.5940 C.3    94  MET94       0.0595
    116  SD       -24.8580   -1.1940  -22.5780 S.3    94  MET94      -0.1393
    117  CE       -24.4510    0.4600  -22.7840 C.3    94  MET94       0.0692
    118  N        -25.8000   -5.0680  -15.6260 N.3    96  PHE96      -0.1241
    119  CA       -24.9910   -6.2870  -15.6090 C.3    96  PHE96       0.1605
    120  C        -24.9230   -6.8630  -14.2320 C.2    96  PHE96       0.2264
    121  O        -25.1890   -6.1650  -13.2690 O.2    96  PHE96      -0.2867
    122  CB       -23.5400   -5.9440  -15.9900 C.3    96  PHE96       0.0534
    123  CG       -23.3130   -5.4410  -17.3920 C.ar   96  PHE96      -0.0203
    124  CD1      -23.4190   -4.0840  -17.6870 C.ar   96  PHE96      -0.0042
    125  CD2      -22.9650   -6.3170  -18.4120 C.ar   96  PHE96      -0.0042
    126  CE1      -23.1940   -3.6130  -18.9820 C.ar   96  PHE96      -0.0003
    127  CE2      -22.7220   -5.8470  -19.7040 C.ar   96  PHE96      -0.0003
    128  CZ       -22.8490   -4.4980  -19.9870 C.ar   96  PHE96      -0.0000
    129  N        -16.8260  -17.5750  -27.1930 N.3   145  LEU145     -0.1245
    130  CA       -16.7930  -16.4740  -28.1670 C.3   145  LEU145      0.1561
    131  C        -16.3350  -16.9690  -29.5430 C.2   145  LEU145      0.2260
    132  O        -16.9040  -16.5510  -30.5530 O.2   145  LEU145     -0.2867
    133  CB       -15.8820  -15.3290  -27.6990 C.3   145  LEU145      0.0270
    134  CG       -16.3390  -14.5550  -26.4390 C.3   145  LEU145      0.0019
    135  CD1      -15.3360  -13.4500  -26.0880 C.3   145  LEU145      0.0001
    136  CD2      -17.7480  -13.9750  -26.6080 C.3   145  LEU145      0.0001
    137  N        -17.0090  -14.5630  -32.6460 N.3   150  PHE150     -0.1241
    138  CA       -16.7330  -13.2150  -32.1250 C.3   150  PHE150      0.1605
    139  C        -15.2270  -13.0220  -31.9810 C.2   150  PHE150      0.2264
    140  O        -14.5230  -13.9510  -31.5850 O.2   150  PHE150     -0.2867
    141  CB       -17.4030  -13.0140  -30.7560 C.3   150  PHE150      0.0534
    142  CG       -18.7880  -12.4140  -30.7820 C.ar  150  PHE150     -0.0203
    143  CD1      -19.0050  -11.1090  -30.3540 C.ar  150  PHE150     -0.0042
    144  CD2      -19.8780  -13.1550  -31.2220 C.ar  150  PHE150     -0.0042
    145  CE1      -20.2930  -10.5530  -30.3710 C.ar  150  PHE150     -0.0003
    146  CE2      -21.1660  -12.5990  -31.2440 C.ar  150  PHE150     -0.0003
    147  CZ       -21.3640  -11.3020  -30.8150 C.ar  150  PHE150     -0.0000
    148  N        -12.6850  -10.5900  -29.9780 N.3   152  HIS152     -0.1241
    149  CA       -12.6440   -9.6210  -28.8840 C.3   152  HIS152      0.1621
    150  C        -11.8000   -8.3820  -29.2140 C.2   152  HIS152      0.2264
    151  O        -12.3080   -7.2640  -29.1280 O.2   152  HIS152     -0.2867
    152  CB       -12.1920  -10.3190  -27.5890 C.3   152  HIS152      0.0745
    153  CG       -12.4470   -9.4940  -26.3750 C.ar  152  HIS152      0.0817
    154  ND1      -11.7740   -8.3210  -26.1620 N.ar  152  HIS152     -0.2268
    155  CD2      -13.2940   -9.7150  -25.3430 C.ar  152  HIS152      0.1154
    156  CE1      -12.2400   -7.8420  -25.0220 C.ar  152  HIS152      0.1986
    157  NE2      -13.1560   -8.6550  -24.4910 N.ar  152  HIS152     -0.2212
    158  N        -15.3350  -13.0860  -18.6780 N.3   170  ILE170     -0.1231
    159  CA       -14.8640  -12.0680  -19.6080 C.3   170  ILE170      0.1692
    160  C        -15.9210  -10.9890  -19.6720 C.2   170  ILE170      0.2593
    161  O        -17.1050  -11.3020  -19.8400 O.2   170  ILE170     -0.2718
    162  CB       -14.6020  -12.6580  -21.0000 C.3   170  ILE170      0.0266
    163  CG1      -13.5490  -13.8240  -20.8950 C.3   170  ILE170      0.0019
    164  CG2      -14.1420  -11.5340  -21.9800 C.3   170  ILE170      0.0020
    165  CD1      -13.2570  -14.5590  -22.1630 C.3   170  ILE170      0.0001
    166  N        -15.4900   -9.7440  -19.5420 N.am  171  GLY171     -0.1942
    167  CA       -16.4150   -8.6240  -19.6190 C.3   171  GLY171      0.2014
    168  C        -15.8530   -7.3640  -19.0290 C.2   171  GLY171      0.2639
    169  O        -14.9900   -7.4180  -18.1620 O.2   171  GLY171     -0.2714
    170  N        -16.3230   -6.2120  -19.5160 N.am  172  ASP172     -0.1957
    171  CA       -15.8550   -4.9390  -18.9930 C.3   172  ASP172      0.1840
    172  C        -16.9280   -3.8810  -19.2180 C.2   172  ASP172      0.2622
    173  O        -17.8220   -4.1010  -20.0130 O.2   172  ASP172     -0.2715
    174  CB       -14.5520   -4.5110  -19.6810 C.3   172  ASP172      0.1450
    175  CG       -14.7260   -4.2280  -21.1610 C.2   172  ASP172      0.3671
    176  OD1      -14.6940   -5.1940  -21.9610 O.co2 172  ASP172     -0.2456
    177  OD2      -14.9300   -3.0460  -21.5180 O.co2 172  ASP172     -0.2456
    178  N        -16.7690   -2.7230  -18.5920 N.am  173  PHE173     -0.1960
    179  CA       -17.7600   -1.6530  -18.7490 C.3   173  PHE173      0.1771
    180  C        -17.2720   -0.4980  -19.6460 C.2   173  PHE173      0.2620
    181  O        -17.7650    0.6180  -19.5320 O.2   173  PHE173     -0.2715
    182  CB       -18.2270   -1.1890  -17.3560 C.3   173  PHE173      0.0574
    183  CG       -18.7480   -2.3290  -16.5010 C.ar  173  PHE173     -0.0200
    184  CD1      -18.2280   -2.5660  -15.2350 C.ar  173  PHE173     -0.0042
    185  CD2      -19.7240   -3.1970  -16.9840 C.ar  173  PHE173     -0.0042
    186  CE1      -18.7020   -3.6160  -14.4510 C.ar  173  PHE173     -0.0003
    187  CE2      -20.1710   -4.2760  -16.2100 C.ar  173  PHE173     -0.0003
    188  CZ       -19.6590   -4.4760  -14.9500 C.ar  173  PHE173     -0.0000
    189  N        -16.3470   -0.7910  -20.5560 N.am  174  GLY174     -0.1954
    190  CA       -15.8040    0.1840  -21.5060 C.3   174  GLY174      0.1869
    191  C        -15.0000    1.3430  -20.9480 C.2   174  GLY174      0.2309
    192  O        -14.9770    2.4320  -21.5370 O.2   174  GLY174     -0.2863
    193  N         -9.5780    1.9470  -21.2090 N.3   177  ARG177     -0.1245
    194  CA        -8.6530    2.9520  -21.7420 C.3   177  ARG177      0.1563
    195  C         -8.4880    4.1350  -20.7870 C.2   177  ARG177      0.2260
    196  O         -7.4550    4.7980  -20.7940 O.2   177  ARG177     -0.2867
    197  CB        -9.0830    3.3910  -23.1540 C.3   177  ARG177      0.0307
    198  CG        -8.7920    2.3120  -24.1800 C.3   177  ARG177      0.0489
    199  CD        -9.4100    2.6050  -25.5350 C.3   177  ARG177      0.2205
    200  NE        -8.8800    1.6860  -26.5540 N.pl3 177  ARG177     -0.0865
    201  CZ        -9.3420    0.4620  -26.7780 C.cat 177  ARG177      0.5346
    202  NH1      -10.3700   -0.0080  -26.0740 N.pl3 177  ARG177      0.1354
    203  NH2       -8.7840   -0.3030  -27.7080 N.pl3 177  ARG177      0.1354
@<TRIPOS>BOND
     1    33    34    2
     2    33    32    1
     3    32    31    1
     4    32    35    1
     5    35    36    1
     6    37    36    2
     7    36    38   am
     8     1     2    1
     9   137   138    1
    10   138   139    1
    11   138   141    1
    12   139   140    2
    13     2     3    1
    14     2     5    1
    15   146   144   ar
    16   146   147   ar
    17   144   142   ar
    18    26    25    2
    19     3     4    2
    20   147   145   ar
    21   142   141    1
    22   142   143   ar
    23   132   131    2
    24    25    24    1
    25   145   143   ar
    26    16    15    2
    27     5     6    1
    28   148   149    1
    29     6     8    1
    30     6     7    1
    31   131   130    1
    32    19    21   ar
    33    19    18   ar
    34    59    60    1
    35   150   151    2
    36   150   149    1
    37    17    18    1
    38    17    14    1
    39    15    23   am
    40    15    14    1
    41    21    22   ar
    42    24    23    1
    43    24    27    1
    44    18    20   ar
    45   149   152    1
    46     9    10    1
    47    14    13    1
    48    13    11   am
    49    22    20   ar
    50    28    27    1
    51    28    30    1
    52   130   133    1
    53   130   129    1
    54    60    61    1
    55    60    63    1
    56    27    29    1
    57   203   201    1
    58   133   134    1
    59    64    63    1
    60    64    65    1
    61    10    11    1
    62   152   153    1
    63    11    12    2
    64    61    62    2
    65    66    65   ar
    66    83    81    1
    67    65    67   ar
    68    48    49   ar
    69    48    46   ar
    70   201   200    2
    71   201   202    1
    72    49    47   ar
    73    68    69    1
    74   136   134    1
    75   200   199    1
    76   134   135    1
    77   153   154   ar
    78   153   155   ar
    79    81    82    1
    80    81    80    1
    81   154   156   ar
    82    76    77    1
    83    46    44   ar
    84   199   198    1
    85    47    45   ar
    86   155   157   ar
    87    69    70    1
    88    69    72    1
    89    77    80    1
    90    77    78    1
    91   156   157   ar
    92    70    71    2
    93    44    45   ar
    94    44    43    1
    95    73    72    1
    96    73    75    1
    97    73    74    1
    98   198   197    1
    99    78    79    2
   100    43    40    1
   101   197   194    1
   102    91    89    1
   103   117   116    1
   104   108   109   ar
   105   108   106   ar
   106   116   115    1
   107    40    39    1
   108    40    41    1
   109    89    88    1
   110   165   163    1
   111   109   107   ar
   112   106   104   ar
   113   164   162    1
   114   176   175   ar
   115    90    88    1
   116    42    41    2
   117   194   193    1
   118   194   195    1
   119   115   114    1
   120   192   191    2
   121   177   175   ar
   122   190   191    1
   123   190   189    1
   124    57    58    1
   125    57    56    1
   126    88    85    1
   127   107   105   ar
   128   104   105   ar
   129   104   103    1
   130   175   174    1
   131   162   163    1
   132   162   159    1
   133   196   195    2
   134   103   100    1
   135   189   180   am
   136   114   111    1
   137    56    55    1
   138   173   172    2
   139   128   127   ar
   140   128   126   ar
   141    85    84    1
   142    85    86    1
   143   161   160    2
   144   127   125   ar
   145   174   171    1
   146   160   159    1
   147   160   166   am
   148   180   181    2
   149   180   179    1
   150   167   166    1
   151   167   168    1
   152   159   158    1
   153   170   168   am
   154   170   171    1
   155   102   101    2
   156   111   110    1
   157   111   112    1
   158   100   101    1
   159   100    99    1
   160   172   171    1
   161   172   178   am
   162    95    94    2
   163   168   169    2
   164   126   124   ar
   165    55    54    1
   166    86    92   am
   167    86    87    2
   168   179   178    1
   169   179   182    1
   170    92    93    1
   171   125   123   ar
   172    53    52    2
   173    54    51    1
   174    94    93    1
   175   112   113    2
   176   124   123   ar
   177    93    96    1
   178    52    51    1
   179   123   122    1
   180   182   183    1
   181    96    98    1
   182    96    97    1
   183   185   183   ar
   184   185   187   ar
   185    51    50    1
   186   183   184   ar
   187   187   188   ar
   188   122   119    1
   189   118   119    1
   190   119   120    1
   191   184   186   ar
   192   188   186   ar
   193   120   121    2
