@<TRIPOS>MOLECULE
tmp/5kmjA00.pdb
 208 200 0 0 0
SMALL
GASTEIGER

@<TRIPOS>ATOM
      1  N        -14.9770    0.7800  -30.9800 N.3     1  LEU1       -0.1231
      2  CA       -13.5930    0.8780  -30.5050 C.3     1  LEU1        0.1693
      3  C        -13.0310   -0.5330  -30.1810 C.2     1  LEU1        0.2592
      4  O        -13.8070   -1.4640  -30.0150 O.2     1  LEU1       -0.2718
      5  CB       -13.5490    1.7920  -29.2690 C.3     1  LEU1        0.0284
      6  CG       -12.2800    2.6080  -29.0340 C.3     1  LEU1        0.0019
      7  CD1      -12.0570    3.6470  -30.1470 C.3     1  LEU1        0.0001
      8  CD2      -12.3540    3.3060  -27.6960 C.3     1  LEU1        0.0001
      9  N        -11.6950   -0.6930  -30.1340 N.am    2  GLN2       -0.1966
     10  CA       -11.0480   -1.9790  -29.8700 C.3     2  GLN2        0.1733
     11  C        -11.4580   -2.5730  -28.5000 C.2     2  GLN2        0.2617
     12  O        -11.1480   -1.9970  -27.4610 O.2     2  GLN2       -0.2715
     13  CB        -9.5170   -1.8600  -30.0040 C.3     2  GLN2        0.0408
     14  CG        -8.9270   -3.1360  -30.5970 C.3     2  GLN2        0.0908
     15  CD        -7.4330   -3.1490  -30.6600 C.2     2  GLN2        0.2608
     16  OE1       -6.7880   -2.2550  -31.2120 O.2     2  GLN2       -0.2717
     17  NE2       -6.8540   -4.1890  -30.1040 N.am    2  GLN2       -0.0878
     18  N        -12.1670   -3.6940  -28.5310 N.am    3  GLY3       -0.1940
     19  CA       -12.6700   -4.3720  -27.3400 C.3     3  GLY3        0.2014
     20  C        -14.1510   -4.1800  -27.1090 C.2     3  GLY3        0.2639
     21  O        -14.7100   -4.7580  -26.1740 O.2     3  GLY3       -0.2714
     22  N        -14.8070   -3.3580  -27.9500 N.am    4  HIS4       -0.1959
     23  CA       -16.2440   -3.1180  -27.8150 C.3     4  HIS4        0.1787
     24  C        -16.9510   -4.2030  -28.5830 C.2     4  HIS4        0.2620
     25  O        -16.5190   -4.5570  -29.6900 O.2     4  HIS4       -0.2715
     26  CB       -16.6340   -1.7190  -28.3390 C.3     4  HIS4        0.0785
     27  CG       -17.9470   -1.2230  -27.8110 C.ar    4  HIS4        0.0821
     28  ND1      -19.1150   -1.9440  -27.9800 N.ar    4  HIS4       -0.2267
     29  CD2      -18.2340   -0.0830  -27.1420 C.ar    4  HIS4        0.1154
     30  CE1      -20.0640   -1.2370  -27.3880 C.ar    4  HIS4        0.1986
     31  NE2      -19.5860   -0.1000  -26.8910 N.ar    4  HIS4       -0.2212
     32  N        -18.0200   -4.7430  -28.0080 N.am    5  ILE5       -0.1977
     33  CA       -18.7990   -5.8120  -28.6280 C.3     5  ILE5        0.1596
     34  C        -19.3450   -5.4020  -30.0450 C.2     5  ILE5        0.2287
     35  O        -19.3790   -6.2520  -30.9400 O.2     5  ILE5       -0.2864
     36  CB       -19.9000   -6.3420  -27.6670 C.3     5  ILE5        0.0276
     37  CG1      -20.5810   -7.6210  -28.2270 C.3     5  ILE5        0.0022
     38  CG2      -20.9110   -5.2350  -27.2970 C.3     5  ILE5        0.0022
     39  CD1      -21.4510   -8.4120  -27.2630 C.3     5  ILE5        0.0001
     40  N        -18.2100   -6.2770  -33.8330 N.3     8  ASN8       -0.1240
     41  CA       -18.6130   -7.5570  -34.3980 C.3     8  ASN8        0.1653
     42  C        -19.7740   -7.4060  -35.4090 C.2     8  ASN8        0.2266
     43  O        -20.7750   -6.7600  -35.0860 O.2     8  ASN8       -0.2867
     44  CB       -19.0360   -8.4970  -33.2780 C.3     8  ASN8        0.1155
     45  CG       -17.8700   -8.9760  -32.4760 C.2     8  ASN8        0.2627
     46  OD1      -17.1170   -9.8340  -32.9310 O.2     8  ASN8       -0.2716
     47  ND2      -17.6940   -8.4300  -31.2660 N.am    8  ASN8       -0.0877
     48  N        -17.1080    6.7830  -22.0330 N.3    32  PHE32      -0.1241
     49  CA       -18.3930    6.3010  -22.5560 C.3    32  PHE32       0.1605
     50  C        -19.5620    6.3930  -21.5610 C.2    32  PHE32       0.2264
     51  O        -20.7110    6.2400  -21.9630 O.2    32  PHE32      -0.2867
     52  CB       -18.2410    4.8630  -23.0890 C.3    32  PHE32       0.0534
     53  CG       -17.3380    4.7490  -24.2970 C.ar   32  PHE32      -0.0203
     54  CD1      -15.9500    4.7980  -24.1610 C.ar   32  PHE32      -0.0042
     55  CD2      -17.8730    4.5880  -25.5710 C.ar   32  PHE32      -0.0042
     56  CE1      -15.1160    4.7170  -25.2840 C.ar   32  PHE32      -0.0003
     57  CE2      -17.0390    4.5020  -26.6930 C.ar   32  PHE32      -0.0003
     58  CZ       -15.6680    4.5660  -26.5420 C.ar   32  PHE32      -0.0000
     59  N        -24.5970    0.6150  -15.9920 N.3    55  LYS55      -0.1245
     60  CA       -23.8040    1.4700  -16.8530 C.3    55  LYS55       0.1561
     61  C        -24.7630    2.5430  -17.4050 C.2    55  LYS55       0.2260
     62  O        -25.7810    2.2080  -18.0320 O.2    55  LYS55      -0.2867
     63  CB       -23.2520    0.5760  -17.9770 C.3    55  LYS55       0.0271
     64  CG       -22.3330    1.2130  -18.9500 C.3    55  LYS55       0.0035
     65  CD       -22.2240    0.1970  -20.0790 C.3    55  LYS55       0.0206
     66  CE       -20.9150    0.2180  -20.7740 C.3    55  LYS55       0.1093
     67  NZ       -20.9960   -0.5050  -22.0670 N.3    55  LYS55      -0.1314
     68  N        -25.5690   -2.6000  -29.3020 N.3    69  GLU69      -0.1245
     69  CA       -24.8290   -3.1430  -28.1530 C.3    69  GLU69       0.1567
     70  C        -25.6970   -4.0910  -27.3390 C.2    69  GLU69       0.2260
     71  O        -25.2880   -5.2270  -27.1120 O.2    69  GLU69      -0.2867
     72  CB       -24.2820   -2.0140  -27.2830 C.3    69  GLU69       0.0388
     73  CG       -23.3060   -2.4910  -26.2090 C.3    69  GLU69       0.1160
     74  CD       -22.7650   -1.3890  -25.3220 C.2    69  GLU69       0.3649
     75  OE1      -22.9840   -0.2020  -25.6520 O.co2  69  GLU69      -0.2457
     76  OE2      -22.1130   -1.7080  -24.3010 O.co2  69  GLU69      -0.2457
     77  N        -25.1780   -8.1100  -26.6740 N.3    73  LEU73      -0.1245
     78  CA       -25.0300   -8.5880  -25.2860 C.3    73  LEU73       0.1561
     79  C        -26.1190   -9.5900  -24.9040 C.2    73  LEU73       0.2260
     80  O        -25.8600  -10.5100  -24.1250 O.2    73  LEU73      -0.2867
     81  CB       -25.0210   -7.4410  -24.2650 C.3    73  LEU73       0.0270
     82  CG       -23.8130   -6.5210  -24.2620 C.3    73  LEU73       0.0019
     83  CD1      -24.0860   -5.2880  -23.3970 C.3    73  LEU73       0.0001
     84  CD2      -22.5320   -7.2750  -23.8550 C.3    73  LEU73       0.0001
     85  N        -25.4110  -13.3390  -25.7650 N.3    76  LEU76      -0.1245
     86  CA       -24.4630  -14.0200  -24.8790 C.3    76  LEU76       0.1561
     87  C        -25.0630  -14.5570  -23.6030 C.2    76  LEU76       0.2260
     88  O        -25.5670  -13.7910  -22.7850 O.2    76  LEU76      -0.2867
     89  CB       -23.2780  -13.0920  -24.5460 C.3    76  LEU76       0.0270
     90  CG       -22.5690  -12.4070  -25.7110 C.3    76  LEU76       0.0019
     91  CD1      -21.5340  -11.4450  -25.1960 C.3    76  LEU76       0.0001
     92  CD2      -21.9270  -13.4110  -26.6580 C.3    76  LEU76       0.0001
     93  N        -19.1920  -15.4620  -19.0160 N.3    81  ILE81      -0.1231
     94  CA       -19.3570  -14.1730  -19.6950 C.3    81  ILE81       0.1692
     95  C        -20.1960  -13.3630  -18.6980 C.2    81  ILE81       0.2591
     96  O        -21.2210  -13.8640  -18.2240 O.2    81  ILE81      -0.2718
     97  CB       -20.0270  -14.2310  -21.0960 C.3    81  ILE81       0.0266
     98  CG1      -19.2270  -15.0690  -22.1280 C.3    81  ILE81       0.0019
     99  CG2      -20.3200  -12.8110  -21.6220 C.3    81  ILE81       0.0020
    100  CD1      -17.8120  -14.5060  -22.6270 C.3    81  ILE81       0.0001
    101  N        -19.7590  -12.1360  -18.3510 N.am   82  VAL82      -0.1980
    102  CA       -20.5190  -11.2920  -17.4020 C.3    82  VAL82       0.1595
    103  C        -21.9700  -11.1750  -17.9030 C.2    82  VAL82       0.2287
    104  O        -22.1870  -10.8000  -19.0410 O.2    82  VAL82      -0.2864
    105  CB       -19.8580   -9.9090  -17.1780 C.3    82  VAL82       0.0276
    106  CG1      -20.7540   -9.0020  -16.3280 C.3    82  VAL82       0.0022
    107  CG2      -18.4920  -10.0810  -16.5120 C.3    82  VAL82       0.0022
    108  N        -26.1700   -5.1150  -15.5800 N.3    98  PHE98      -0.1241
    109  CA       -25.3010   -6.2910  -15.5650 C.3    98  PHE98       0.1605
    110  C        -25.2000   -6.8940  -14.1900 C.2    98  PHE98       0.2264
    111  O        -25.5010   -6.2290  -13.2060 O.2    98  PHE98      -0.2867
    112  CB       -23.8720   -5.8550  -15.9470 C.3    98  PHE98       0.0534
    113  CG       -23.7270   -5.2940  -17.3310 C.ar   98  PHE98      -0.0203
    114  CD1      -23.8670   -3.9290  -17.5630 C.ar   98  PHE98      -0.0042
    115  CD2      -23.4110   -6.1210  -18.4020 C.ar   98  PHE98      -0.0042
    116  CE1      -23.7210   -3.4040  -18.8460 C.ar   98  PHE98      -0.0003
    117  CE2      -23.2670   -5.5970  -19.6870 C.ar   98  PHE98      -0.0003
    118  CZ       -23.4320   -4.2420  -19.9030 C.ar   98  PHE98      -0.0000
    119  N        -17.2560  -17.4940  -26.9690 N.3   146  LEU146     -0.1245
    120  CA       -17.2430  -16.4030  -27.9500 C.3   146  LEU146      0.1561
    121  C        -16.7980  -16.8830  -29.3360 C.2   146  LEU146      0.2260
    122  O        -17.3780  -16.4490  -30.3310 O.2   146  LEU146     -0.2867
    123  CB       -16.3320  -15.2690  -27.4860 C.3   146  LEU146      0.0270
    124  CG       -16.8210  -14.4580  -26.2860 C.3   146  LEU146      0.0019
    125  CD1      -15.8030  -13.3620  -25.9370 C.3   146  LEU146      0.0001
    126  CD2      -18.1690  -13.8150  -26.5660 C.3   146  LEU146      0.0001
    127  N        -17.5490  -14.5360  -32.3790 N.3   151  PHE151     -0.1227
    128  CA       -17.2640  -13.1880  -31.8870 C.3   151  PHE151      0.1736
    129  C        -15.7540  -13.0280  -31.7480 C.2   151  PHE151      0.2595
    130  O        -15.0470  -13.9760  -31.3820 O.2   151  PHE151     -0.2718
    131  CB       -17.9040  -12.9420  -30.5090 C.3   151  PHE151      0.0547
    132  CG       -19.3350  -12.4570  -30.5380 C.ar  151  PHE151     -0.0202
    133  CD1      -19.6300  -11.1030  -30.4340 C.ar  151  PHE151     -0.0042
    134  CD2      -20.3920  -13.3580  -30.6210 C.ar  151  PHE151     -0.0042
    135  CE1      -20.9610  -10.6510  -30.4530 C.ar  151  PHE151     -0.0003
    136  CE2      -21.7240  -12.9100  -30.6250 C.ar  151  PHE151     -0.0003
    137  CZ       -21.9980  -11.5580  -30.5420 C.ar  151  PHE151     -0.0000
    138  N        -15.2650  -11.8270  -32.0160 N.am  152  VAL152     -0.1966
    139  CA       -13.8640  -11.4700  -31.8570 C.3   152  VAL152      0.1727
    140  C        -13.8760  -10.3780  -30.7590 C.2   152  VAL152      0.2616
    141  O        -14.6180   -9.3960  -30.8780 O.2   152  VAL152     -0.2715
    142  CB       -13.1850  -10.9990  -33.1730 C.3   152  VAL152      0.0290
    143  CG1      -11.7110  -10.6700  -32.9350 C.3   152  VAL152      0.0023
    144  CG2      -13.3220  -12.0600  -34.2830 C.3   152  VAL152      0.0023
    145  N        -13.0690  -10.5550  -29.7070 N.am  153  HIS153     -0.1973
    146  CA       -13.0180   -9.6040  -28.5940 C.3   153  HIS153      0.1656
    147  C        -12.1700   -8.3690  -28.8930 C.2   153  HIS153      0.2291
    148  O        -12.6860   -7.2590  -28.7530 O.2   153  HIS153     -0.2864
    149  CB       -12.5870  -10.3020  -27.2820 C.3   153  HIS153      0.0771
    150  CG       -12.7910   -9.4700  -26.0590 C.ar  153  HIS153      0.0820
    151  ND1      -12.0630   -8.3180  -25.8470 N.ar  153  HIS153     -0.2267
    152  CD2      -13.6490   -9.6500  -25.0270 C.ar  153  HIS153      0.1154
    153  CE1      -12.5090   -7.8240  -24.7020 C.ar  153  HIS153      0.1986
    154  NE2      -13.4580   -8.6050  -24.1670 N.ar  153  HIS153     -0.2212
    155  N         -9.7610   -6.9460  -27.1830 N.3   155  ASP155     -0.1239
    156  CA        -9.1190   -6.3130  -26.0230 C.3   155  ASP155      0.1674
    157  C         -9.0940   -7.2540  -24.8470 C.2   155  ASP155      0.2266
    158  O         -9.3350   -6.8360  -23.7060 O.2   155  ASP155     -0.2867
    159  CB        -9.7030   -4.9260  -25.6700 C.3   155  ASP155      0.1410
    160  CG        -8.8410   -4.0680  -24.7400 C.2   155  ASP155      0.3668
    161  OD1       -7.6540   -4.4190  -24.5180 O.co2 155  ASP155     -0.2456
    162  OD2       -9.3410   -3.0380  -24.2530 O.co2 155  ASP155     -0.2456
    163  N        -15.5670  -13.0190  -18.4750 N.3   171  ILE171     -0.1231
    164  CA       -15.0930  -11.9920  -19.3900 C.3   171  ILE171      0.1692
    165  C        -16.1800  -10.9370  -19.4220 C.2   171  ILE171      0.2593
    166  O        -17.3660  -11.2590  -19.5130 O.2   171  ILE171     -0.2718
    167  CB       -14.8500  -12.5870  -20.7950 C.3   171  ILE171      0.0266
    168  CG1      -13.7910  -13.7290  -20.6970 C.3   171  ILE171      0.0019
    169  CG2      -14.4200  -11.4580  -21.8040 C.3   171  ILE171      0.0020
    170  CD1      -13.5140  -14.4660  -21.9440 C.3   171  ILE171      0.0001
    171  N        -15.7610   -9.6930  -19.3560 N.am  172  GLY172     -0.1942
    172  CA       -16.6690   -8.5660  -19.4170 C.3   172  GLY172      0.2014
    173  C        -16.0560   -7.3570  -18.7840 C.2   172  GLY172      0.2639
    174  O        -15.1770   -7.4630  -17.9170 O.2   172  GLY172     -0.2714
    175  N        -16.4960   -6.2000  -19.2530 N.am  173  ASP173     -0.1957
    176  CA       -16.0310   -4.9320  -18.7310 C.3   173  ASP173      0.1840
    177  C        -17.1080   -3.8840  -19.0070 C.2   173  ASP173      0.2622
    178  O        -17.9700   -4.0830  -19.8680 O.2   173  ASP173     -0.2715
    179  CB       -14.6670   -4.5350  -19.3330 C.3   173  ASP173      0.1450
    180  CG       -14.7640   -4.0730  -20.7740 C.2   173  ASP173      0.3671
    181  OD1      -14.7320   -4.9390  -21.6760 O.co2 173  ASP173     -0.2456
    182  OD2      -14.8600   -2.8320  -20.9990 O.co2 173  ASP173     -0.2456
    183  N        -17.0350   -2.7830  -18.2990 N.am  174  PHE174     -0.1960
    184  CA       -18.0280   -1.7190  -18.4410 C.3   174  PHE174      0.1771
    185  C        -17.4800   -0.4910  -19.2000 C.2   174  PHE174      0.2620
    186  O        -17.9530    0.6100  -18.9880 O.2   174  PHE174     -0.2715
    187  CB       -18.6210   -1.3740  -17.0440 C.3   174  PHE174      0.0574
    188  CG       -19.1290   -2.5960  -16.2970 C.ar  174  PHE174     -0.0200
    189  CD1      -18.7190   -2.8580  -14.9990 C.ar  174  PHE174     -0.0042
    190  CD2      -20.0160   -3.4860  -16.9010 C.ar  174  PHE174     -0.0042
    191  CE1      -19.1770   -3.9910  -14.3180 C.ar  174  PHE174     -0.0003
    192  CE2      -20.4650   -4.6240  -16.2250 C.ar  174  PHE174     -0.0003
    193  CZ       -20.0560   -4.8600  -14.9350 C.ar  174  PHE174     -0.0000
    194  N        -16.5130   -0.7150  -20.0850 N.am  175  GLY175     -0.1954
    195  CA       -15.8900    0.2860  -20.9550 C.3   175  GLY175      0.1869
    196  C        -15.0450    1.3730  -20.3330 C.2   175  GLY175      0.2309
    197  O        -14.9030    2.4510  -20.9200 O.2   175  GLY175     -0.2863
    198  N         -9.6310    1.9970  -20.6420 N.3   178  ARG178     -0.1245
    199  CA        -8.6980    3.0370  -21.1060 C.3   178  ARG178      0.1563
    200  C         -8.5420    4.1680  -20.0840 C.2   178  ARG178      0.2260
    201  O         -7.5080    4.8200  -20.0420 O.2   178  ARG178     -0.2867
    202  CB        -9.1240    3.5970  -22.4610 C.3   178  ARG178      0.0307
    203  CG        -8.9030    2.6170  -23.6050 C.3   178  ARG178      0.0489
    204  CD        -9.7470    2.9710  -24.8160 C.3   178  ARG178      0.2205
    205  NE        -9.4110    2.1010  -25.9380 N.pl3 178  ARG178     -0.0865
    206  CZ        -9.8750    0.8660  -26.1060 C.cat 178  ARG178      0.5346
    207  NH1      -10.7260    0.3430  -25.2300 N.pl3 178  ARG178      0.1354
    208  NH2       -9.4800    0.1380  -27.1400 N.pl3 178  ARG178      0.1354
@<TRIPOS>BOND
     1    42    43    2
     2    42    41    1
     3    41    40    1
     4    41    44    1
     5   144   142    1
     6    44    45    1
     7   142   143    1
     8   142   139    1
     9    46    45    2
    10    45    47   am
    11   127   128    1
    12   138   139    1
    13   138   129   am
    14   128   129    1
    15   128   131    1
    16   139   140    1
    17   129   130    2
    18    16    15    2
    19     1     2    1
    20    35    34    2
    21   141   140    2
    22   140   145   am
    23    15    14    1
    24    15    17   am
    25   136   134   ar
    26   136   137   ar
    27   134   132   ar
    28    14    13    1
    29   137   135   ar
    30   132   131    1
    31   132   133   ar
    32     2     3    1
    33     2     5    1
    34   135   133   ar
    35   122   121    2
    36     3     9   am
    37     3     4    2
    38     7     6    1
    39     9    10    1
    40    34    33    1
    41    13    10    1
    42    10    11    1
    43   145   146    1
    44    25    24    2
    45   121   120    1
    46    68    69    1
    47     5     6    1
    48     6     8    1
    49   147   148    2
    50   147   146    1
    51    33    32    1
    52    33    36    1
    53   146   149    1
    54    24    32   am
    55    24    23    1
    56    18    11   am
    57    18    19    1
    58    11    12    2
    59    26    23    1
    60    26    27    1
    61    37    36    1
    62    37    39    1
    63    69    70    1
    64    69    72    1
    65    28    27   ar
    66    28    30   ar
    67   120   123    1
    68   120   119    1
    69    22    23    1
    70    22    20   am
    71    27    29   ar
    72    36    38    1
    73   123   124    1
    74    30    31   ar
    75    19    20    1
    76    70    71    2
    77    72    73    1
    78   149   150    1
    79   155   156    1
    80    29    31   ar
    81   208   206    1
    82    20    21    2
    83    57    58   ar
    84    57    55   ar
    85    77    78    1
    86    92    90    1
    87   126   124    1
    88    58    56   ar
    89   124   125    1
    90    73    74    1
    91   206   205    2
    92   206   207    1
    93   150   151   ar
    94   150   152   ar
    95   156   159    1
    96   156   157    1
    97   205   204    1
    98   151   153   ar
    99    85    86    1
   100    90    91    1
   101    90    89    1
   102   159   160    1
   103    75    74   ar
   104    55    53   ar
   105    74    76   ar
   106    78    79    1
   107    78    81    1
   108    56    54   ar
   109   152   154   ar
   110    79    80    2
   111    86    89    1
   112    86    87    1
   113   157   158    2
   114   204   203    1
   115   160   161   ar
   116   160   162   ar
   117   153   154   ar
   118    53    54   ar
   119    53    52    1
   120    81    82    1
   121    82    84    1
   122    82    83    1
   123   203   202    1
   124    87    88    2
   125    52    49    1
   126   100    98    1
   127    49    48    1
   128    49    50    1
   129   202   199    1
   130    98    97    1
   131    67    66    1
   132    51    50    2
   133   170   168    1
   134   169   167    1
   135   181   180   ar
   136    99    97    1
   137   199   198    1
   138   199   200    1
   139    97    94    1
   140   182   180   ar
   141   195   196    1
   142   195   194    1
   143   197   196    2
   144   167   168    1
   145   167   164    1
   146    66    65    1
   147   180   179    1
   148   194   185   am
   149   200   201    2
   150    65    64    1
   151   118   117   ar
   152   118   116   ar
   153   178   177    2
   154    94    93    1
   155    94    95    1
   156   117   115   ar
   157   166   165    2
   158   165   164    1
   159   165   171   am
   160   172   171    1
   161   172   173    1
   162   164   163    1
   163   179   176    1
   164   175   173   am
   165   175   176    1
   166   185   186    2
   167   185   184    1
   168   104   103    2
   169   177   176    1
   170   177   183   am
   171    64    63    1
   172   116   114   ar
   173   173   174    2
   174    95   101   am
   175    95    96    2
   176   184   183    1
   177   184   187    1
   178   115   113   ar
   179   101   102    1
   180    62    61    2
   181    63    60    1
   182   103   102    1
   183   114   113   ar
   184    61    60    1
   185   102   105    1
   186   113   112    1
   187   105   107    1
   188   105   106    1
   189   187   188    1
   190   190   188   ar
   191   190   192   ar
   192    60    59    1
   193   188   189   ar
   194   192   193   ar
   195   112   109    1
   196   108   109    1
   197   109   110    1
   198   189   191   ar
   199   193   191   ar
   200   110   111    2
