@<TRIPOS>MOLECULE
tmp/5kmkA00.pdb
 180 170 0 0 0
SMALL
GASTEIGER

@<TRIPOS>ATOM
      1  N        -13.7080   -1.9070  -30.6850 N.3     1  SER1       -0.1202
      2  CA       -14.8170   -1.6050  -29.7830 C.3     1  SER1        0.2020
      3  C        -15.6180   -2.8720  -29.3560 C.2     1  SER1        0.2619
      4  O        -16.6160   -2.7530  -28.6350 O.2     1  SER1       -0.2717
      5  CB       -15.7130   -0.5210  -30.3800 C.3     1  SER1        0.2103
      6  OG       -14.9830    0.6010  -30.8550 O.3     1  SER1       -0.2182
      7  N        -15.1560   -4.0480  -29.8210 N.am    2  GLY2       -0.1942
      8  CA       -15.6480   -5.3960  -29.5330 C.3     2  GLY2        0.2014
      9  C        -17.0320   -5.7830  -29.9910 C.2     2  GLY2        0.2638
     10  O        -17.1920   -6.5720  -30.9310 O.2     2  GLY2       -0.2714
     11  N        -18.0430   -5.2760  -29.2690 N.am    3  LEU3       -0.1977
     12  CA       -19.4460   -5.5140  -29.5720 C.3     3  LEU3        0.1596
     13  C        -19.7860   -4.8060  -30.8860 C.2     3  LEU3        0.2287
     14  O        -20.5500   -5.3480  -31.6780 O.2     3  LEU3       -0.2864
     15  CB       -20.3560   -5.0280  -28.4280 C.3     3  LEU3        0.0297
     16  CG       -20.3850   -5.8860  -27.1520 C.3     3  LEU3        0.0022
     17  CD1      -20.7790   -5.0630  -25.9530 C.3     3  LEU3        0.0001
     18  CD2      -21.3140   -7.0800  -27.2970 C.3     3  LEU3        0.0001
     19  N        -17.5810    7.1540  -22.1890 N.3    32  PHE32      -0.1241
     20  CA       -18.7580    6.4950  -22.7650 C.3    32  PHE32       0.1605
     21  C        -19.9260    6.3930  -21.7500 C.2    32  PHE32       0.2264
     22  O        -21.0560    6.0760  -22.1440 O.2    32  PHE32      -0.2867
     23  CB       -18.3610    5.0950  -23.2840 C.3    32  PHE32       0.0534
     24  CG       -17.6590    5.0800  -24.6270 C.ar   32  PHE32      -0.0203
     25  CD1      -16.3190    5.4410  -24.7370 C.ar   32  PHE32      -0.0042
     26  CD2      -18.3350    4.6940  -25.7790 C.ar   32  PHE32      -0.0042
     27  CE1      -15.6740    5.4330  -25.9770 C.ar   32  PHE32      -0.0003
     28  CE2      -17.6890    4.6840  -27.0200 C.ar   32  PHE32      -0.0003
     29  CZ       -16.3620    5.0510  -27.1100 C.ar   32  PHE32      -0.0000
     30  N        -24.9450    0.1990  -16.1250 N.3    55  LYS55      -0.1245
     31  CA       -24.1530    1.0230  -17.0270 C.3    55  LYS55       0.1561
     32  C        -25.0710    2.1320  -17.5380 C.2    55  LYS55       0.2260
     33  O        -26.0870    1.8610  -18.1900 O.2    55  LYS55      -0.2867
     34  CB       -23.5780    0.1650  -18.1680 C.3    55  LYS55       0.0271
     35  CG       -22.6800    0.9210  -19.1370 C.3    55  LYS55       0.0035
     36  CD       -22.0470   -0.0360  -20.1330 C.3    55  LYS55       0.0206
     37  CE       -21.6280    0.6450  -21.4130 C.3    55  LYS55       0.1093
     38  NZ       -20.4820    1.5630  -21.2180 N.3    55  LYS55      -0.1314
     39  N        -26.2570   -3.1020  -29.3230 N.3    68  GLU68      -0.1245
     40  CA       -25.3320   -3.6090  -28.2860 C.3    68  GLU68       0.1567
     41  C        -26.1500   -4.4850  -27.3480 C.2    68  GLU68       0.2260
     42  O        -25.7710   -5.6410  -27.1110 O.2    68  GLU68      -0.2867
     43  CB       -24.6730   -2.4660  -27.5060 C.3    68  GLU68       0.0388
     44  CG       -23.4260   -1.9270  -28.1800 C.3    68  GLU68       0.1160
     45  CD       -23.0160   -0.5220  -27.7850 C.2    68  GLU68       0.3649
     46  OE1      -22.3230    0.1410  -28.5900 O.co2  68  GLU68      -0.2457
     47  OE2      -23.3890   -0.0790  -26.6750 O.co2  68  GLU68      -0.2457
     48  N        -25.7520   -8.3660  -26.6700 N.3    72  LEU72      -0.1245
     49  CA       -25.6090   -8.8010  -25.2770 C.3    72  LEU72       0.1561
     50  C        -26.6710   -9.8080  -24.8510 C.2    72  LEU72       0.2260
     51  O        -26.3580  -10.7160  -24.0760 O.2    72  LEU72      -0.2867
     52  CB       -25.5440   -7.6010  -24.3100 C.3    72  LEU72       0.0270
     53  CG       -24.3110   -6.7100  -24.4610 C.3    72  LEU72       0.0019
     54  CD1      -24.5590   -5.3320  -23.9030 C.3    72  LEU72       0.0001
     55  CD2      -23.0790   -7.3570  -23.8620 C.3    72  LEU72       0.0001
     56  N        -25.5450  -13.1000  -26.3890 N.3    75  LEU75      -0.1245
     57  CA       -24.3450  -13.5540  -25.6970 C.3    75  LEU75       0.1561
     58  C        -24.6420  -13.9690  -24.2690 C.2    75  LEU75       0.2260
     59  O        -24.4860  -13.1780  -23.3370 O.2    75  LEU75      -0.2867
     60  CB       -23.2130  -12.5130  -25.7740 C.3    75  LEU75       0.0270
     61  CG       -22.7820  -12.0650  -27.1570 C.3    75  LEU75       0.0019
     62  CD1      -21.8990  -10.8560  -27.0700 C.3    75  LEU75       0.0001
     63  CD2      -22.0830  -13.1710  -27.9040 C.3    75  LEU75       0.0001
     64  N        -19.6060  -15.7700  -19.4410 N.3    80  ILE80      -0.1231
     65  CA       -19.8340  -14.4700  -20.0780 C.3    80  ILE80       0.1692
     66  C        -20.6780  -13.7240  -19.0160 C.2    80  ILE80       0.2591
     67  O        -21.6760  -14.2870  -18.5490 O.2    80  ILE80      -0.2718
     68  CB       -20.5700  -14.5510  -21.4470 C.3    80  ILE80       0.0266
     69  CG1      -19.7140  -15.2460  -22.5560 C.3    80  ILE80       0.0019
     70  CG2      -21.0880  -13.1620  -21.9050 C.3    80  ILE80       0.0020
     71  CD1      -18.4030  -14.4830  -23.0980 C.3    80  ILE80       0.0001
     72  N        -20.2680  -12.4860  -18.6160 N.am   81  VAL81      -0.1980
     73  CA       -20.9960  -11.6740  -17.6110 C.3    81  VAL81       0.1595
     74  C        -22.4960  -11.5590  -17.9770 C.2    81  VAL81       0.2287
     75  O        -22.8420  -11.0620  -19.0540 O.2    81  VAL81      -0.2864
     76  CB       -20.3330  -10.3030  -17.3330 C.3    81  VAL81       0.0276
     77  CG1      -21.2010   -9.4320  -16.4160 C.3    81  VAL81       0.0022
     78  CG2      -18.9530  -10.5080  -16.7110 C.3    81  VAL81       0.0022
     79  N        -28.0240   -0.1940  -18.9240 N.3    95  MET95      -0.1245
     80  CA       -27.8600   -1.6090  -19.2560 C.3    95  MET95       0.1570
     81  C        -27.6510   -2.2220  -17.9090 C.2    95  MET95       0.2261
     82  O        -26.9340   -1.6670  -17.0860 O.2    95  MET95      -0.2867
     83  CB       -26.6680   -1.8800  -20.1820 C.3    95  MET95       0.0387
     84  CG       -27.0470   -1.9110  -21.6470 C.3    95  MET95       0.0595
     85  SD       -25.6670   -1.5230  -22.7530 S.3    95  MET95      -0.1393
     86  CE       -25.3770    0.1620  -22.3370 C.3    95  MET95       0.0692
     87  N        -26.4490   -5.4910  -15.6700 N.3    97  PHE97      -0.1241
     88  CA       -25.6400   -6.7060  -15.6470 C.3    97  PHE97       0.1605
     89  C        -25.6070   -7.2170  -14.2490 C.2    97  PHE97       0.2264
     90  O        -26.0310   -6.5050  -13.3230 O.2    97  PHE97      -0.2867
     91  CB       -24.1920   -6.3930  -16.0790 C.3    97  PHE97       0.0534
     92  CG       -24.0070   -5.7780  -17.4480 C.ar   97  PHE97      -0.0203
     93  CD1      -24.0950   -4.4020  -17.6280 C.ar   97  PHE97      -0.0042
     94  CD2      -23.6570   -6.5660  -18.5380 C.ar   97  PHE97      -0.0042
     95  CE1      -23.8900   -3.8300  -18.8780 C.ar   97  PHE97      -0.0003
     96  CE2      -23.4420   -5.9890  -19.7900 C.ar   97  PHE97      -0.0003
     97  CZ       -23.5670   -4.6240  -19.9520 C.ar   97  PHE97      -0.0000
     98  N        -17.3870  -17.6400  -27.5720 N.3   147  LEU147     -0.1245
     99  CA       -17.2520  -16.4960  -28.4690 C.3   147  LEU147      0.1561
    100  C        -16.7460  -16.8980  -29.8500 C.2   147  LEU147      0.2260
    101  O        -17.2260  -16.3550  -30.8410 O.2   147  LEU147     -0.2867
    102  CB       -16.4260  -15.3460  -27.8710 C.3   147  LEU147      0.0270
    103  CG       -17.0820  -14.5460  -26.7210 C.3   147  LEU147      0.0019
    104  CD1      -16.1260  -13.5000  -26.1830 C.3   147  LEU147      0.0001
    105  CD2      -18.3620  -13.8800  -27.1560 C.3   147  LEU147      0.0001
    106  N        -17.3280  -14.4640  -32.7520 N.3   152  PHE152     -0.1241
    107  CA       -17.1840  -13.1180  -32.1780 C.3   152  PHE152      0.1605
    108  C        -15.6990  -12.8090  -31.9060 C.2   152  PHE152      0.2264
    109  O        -15.0140  -13.5890  -31.2410 O.2   152  PHE152     -0.2867
    110  CB       -17.9870  -13.0630  -30.8610 C.3   152  PHE152      0.0534
    111  CG       -18.1700  -11.7200  -30.1890 C.ar  152  PHE152     -0.0203
    112  CD1      -17.1710  -11.1840  -29.3750 C.ar  152  PHE152     -0.0042
    113  CD2      -19.3700  -11.0270  -30.3020 C.ar  152  PHE152     -0.0042
    114  CE1      -17.3540   -9.9550  -28.7230 C.ar  152  PHE152     -0.0003
    115  CE2      -19.5490   -9.7940  -29.6570 C.ar  152  PHE152     -0.0003
    116  CZ       -18.5410   -9.2690  -28.8700 C.ar  152  PHE152     -0.0000
    117  N        -13.3160  -10.4400  -29.9670 N.3   154  HIS154     -0.1241
    118  CA       -13.2460   -9.5710  -28.7820 C.3   154  HIS154      0.1621
    119  C        -12.4930   -8.2900  -29.0040 C.2   154  HIS154      0.2264
    120  O        -13.0060   -7.2250  -28.6540 O.2   154  HIS154     -0.2867
    121  CB       -12.6250  -10.3040  -27.5990 C.3   154  HIS154      0.0745
    122  CG       -12.9800   -9.6690  -26.2900 C.ar  154  HIS154      0.0817
    123  ND1      -12.3740   -8.5030  -25.8670 N.ar  154  HIS154     -0.2268
    124  CD2      -13.8920  -10.0510  -25.3680 C.ar  154  HIS154      0.1154
    125  CE1      -12.9240   -8.2290  -24.7000 C.ar  154  HIS154      0.1986
    126  NE2      -13.8420   -9.1320  -24.3660 N.ar  154  HIS154     -0.2212
    127  N        -10.1700   -7.0530  -27.3240 N.3   156  ASP156     -0.1239
    128  CA        -9.5600   -6.5120  -26.1100 C.3   156  ASP156      0.1674
    129  C         -9.5870   -7.5040  -24.9410 C.2   156  ASP156      0.2266
    130  O         -9.9870   -7.1700  -23.8280 O.2   156  ASP156     -0.2867
    131  CB       -10.1690   -5.1300  -25.7380 C.3   156  ASP156      0.1410
    132  CG        -9.3460   -4.3060  -24.7480 C.2   156  ASP156      0.3668
    133  OD1       -8.1340   -4.6130  -24.5620 O.co2 156  ASP156     -0.2456
    134  OD2       -9.9040   -3.3640  -24.1610 O.co2 156  ASP156     -0.2456
    135  N        -15.9610  -13.4980  -18.7830 N.3   172  ILE172     -0.1231
    136  CA       -15.4510  -12.4520  -19.6660 C.3   172  ILE172      0.1692
    137  C        -16.5170  -11.3530  -19.6210 C.2   172  ILE172      0.2593
    138  O        -17.7190  -11.6720  -19.6170 O.2   172  ILE172     -0.2718
    139  CB       -15.2160  -12.9980  -21.1110 C.3   172  ILE172      0.0266
    140  CG1      -13.8710  -13.7540  -21.2110 C.3   172  ILE172      0.0019
    141  CG2      -15.2730  -11.9010  -22.1800 C.3   172  ILE172      0.0020
    142  CD1      -13.9000  -14.9790  -22.1310 C.3   172  ILE172      0.0001
    143  N        -16.0750  -10.0910  -19.5780 N.am  173  GLY173     -0.1942
    144  CA       -16.9850   -8.9590  -19.5450 C.3   173  GLY173      0.2014
    145  C        -16.4220   -7.6960  -18.9270 C.2   173  GLY173      0.2639
    146  O        -15.5480   -7.7220  -18.0540 O.2   173  GLY173     -0.2714
    147  N        -16.9500   -6.5710  -19.3810 N.am  174  ASP174     -0.1957
    148  CA       -16.5530   -5.2530  -18.9080 C.3   174  ASP174      0.1840
    149  C        -17.7230   -4.2730  -19.0790 C.2   174  ASP174      0.2622
    150  O        -18.7700   -4.6470  -19.6150 O.2   174  ASP174     -0.2715
    151  CB       -15.2880   -4.7750  -19.6360 C.3   174  ASP174      0.1450
    152  CG       -15.4490   -4.5650  -21.1280 C.2   174  ASP174      0.3671
    153  OD1      -15.3810   -5.5700  -21.8840 O.co2 174  ASP174     -0.2456
    154  OD2      -15.6220   -3.3950  -21.5470 O.co2 174  ASP174     -0.2456
    155  N        -17.5460   -3.0350  -18.6090 N.am  175  PHE175     -0.1960
    156  CA       -18.5840   -2.0160  -18.7150 C.3   175  PHE175      0.1771
    157  C        -18.1250   -0.8480  -19.5940 C.2   175  PHE175      0.2620
    158  O        -18.7020    0.2210  -19.5450 O.2   175  PHE175     -0.2715
    159  CB       -19.1020   -1.5900  -17.3130 C.3   175  PHE175      0.0574
    160  CG       -19.5290   -2.7450  -16.4220 C.ar  175  PHE175     -0.0200
    161  CD1      -18.8360   -3.0360  -15.2520 C.ar  175  PHE175     -0.0042
    162  CD2      -20.5880   -3.5710  -16.7810 C.ar  175  PHE175     -0.0042
    163  CE1      -19.2080   -4.1210  -14.4460 C.ar  175  PHE175     -0.0003
    164  CE2      -20.9520   -4.6640  -15.9800 C.ar  175  PHE175     -0.0003
    165  CZ       -20.2650   -4.9280  -14.8180 C.ar  175  PHE175     -0.0000
    166  N        -17.1250   -1.0890  -20.4320 N.am  176  GLY176     -0.1954
    167  CA       -16.5770   -0.1200  -21.3700 C.3   176  GLY176      0.1869
    168  C        -15.6900    0.9380  -20.7610 C.2   176  GLY176      0.2309
    169  O        -15.4830    1.9880  -21.3680 O.2   176  GLY176     -0.2863
    170  N        -10.2790    1.5950  -20.8550 N.3   179  ARG179     -0.1245
    171  CA        -9.4370    2.6610  -21.3810 C.3   179  ARG179      0.1563
    172  C         -9.2500    3.8440  -20.4180 C.2   179  ARG179      0.2260
    173  O         -8.2380    4.5360  -20.5060 O.2   179  ARG179     -0.2867
    174  CB        -9.9420    3.1230  -22.7430 C.3   179  ARG179      0.0307
    175  CG        -9.4270    2.2280  -23.8470 C.3   179  ARG179      0.0489
    176  CD       -10.2410    2.3860  -25.1050 C.3   179  ARG179      0.2205
    177  NE        -9.6170    1.6610  -26.2030 N.pl3 179  ARG179     -0.0865
    178  CZ        -9.9030    0.4040  -26.5210 C.cat 179  ARG179      0.5346
    179  NH1      -10.8140   -0.2740  -25.8320 N.pl3 179  ARG179      0.1354
    180  NH2       -9.2870   -0.1830  -27.5410 N.pl3 179  ARG179      0.1354
@<TRIPOS>BOND
     1   106   107    1
     2   107   108    1
     3   107   110    1
     4   108   109    2
     5    14    13    2
     6    10     9    2
     7    13    12    1
     8   110   111    1
     9     6     5    1
    10   101   100    2
    11     1     2    1
    12     5     2    1
    13   113   111   ar
    14   113   115   ar
    15   111   112   ar
    16     9     8    1
    17     9    11   am
    18   117   118    1
    19   100    99    1
    20     7     8    1
    21     7     3   am
    22     2     3    1
    23   115   116   ar
    24    12    11    1
    25    12    15    1
    26   112   114   ar
    27     3     4    2
    28    39    40    1
    29   119   118    1
    30   119   120    2
    31   116   114   ar
    32   118   121    1
    33    46    45   ar
    34    99   102    1
    35    99    98    1
    36    15    16    1
    37    40    43    1
    38    40    41    1
    39    44    45    1
    40    44    43    1
    41    63    61    1
    42   102   103    1
    43    45    47   ar
    44   121   122    1
    45   180   178    1
    46    41    42    2
    47   127   128    1
    48    18    16    1
    49    61    62    1
    50    61    60    1
    51   105   103    1
    52    16    17    1
    53    29    28   ar
    54    29    27   ar
    55    28    26   ar
    56   103   104    1
    57    48    49    1
    58   178   177    2
    59   178   179    1
    60    56    57    1
    61   122   123   ar
    62   122   124   ar
    63   177   176    1
    64   128   131    1
    65   128   129    1
    66    27    25   ar
    67   123   125   ar
    68    26    24   ar
    69    60    57    1
    70   131   132    1
    71    57    58    1
    72   124   126   ar
    73    49    50    1
    74    49    52    1
    75   176   175    1
    76   129   130    2
    77    50    51    2
    78   132   133   ar
    79   132   134   ar
    80    25    24   ar
    81   125   126   ar
    82    24    23    1
    83    53    52    1
    84    53    54    1
    85    53    55    1
    86    58    59    2
    87   175   174    1
    88    23    20    1
    89    71    69    1
    90    20    19    1
    91    20    21    1
    92    85    86    1
    93    85    84    1
    94   174   171    1
    95    69    68    1
    96   141   139    1
    97    22    21    2
    98   142   140    1
    99    70    68    1
   100   153   152   ar
   101    84    83    1
   102   154   152   ar
   103    68    65    1
   104    37    38    1
   105    37    36    1
   106   171   170    1
   107   171   172    1
   108   167   168    1
   109   167   166    1
   110   169   168    2
   111   140   139    1
   112   152   151    1
   113   139   136    1
   114   173   172    2
   115   166   157   am
   116    83    80    1
   117    36    35    1
   118    65    64    1
   119    65    66    1
   120    97    96   ar
   121    97    95   ar
   122    96    94   ar
   123   136   137    1
   124   136   135    1
   125   151   148    1
   126   137   138    2
   127   137   143   am
   128   150   149    2
   129   157   158    2
   130   157   156    1
   131   143   144    1
   132   144   145    1
   133   147   145   am
   134   147   148    1
   135    80    79    1
   136    80    81    1
   137    35    34    1
   138   149   148    1
   139   149   155   am
   140    75    74    2
   141    66    72   am
   142    66    67    2
   143   145   146    2
   144    95    93   ar
   145   156   155    1
   146   156   159    1
   147    72    73    1
   148    94    92   ar
   149    33    32    2
   150    34    31    1
   151    74    73    1
   152    81    82    2
   153    93    92   ar
   154    73    76    1
   155    32    31    1
   156    92    91    1
   157    76    78    1
   158    76    77    1
   159   159   160    1
   160    31    30    1
   161   162   160   ar
   162   162   164   ar
   163   160   161   ar
   164    91    88    1
   165   164   165   ar
   166    87    88    1
   167    88    89    1
   168   161   163   ar
   169   165   163   ar
   170    89    90    2
