@<TRIPOS>MOLECULE
tmp/5kmlA00.pdb
 177 167 0 0 0
SMALL
GASTEIGER

@<TRIPOS>ATOM
      1  N        -17.8560   -2.9930  -28.2800 N.3     1  SER1       -0.1202
      2  CA       -17.0060   -2.4210  -29.3430 C.3     1  SER1        0.2020
      3  C        -15.6660   -3.1740  -29.5710 C.2     1  SER1        0.2619
      4  O        -15.1110   -3.0930  -30.6760 O.2     1  SER1       -0.2717
      5  CB       -16.7660   -0.9290  -29.1220 C.3     1  SER1        0.2103
      6  OG       -16.0000   -0.6520  -27.9620 O.3     1  SER1       -0.2182
      7  N        -15.1640   -3.9130  -28.5410 N.am    2  SER2       -0.1937
      8  CA       -13.9350   -4.7100  -28.6100 C.3     2  SER2        0.2055
      9  C        -14.0520   -5.9190  -29.5320 C.2     2  SER2        0.2642
     10  O        -13.0350   -6.5030  -29.8990 O.2     2  SER2       -0.2714
     11  CB       -13.4980   -5.1650  -27.2230 C.3     2  SER2        0.2130
     12  OG       -12.4860   -4.2840  -26.7750 O.3     2  SER2       -0.2179
     13  N        -15.2790   -6.3020  -29.9000 N.am    3  LEU3       -0.1977
     14  CA       -15.4530   -7.4350  -30.7990 C.3     3  LEU3        0.1596
     15  C        -15.5470   -7.0140  -32.2440 C.2     3  LEU3        0.2287
     16  O        -16.0520   -5.9320  -32.5590 O.2     3  LEU3       -0.2864
     17  CB       -16.6470   -8.3250  -30.4350 C.3     3  LEU3        0.0297
     18  CG       -16.6590   -9.0110  -29.0720 C.3     3  LEU3        0.0022
     19  CD1      -17.9510   -9.7090  -28.8970 C.3     3  LEU3        0.0001
     20  CD2      -15.5170  -10.0240  -28.9050 C.3     3  LEU3        0.0001
     21  N        -23.1970    0.8610  -16.2980 N.3    50  LYS50      -0.1245
     22  CA       -22.3600    1.7220  -17.1150 C.3    50  LYS50       0.1561
     23  C        -23.2770    2.7930  -17.7090 C.2    50  LYS50       0.2260
     24  O        -24.1750    2.4560  -18.4790 O.2    50  LYS50      -0.2867
     25  CB       -21.6720    0.9290  -18.2410 C.3    50  LYS50       0.0271
     26  CG       -20.8070    1.8140  -19.1330 C.3    50  LYS50       0.0035
     27  CD       -20.2290    1.0560  -20.2960 C.3    50  LYS50       0.0206
     28  CE       -19.5180    2.0200  -21.2180 C.3    50  LYS50       0.1093
     29  NZ       -18.8390    1.3130  -22.3250 N.3    50  LYS50      -0.1314
     30  N        -23.9400   -2.3120  -29.7440 N.3    65  GLU65      -0.1245
     31  CA       -23.2040   -2.9010  -28.6100 C.3    65  GLU65       0.1567
     32  C        -24.1130   -3.7540  -27.7150 C.2    65  GLU65       0.2260
     33  O        -23.7390   -4.8690  -27.3740 O.2    65  GLU65      -0.2867
     34  CB       -22.4920   -1.8190  -27.7760 C.3    65  GLU65       0.0388
     35  CG       -21.1900   -1.3430  -28.3910 C.3    65  GLU65       0.1160
     36  CD       -20.7020    0.0180  -27.9290 C.2    65  GLU65       0.3649
     37  OE1      -19.7990    0.5750  -28.5940 O.co2  65  GLU65      -0.2457
     38  OE2      -21.2200    0.5320  -26.9110 O.co2  65  GLU65      -0.2457
     39  N        -23.8560   -7.6580  -27.0740 N.3    69  LEU69      -0.1245
     40  CA       -23.7480   -8.1400  -25.6940 C.3    69  LEU69       0.1561
     41  C        -24.8880   -9.0960  -25.3610 C.2    69  LEU69       0.2260
     42  O        -24.6680  -10.0270  -24.5940 O.2    69  LEU69      -0.2867
     43  CB       -23.6760   -6.9850  -24.6830 C.3    69  LEU69       0.0270
     44  CG       -22.4640   -6.0650  -24.7450 C.3    69  LEU69       0.0019
     45  CD1      -22.6490   -4.8980  -23.8350 C.3    69  LEU69       0.0001
     46  CD2      -21.1690   -6.7970  -24.4490 C.3    69  LEU69       0.0001
     47  N        -23.9290  -12.6240  -26.8190 N.3    72  LEU72      -0.1245
     48  CA       -22.8260  -13.1140  -26.0150 C.3    72  LEU72       0.1561
     49  C        -23.2090  -13.4540  -24.6020 C.2    72  LEU72       0.2260
     50  O        -23.0000  -12.6460  -23.6890 O.2    72  LEU72      -0.2867
     51  CB       -21.7670  -12.0240  -25.9960 C.3    72  LEU72       0.0270
     52  CG       -20.6040  -12.1920  -26.9210 C.3    72  LEU72       0.0019
     53  CD1      -20.9700  -11.8370  -28.3700 C.3    72  LEU72       0.0001
     54  CD2      -19.5150  -11.3230  -26.4530 C.3    72  LEU72       0.0001
     55  N        -18.1400  -15.2100  -19.6910 N.3    77  ILE77      -0.1231
     56  CA       -18.3520  -13.8820  -20.2650 C.3    77  ILE77       0.1692
     57  C        -19.1930  -13.1520  -19.2100 C.2    77  ILE77       0.2591
     58  O        -20.2020  -13.7090  -18.7740 O.2    77  ILE77      -0.2718
     59  CB       -19.0790  -13.8860  -21.6310 C.3    77  ILE77       0.0266
     60  CG1      -18.3360  -14.7210  -22.7190 C.3    77  ILE77       0.0019
     61  CG2      -19.3580  -12.4210  -22.1130 C.3    77  ILE77       0.0020
     62  CD1      -16.8280  -14.2710  -23.0790 C.3    77  ILE77       0.0001
     63  N        -18.7890  -11.9210  -18.8120 N.am   78  VAL78      -0.1980
     64  CA       -19.5140  -11.0950  -17.8320 C.3    78  VAL78       0.1595
     65  C        -20.9860  -10.9730  -18.2820 C.2    78  VAL78       0.2287
     66  O        -21.2560  -10.6830  -19.4460 O.2    78  VAL78      -0.2864
     67  CB       -18.8320   -9.7160  -17.6530 C.3    78  VAL78       0.0276
     68  CG1      -19.6440   -8.8110  -16.7230 C.3    78  VAL78       0.0022
     69  CG2      -17.4340   -9.9050  -17.0870 C.3    78  VAL78       0.0022
     70  N        -24.4980   -9.6070  -19.0420 N.3    80  PHE80      -0.1241
     71  CA       -25.1380   -8.3790  -19.4680 C.3    80  PHE80       0.1605
     72  C        -26.6600   -8.6260  -19.2930 C.2    80  PHE80       0.2264
     73  O        -27.2170   -9.5350  -19.9140 O.2    80  PHE80      -0.2867
     74  CB       -24.7840   -8.0550  -20.9310 C.3    80  PHE80       0.0534
     75  CG       -25.5430   -6.8910  -21.5380 C.ar   80  PHE80      -0.0203
     76  CD1      -25.3050   -5.5880  -21.1150 C.ar   80  PHE80      -0.0042
     77  CD2      -26.5120   -7.1060  -22.5130 C.ar   80  PHE80      -0.0042
     78  CE1      -25.9800   -4.5180  -21.6890 C.ar   80  PHE80      -0.0003
     79  CE2      -27.1940   -6.0330  -23.0860 C.ar   80  PHE80      -0.0003
     80  CZ       -26.9100   -4.7440  -22.6870 C.ar   80  PHE80      -0.0000
     81  N        -26.2800    0.5890  -19.2870 N.3    92  MET92      -0.1245
     82  CA       -26.0500   -0.8200  -19.6040 C.3    92  MET92       0.1570
     83  C        -25.8730   -1.4790  -18.2470 C.2    92  MET92       0.2261
     84  O        -25.1660   -0.9380  -17.4040 O.2    92  MET92      -0.2867
     85  CB       -24.8270   -1.0120  -20.4800 C.3    92  MET92       0.0387
     86  CG       -25.1320   -0.7840  -21.9360 C.3    92  MET92       0.0595
     87  SD       -23.6600   -1.0120  -22.9010 S.3    92  MET92      -0.1393
     88  CE       -23.0170    0.6450  -22.9120 C.3    92  MET92       0.0692
     89  N        -24.8540   -4.7260  -15.9470 N.3    94  PHE94      -0.1241
     90  CA       -24.0310   -5.9160  -15.8940 C.3    94  PHE94       0.1605
     91  C        -24.0240   -6.5110  -14.5040 C.2    94  PHE94       0.2264
     92  O        -24.3440   -5.8290  -13.5240 O.2    94  PHE94      -0.2867
     93  CB       -22.5730   -5.5330  -16.2720 C.3    94  PHE94       0.0534
     94  CG       -22.3800   -5.0980  -17.6980 C.ar   94  PHE94      -0.0203
     95  CD1      -22.3850   -3.7460  -18.0390 C.ar   94  PHE94      -0.0042
     96  CD2      -22.1690   -6.0320  -18.7010 C.ar   94  PHE94      -0.0042
     97  CE1      -22.1650   -3.3380  -19.3600 C.ar   94  PHE94      -0.0003
     98  CE2      -21.9620   -5.6280  -20.0200 C.ar   94  PHE94      -0.0003
     99  CZ       -21.9620   -4.2830  -20.3420 C.ar   94  PHE94      -0.0000
    100  N        -15.9990  -17.2880  -27.5980 N.3   141  LEU141     -0.1245
    101  CA       -15.9450  -16.1810  -28.5600 C.3   141  LEU141      0.1561
    102  C        -15.4620  -16.6360  -29.9480 C.2   141  LEU141      0.2260
    103  O        -16.0480  -16.2210  -30.9520 O.2   141  LEU141     -0.2867
    104  CB       -15.1290  -14.9880  -28.0470 C.3   141  LEU141      0.0270
    105  CG       -15.6620  -14.2610  -26.7960 C.3   141  LEU141      0.0019
    106  CD1      -14.6980  -13.1850  -26.3400 C.3   141  LEU141      0.0001
    107  CD2      -17.0180  -13.6460  -27.0480 C.3   141  LEU141      0.0001
    108  N        -11.7450  -10.6630  -30.2940 N.3   148  HIS148     -0.1241
    109  CA       -11.6560   -9.6860  -29.2000 C.3   148  HIS148      0.1621
    110  C        -10.3770   -8.9160  -29.4750 C.2   148  HIS148      0.2264
    111  O         -9.2920   -9.4780  -29.4300 O.2   148  HIS148     -0.2867
    112  CB       -11.5950  -10.3860  -27.8340 C.3   148  HIS148      0.0745
    113  CG       -11.8530   -9.4680  -26.6760 C.ar  148  HIS148      0.0817
    114  ND1      -11.1310   -8.3090  -26.5020 N.ar  148  HIS148     -0.2268
    115  CD2      -12.7500   -9.5810  -25.6670 C.ar  148  HIS148      0.1154
    116  CE1      -11.5960   -7.7500  -25.3930 C.ar  148  HIS148      0.1986
    117  NE2      -12.5690   -8.4840  -24.8520 N.ar  148  HIS148     -0.2212
    118  N         -8.9530   -6.6540  -27.7000 N.3   150  ASP150     -0.1239
    119  CA        -8.2070   -6.1380  -26.5450 C.3   150  ASP150      0.1674
    120  C         -8.2010   -7.1270  -25.3730 C.2   150  ASP150      0.2266
    121  O         -8.5270   -6.7780  -24.2250 O.2   150  ASP150     -0.2867
    122  CB        -8.7710   -4.7740  -26.1420 C.3   150  ASP150      0.1410
    123  CG        -7.8710   -3.9340  -25.2680 C.2   150  ASP150      0.3668
    124  OD1       -6.6810   -4.3150  -25.0700 O.co2 150  ASP150     -0.2456
    125  OD2       -8.3330   -2.9120  -24.7810 O.co2 150  ASP150     -0.2456
    126  N        -14.4670  -12.8510  -18.9970 N.3   166  ILE166     -0.1231
    127  CA       -14.0080  -11.8300  -19.9320 C.3   166  ILE166      0.1692
    128  C        -15.0990  -10.7300  -19.9280 C.2   166  ILE166      0.2593
    129  O        -16.2920  -11.0370  -20.0070 O.2   166  ILE166     -0.2718
    130  CB       -13.8400  -12.4640  -21.3460 C.3   166  ILE166      0.0266
    131  CG1      -12.7220  -13.5550  -21.3020 C.3   166  ILE166      0.0019
    132  CG2      -13.5050  -11.3650  -22.4080 C.3   166  ILE166      0.0020
    133  CD1      -12.5900  -14.3600  -22.5130 C.3   166  ILE166      0.0001
    134  N        -14.6680   -9.4810  -19.8200 N.am  167  GLY167     -0.1942
    135  CA       -15.5680   -8.3470  -19.8270 C.3   167  GLY167      0.2014
    136  C        -14.9200   -7.1520  -19.1950 C.2   167  GLY167      0.2639
    137  O        -14.0220   -7.2950  -18.3650 O.2   167  GLY167     -0.2714
    138  N        -15.3830   -5.9560  -19.5920 N.am  168  ASP168     -0.1957
    139  CA       -14.9010   -4.6900  -19.1030 C.3   168  ASP168      0.1840
    140  C        -16.0060   -3.6600  -19.3820 C.2   168  ASP168      0.2622
    141  O        -16.9420   -3.9540  -20.1230 O.2   168  ASP168     -0.2715
    142  CB       -13.5860   -4.2910  -19.8290 C.3   168  ASP168      0.1450
    143  CG       -13.7550   -4.0240  -21.3150 C.2   168  ASP168      0.3671
    144  OD1      -13.5810   -4.9660  -22.1090 O.co2 168  ASP168     -0.2456
    145  OD2      -14.0640   -2.8760  -21.6760 O.co2 168  ASP168     -0.2456
    146  N        -15.8730   -2.4730  -18.8210 N.am  169  PHE169     -0.1960
    147  CA       -16.8540   -1.4050  -18.9910 C.3   169  PHE169      0.1771
    148  C        -16.2960   -0.2460  -19.8300 C.2   169  PHE169      0.2620
    149  O        -16.6910    0.9040  -19.6240 O.2   169  PHE169     -0.2715
    150  CB       -17.3520   -0.9310  -17.6120 C.3   169  PHE169      0.0574
    151  CG       -17.8230   -2.0480  -16.7180 C.ar  169  PHE169     -0.0200
    152  CD1      -17.1260   -2.3770  -15.5680 C.ar  169  PHE169     -0.0042
    153  CD2      -18.9110   -2.8330  -17.0760 C.ar  169  PHE169     -0.0042
    154  CE1      -17.5310   -3.4440  -14.7630 C.ar  169  PHE169     -0.0003
    155  CE2      -19.3020   -3.9170  -16.2800 C.ar  169  PHE169     -0.0003
    156  CZ       -18.6210   -4.1990  -15.1160 C.ar  169  PHE169     -0.0000
    157  N        -15.3670   -0.5670  -20.7490 N.am  170  GLY170     -0.1954
    158  CA       -14.7520    0.3930  -21.6650 C.3   170  GLY170      0.1869
    159  C        -13.8750    1.4700  -21.0650 C.2   170  GLY170      0.2309
    160  O        -13.6810    2.5100  -21.6920 O.2   170  GLY170     -0.2863
    161  N        -10.5940    0.8500  -19.8240 N.3   172  SER172     -0.1202
    162  CA        -9.1960    0.3980  -19.7930 C.3   172  SER172      0.2020
    163  C         -8.2180    1.4020  -20.3770 C.2   172  SER172      0.2618
    164  O         -7.1650    1.6010  -19.7990 O.2   172  SER172     -0.2717
    165  CB        -9.0510   -0.9670  -20.4550 C.3   172  SER172      0.2103
    166  OG        -9.7300   -1.9230  -19.6630 O.3   172  SER172     -0.2182
    167  N         -8.5800    2.0710  -21.4760 N.am  173  ARG173     -0.1979
    168  CA        -7.7010    3.0700  -22.1040 C.3   173  ARG173      0.1597
    169  C         -7.4370    4.2530  -21.1600 C.2   173  ARG173      0.2287
    170  O         -6.3480    4.8280  -21.1920 O.2   173  ARG173     -0.2864
    171  CB        -8.2250    3.4950  -23.4830 C.3   173  ARG173      0.0334
    172  CG        -7.9700    2.4140  -24.5180 C.3   173  ARG173      0.0492
    173  CD        -8.7340    2.5860  -25.8100 C.3   173  ARG173      0.2205
    174  NE        -8.1980    1.7150  -26.8600 N.pl3 173  ARG173     -0.0865
    175  CZ        -8.5160    0.4320  -27.0140 C.cat 173  ARG173      0.5346
    176  NH1       -9.3770   -0.1490  -26.1920 N.pl3 173  ARG173      0.1354
    177  NH2       -7.9610   -0.2830  -27.9820 N.pl3 173  ARG173      0.1354
@<TRIPOS>BOND
     1    16    15    2
     2    15    14    1
     3   103   102    2
     4    14    17    1
     5    14    13    1
     6     4     3    2
     7    17    18    1
     8   108   109    1
     9   102   101    1
    10    13     9   am
    11    10     9    2
    12    30    31    1
    13     3     2    1
    14     3     7   am
    15     9     8    1
    16   110   111    2
    17   110   109    1
    18     2     5    1
    19     2     1    1
    20   109   112    1
    21     5     6    1
    22    18    20    1
    23    18    19    1
    24    31    34    1
    25    31    32    1
    26     8     7    1
    27     8    11    1
    28    37    36   ar
    29   101   104    1
    30   101   100    1
    31    35    36    1
    32    35    34    1
    33    53    52    1
    34   104   105    1
    35   177   175    1
    36    36    38   ar
    37   112   113    1
    38    32    33    2
    39   118   119    1
    40    11    12    1
    41    39    40    1
    42   107   105    1
    43   175   174    2
    44   175   176    1
    45    52    54    1
    46    52    51    1
    47   174   173    1
    48    47    48    1
    49   105   106    1
    50   113   114   ar
    51   113   115   ar
    52   119   122    1
    53   119   120    1
    54   114   116   ar
    55   122   123    1
    56    48    51    1
    57    48    49    1
    58   173   172    1
    59    40    41    1
    60    40    43    1
    61   115   117   ar
    62   116   117   ar
    63   120   121    2
    64    41    42    2
    65   123   124   ar
    66   123   125   ar
    67    44    43    1
    68    44    46    1
    69    44    45    1
    70    49    50    2
    71   172   171    1
    72   171   168    1
    73    79    80   ar
    74    79    77   ar
    75    62    60    1
    76    88    87    1
    77    87    86    1
    78    60    59    1
    79    80    78   ar
    80    77    75   ar
    81   133   131    1
    82   132   130    1
    83    29    28    1
    84    61    59    1
    85   144   143   ar
    86   168   167    1
    87   168   169    1
    88    86    85    1
    89   160   159    2
    90    78    76   ar
    91   145   143   ar
    92   158   159    1
    93   158   157    1
    94    59    56    1
    95    75    76   ar
    96    75    74    1
    97   167   163   am
    98   130   131    1
    99   130   127    1
   100   143   142    1
   101    28    27    1
   102   170   169    2
   103    74    71    1
   104   157   148   am
   105    85    82    1
   106   165   162    1
   107   165   166    1
   108   163   164    2
   109   163   162    1
   110    99    98   ar
   111    99    97   ar
   112    27    26    1
   113    56    55    1
   114    56    57    1
   115   141   140    2
   116    98    96   ar
   117   129   128    2
   118   127   128    1
   119   127   126    1
   120   128   134   am
   121    73    72    2
   122   148   149    2
   123   148   147    1
   124   142   139    1
   125   135   134    1
   126   135   136    1
   127   161   162    1
   128    82    81    1
   129    82    83    1
   130   138   136   am
   131   138   139    1
   132    71    72    1
   133    71    70    1
   134    66    65    2
   135   140   139    1
   136   140   146   am
   137    97    95   ar
   138    57    63   am
   139    57    58    2
   140   136   137    2
   141    26    25    1
   142   147   146    1
   143   147   150    1
   144    63    64    1
   145    96    94   ar
   146    24    23    2
   147    65    64    1
   148    83    84    2
   149    25    22    1
   150    95    94   ar
   151    64    67    1
   152    23    22    1
   153    94    93    1
   154    67    69    1
   155    67    68    1
   156   150   151    1
   157    22    21    1
   158   153   151   ar
   159   153   155   ar
   160   151   152   ar
   161   155   156   ar
   162    93    90    1
   163    89    90    1
   164    90    91    1
   165   152   154   ar
   166   156   154   ar
   167    91    92    2
