@<TRIPOS>MOLECULE
tmp/5kmmA00.pdb
 189 179 0 0 0
SMALL
GASTEIGER

@<TRIPOS>ATOM
      1  N        -13.5760   -1.6470  -30.4930 N.3     1  SER1       -0.1202
      2  CA       -14.6940   -1.1210  -29.7010 C.3     1  SER1        0.2020
      3  C        -15.5220   -2.2310  -28.9710 C.2     1  SER1        0.2619
      4  O        -16.5040   -1.9230  -28.2780 O.2     1  SER1       -0.2717
      5  CB       -15.5820   -0.2220  -30.5620 C.3     1  SER1        0.2103
      6  OG       -14.8460    0.7630  -31.2720 O.3     1  SER1       -0.2182
      7  N        -15.0950   -3.4920  -29.1420 N.am    2  GLY2       -0.1942
      8  CA       -15.6870   -4.6860  -28.5380 C.3     2  GLY2        0.2014
      9  C        -16.9480   -5.2050  -29.1870 C.2     2  GLY2        0.2639
     10  O        -16.8910   -5.9610  -30.1630 O.2     2  GLY2       -0.2714
     11  N        -18.0970   -4.8110  -28.6220 N.am    3  LEU3       -0.1963
     12  CA       -19.4130   -5.1920  -29.1190 C.3     3  LEU3        0.1728
     13  C        -19.7030   -4.4800  -30.4370 C.2     3  LEU3        0.2616
     14  O        -20.2170   -5.1070  -31.3580 O.2     3  LEU3       -0.2715
     15  CB       -20.4990   -4.8680  -28.0880 C.3     3  LEU3        0.0311
     16  CG       -20.4620   -5.6520  -26.7880 C.3     3  LEU3        0.0022
     17  CD1      -21.0910   -4.8590  -25.6770 C.3     3  LEU3        0.0001
     18  CD2      -21.1200   -7.0030  -26.9330 C.3     3  LEU3        0.0001
     19  N        -19.3400   -3.1770  -30.5290 N.am    4  GLN4       -0.1977
     20  CA       -19.5240   -2.3070  -31.7010 C.3     4  GLN4        0.1601
     21  C        -18.9140   -2.8490  -33.0010 C.2     4  GLN4        0.2287
     22  O        -19.5000   -2.6470  -34.0700 O.2     4  GLN4       -0.2864
     23  CB       -18.9920   -0.8940  -31.4250 C.3     4  GLN4        0.0394
     24  CG       -19.7630   -0.1270  -30.3630 C.3     4  GLN4        0.0908
     25  CD       -21.0560    0.4300  -30.8970 C.2     4  GLN4        0.2608
     26  OE1      -22.0740   -0.2670  -30.9910 O.2     4  GLN4       -0.2717
     27  NE2      -21.0370    1.7030  -31.2640 N.am    4  GLN4       -0.0878
     28  N        -17.0240    7.2650  -21.9170 N.3    30  PHE30      -0.1241
     29  CA       -18.2870    6.8160  -22.5330 C.3    30  PHE30       0.1605
     30  C        -19.4620    6.7060  -21.5290 C.2    30  PHE30       0.2264
     31  O        -20.5850    6.3690  -21.9310 O.2    30  PHE30      -0.2867
     32  CB       -18.0660    5.4850  -23.2910 C.3    30  PHE30       0.0534
     33  CG       -17.5360    5.6290  -24.7000 C.ar   30  PHE30      -0.0203
     34  CD1      -16.2210    6.0240  -24.9310 C.ar   30  PHE30      -0.0042
     35  CD2      -18.3470    5.3530  -25.7980 C.ar   30  PHE30      -0.0042
     36  CE1      -15.7320    6.1570  -26.2340 C.ar   30  PHE30      -0.0003
     37  CE2      -17.8560    5.4800  -27.1010 C.ar   30  PHE30      -0.0003
     38  CZ       -16.5520    5.8790  -27.3100 C.ar   30  PHE30      -0.0000
     39  N        -24.6200    0.3520  -16.0830 N.3    53  LYS53      -0.1245
     40  CA       -23.8180    1.1750  -16.9900 C.3    53  LYS53       0.1561
     41  C        -24.7540    2.2830  -17.4750 C.2    53  LYS53       0.2260
     42  O        -25.8060    1.9950  -18.0620 O.2    53  LYS53      -0.2867
     43  CB       -23.2900    0.3330  -18.1750 C.3    53  LYS53       0.0271
     44  CG       -22.2980    1.1070  -19.0520 C.3    53  LYS53       0.0035
     45  CD       -21.8220    0.3160  -20.2510 C.3    53  LYS53       0.0206
     46  CE       -20.8780    1.1440  -21.1160 C.3    53  LYS53       0.1093
     47  NZ       -21.6030    2.1370  -21.9510 N.3    53  LYS53      -0.1314
     48  N        -25.8390   -2.4840  -29.2210 N.3    66  GLU66      -0.1245
     49  CA       -25.0080   -3.0680  -28.1510 C.3    66  GLU66       0.1567
     50  C        -25.8920   -3.9700  -27.3050 C.2    66  GLU66       0.2260
     51  O        -25.5590   -5.1400  -27.1180 O.2    66  GLU66      -0.2867
     52  CB       -24.3480   -1.9790  -27.2900 C.3    66  GLU66       0.0388
     53  CG       -23.1140   -1.3790  -27.9350 C.3    66  GLU66       0.1160
     54  CD       -22.5190   -0.1590  -27.2600 C.2    66  GLU66       0.3649
     55  OE1      -21.3130    0.1000  -27.4770 O.co2  66  GLU66      -0.2457
     56  OE2      -23.2500    0.5420  -26.5220 O.co2  66  GLU66      -0.2457
     57  N        -25.7460   -7.9260  -26.7490 N.3    70  LEU70      -0.1245
     58  CA       -25.5600   -8.4290  -25.3810 C.3    70  LEU70       0.1561
     59  C        -26.6570   -9.4030  -24.9700 C.2    70  LEU70       0.2260
     60  O        -26.4310  -10.2730  -24.1290 O.2    70  LEU70      -0.2867
     61  CB       -25.4450   -7.2720  -24.3750 C.3    70  LEU70       0.0270
     62  CG       -24.1190   -6.5440  -24.3830 C.3    70  LEU70       0.0019
     63  CD1      -24.2170   -5.2490  -23.6260 C.3    70  LEU70       0.0001
     64  CD2      -23.0370   -7.4040  -23.8140 C.3    70  LEU70       0.0001
     65  N        -25.4400  -12.7250  -26.6070 N.3    73  LEU73      -0.1245
     66  CA       -24.2790  -13.2090  -25.8740 C.3    73  LEU73       0.1561
     67  C        -24.5850  -13.5730  -24.4370 C.2    73  LEU73       0.2260
     68  O        -24.3840  -12.7720  -23.5230 O.2    73  LEU73      -0.2867
     69  CB       -23.0990  -12.2260  -25.9670 C.3    73  LEU73       0.0270
     70  CG       -22.6090  -11.8530  -27.3680 C.3    73  LEU73       0.0019
     71  CD1      -21.7250  -10.6470  -27.3040 C.3    73  LEU73       0.0001
     72  CD2      -21.8840  -13.0020  -28.0430 C.3    73  LEU73       0.0001
     73  N        -19.3680  -15.4050  -19.4960 N.3    78  ILE78      -0.1231
     74  CA       -19.6130  -14.1080  -20.1140 C.3    78  ILE78       0.1692
     75  C        -20.4540  -13.3880  -19.0610 C.2    78  ILE78       0.2591
     76  O        -21.4750  -13.9480  -18.6460 O.2    78  ILE78      -0.2718
     77  CB       -20.3780  -14.2040  -21.4810 C.3    78  ILE78       0.0266
     78  CG1      -19.5870  -15.0140  -22.5590 C.3    78  ILE78       0.0019
     79  CG2      -20.7920  -12.7920  -22.0000 C.3    78  ILE78       0.0020
     80  CD1      -18.2730  -14.2980  -23.2010 C.3    78  ILE78       0.0001
     81  N        -20.0310  -12.1690  -18.6000 N.am   79  VAL79      -0.1980
     82  CA       -20.8170  -11.4080  -17.5910 C.3    79  VAL79       0.1595
     83  C        -22.2960  -11.3220  -18.0430 C.2    79  VAL79       0.2287
     84  O        -22.5880  -10.9600  -19.1870 O.2    79  VAL79      -0.2864
     85  CB       -20.2370  -10.0110  -17.2720 C.3    79  VAL79       0.0276
     86  CG1      -21.0980   -9.2650  -16.2270 C.3    79  VAL79       0.0022
     87  CG2      -18.8000  -10.1460  -16.7700 C.3    79  VAL79       0.0022
     88  N        -27.7790    0.0720  -18.9370 N.3    93  MET93      -0.1245
     89  CA       -27.5420   -1.3250  -19.2660 C.3    93  MET93       0.1570
     90  C        -27.3500   -2.0060  -17.9250 C.2    93  MET93       0.2261
     91  O        -26.5750   -1.5390  -17.0920 O.2    93  MET93      -0.2867
     92  CB       -26.3230   -1.4880  -20.1610 C.3    93  MET93       0.0387
     93  CG       -26.6750   -1.3490  -21.6180 C.3    93  MET93       0.0595
     94  SD       -25.2220   -1.3480  -22.6530 S.3    93  MET93      -0.1393
     95  CE       -24.7510    0.3690  -22.5600 C.3    93  MET93       0.0692
     96  N        -26.3130   -5.2090  -15.6130 N.3    95  PHE95      -0.1241
     97  CA       -25.4810   -6.4250  -15.5770 C.3    95  PHE95       0.1605
     98  C        -25.4250   -7.0030  -14.1920 C.2    95  PHE95       0.2264
     99  O        -25.7700   -6.3290  -13.2310 O.2    95  PHE95      -0.2867
    100  CB       -24.0440   -6.0880  -15.9980 C.3    95  PHE95       0.0534
    101  CG       -23.8630   -5.6190  -17.4200 C.ar   95  PHE95      -0.0203
    102  CD1      -23.9330   -4.2650  -17.7390 C.ar   95  PHE95      -0.0042
    103  CD2      -23.5720   -6.5230  -18.4330 C.ar   95  PHE95      -0.0042
    104  CE1      -23.7300   -3.8290  -19.0470 C.ar   95  PHE95      -0.0003
    105  CE2      -23.3580   -6.0820  -19.7410 C.ar   95  PHE95      -0.0003
    106  CZ       -23.4520   -4.7430  -20.0380 C.ar   95  PHE95      -0.0000
    107  N        -17.3150  -17.2650  -27.7170 N.3   145  LEU145     -0.1245
    108  CA       -17.1830  -16.1190  -28.6250 C.3   145  LEU145      0.1561
    109  C        -16.6740  -16.5300  -30.0060 C.2   145  LEU145      0.2260
    110  O        -17.2100  -16.0530  -31.0050 O.2   145  LEU145     -0.2867
    111  CB       -16.3220  -14.9810  -28.0360 C.3   145  LEU145      0.0270
    112  CG       -16.8910  -14.2490  -26.8060 C.3   145  LEU145      0.0019
    113  CD1      -15.8670  -13.2710  -26.2340 C.3   145  LEU145      0.0001
    114  CD2      -18.1930  -13.5420  -27.1220 C.3   145  LEU145      0.0001
    115  N        -17.2340  -14.1450  -33.0170 N.3   150  PHE150     -0.1241
    116  CA       -17.0420  -12.8360  -32.3950 C.3   150  PHE150      0.1605
    117  C        -15.5440  -12.5780  -32.1580 C.2   150  PHE150      0.2264
    118  O        -14.8300  -13.4260  -31.6170 O.2   150  PHE150     -0.2867
    119  CB       -17.8060  -12.7990  -31.0610 C.3   150  PHE150      0.0534
    120  CG       -17.9960  -11.4460  -30.4270 C.ar  150  PHE150     -0.0203
    121  CD1      -16.9290  -10.7820  -29.8250 C.ar  150  PHE150     -0.0042
    122  CD2      -19.2520  -10.8630  -30.3670 C.ar  150  PHE150     -0.0042
    123  CE1      -17.1080   -9.5300  -29.2300 C.ar  150  PHE150     -0.0003
    124  CE2      -19.4300   -9.6120  -29.7650 C.ar  150  PHE150     -0.0003
    125  CZ       -18.3570   -8.9530  -29.2030 C.ar  150  PHE150     -0.0000
    126  N        -13.1580  -10.2970  -30.1090 N.3   152  HIS152     -0.1241
    127  CA       -13.1280   -9.4300  -28.9290 C.3   152  HIS152      0.1621
    128  C        -12.3820   -8.1430  -29.1770 C.2   152  HIS152      0.2264
    129  O        -12.9580   -7.0720  -28.9910 O.2   152  HIS152     -0.2867
    130  CB       -12.5280  -10.1510  -27.7160 C.3   152  HIS152      0.0745
    131  CG       -12.8500   -9.4540  -26.4380 C.ar  152  HIS152      0.0817
    132  ND1      -12.1950   -8.3110  -26.0690 N.ar  152  HIS152     -0.2268
    133  CD2      -13.8070   -9.7310  -25.5240 C.ar  152  HIS152      0.1154
    134  CE1      -12.7410   -7.9440  -24.9230 C.ar  152  HIS152      0.1986
    135  NE2      -13.7190   -8.7700  -24.5620 N.ar  152  HIS152     -0.2212
    136  N        -10.0650   -6.8180  -27.3700 N.3   154  ASP154     -0.1239
    137  CA        -9.4200   -6.2230  -26.1890 C.3   154  ASP154      0.1674
    138  C         -9.3940   -7.1850  -25.0100 C.2   154  ASP154      0.2266
    139  O         -9.6340   -6.7940  -23.8580 O.2   154  ASP154     -0.2867
    140  CB       -10.0060   -4.8420  -25.8190 C.3   154  ASP154      0.1410
    141  CG        -9.1610   -3.9610  -24.8940 C.2   154  ASP154      0.3668
    142  OD1       -7.9600   -4.3000  -24.6460 O.co2 154  ASP154     -0.2456
    143  OD2       -9.6820   -2.9370  -24.4290 O.co2 154  ASP154     -0.2456
    144  N        -15.7940  -13.1530  -18.8390 N.3   170  ILE170     -0.1231
    145  CA       -15.3120  -12.1090  -19.7280 C.3   170  ILE170      0.1692
    146  C        -16.3720  -11.0090  -19.6980 C.2   170  ILE170      0.2593
    147  O        -17.5820  -11.3020  -19.7340 O.2   170  ILE170     -0.2718
    148  CB       -15.0650  -12.6500  -21.1660 C.3   170  ILE170      0.0266
    149  CG1      -13.9110  -13.6850  -21.1550 C.3   170  ILE170      0.0019
    150  CG2      -14.7760  -11.4910  -22.1720 C.3   170  ILE170      0.0020
    151  CD1      -13.8450  -14.5480  -22.3090 C.3   170  ILE170      0.0001
    152  N        -15.9020   -9.7690  -19.5980 N.am  171  GLY171     -0.1942
    153  CA       -16.7780   -8.6110  -19.5570 C.3   171  GLY171      0.2014
    154  C        -16.1480   -7.3890  -18.9260 C.2   171  GLY171      0.2639
    155  O        -15.2150   -7.4770  -18.1180 O.2   171  GLY171     -0.2714
    156  N        -16.6740   -6.2350  -19.3120 N.am  172  ASP172     -0.1957
    157  CA       -16.2330   -4.9430  -18.8260 C.3   172  ASP172      0.1840
    158  C        -17.3510   -3.9440  -19.1050 C.2   172  ASP172      0.2622
    159  O        -18.2580   -4.2220  -19.8950 O.2   172  ASP172     -0.2715
    160  CB       -14.9190   -4.5350  -19.5190 C.3   172  ASP172      0.1450
    161  CG       -15.0840   -4.2680  -21.0040 C.2   172  ASP172      0.3671
    162  OD1      -14.9470   -5.2210  -21.8010 O.co2 172  ASP172     -0.2456
    163  OD2      -15.3470   -3.1170  -21.3620 O.co2 172  ASP172     -0.2456
    164  N        -17.2620   -2.7830  -18.4720 N.am  173  PHE173     -0.1960
    165  CA       -18.2450   -1.7280  -18.6040 C.3   173  PHE173      0.1771
    166  C        -17.7410   -0.5430  -19.4340 C.2   173  PHE173      0.2620
    167  O        -18.2220    0.5640  -19.2650 O.2   173  PHE173     -0.2715
    168  CB       -18.7760   -1.3160  -17.2170 C.3   173  PHE173      0.0574
    169  CG       -19.2930   -2.4750  -16.3870 C.ar  173  PHE173     -0.0200
    170  CD1      -18.7350   -2.7670  -15.1490 C.ar  173  PHE173     -0.0042
    171  CD2      -20.3000   -3.3070  -16.8690 C.ar  173  PHE173     -0.0042
    172  CE1      -19.1970   -3.8520  -14.3940 C.ar  173  PHE173     -0.0003
    173  CE2      -20.7490   -4.3950  -16.1210 C.ar  173  PHE173     -0.0003
    174  CZ       -20.1940   -4.6630  -14.8930 C.ar  173  PHE173     -0.0000
    175  N        -16.8060   -0.8030  -20.3420 N.am  174  GLY174     -0.1954
    176  CA       -16.2540    0.1850  -21.2710 C.3   174  GLY174      0.1869
    177  C        -15.3440    1.2500  -20.6940 C.2   174  GLY174      0.2309
    178  O        -15.0520    2.2350  -21.3660 O.2   174  GLY174     -0.2863
    179  N         -9.9720    1.9100  -20.9220 N.3   177  ARG177     -0.1245
    180  CA        -9.0760    2.9020  -21.5140 C.3   177  ARG177      0.1563
    181  C         -8.8780    4.1260  -20.5890 C.2   177  ARG177      0.2260
    182  O         -7.9250    4.8780  -20.7650 O.2   177  ARG177     -0.2867
    183  CB        -9.5600    3.3080  -22.9250 C.3   177  ARG177      0.0307
    184  CG        -9.1440    2.3360  -24.0070 C.3   177  ARG177      0.0489
    185  CD        -9.8940    2.5690  -25.3090 C.3   177  ARG177      0.2205
    186  NE        -9.3790    1.7280  -26.3940 N.pl3 177  ARG177     -0.0865
    187  CZ        -9.7310    0.4570  -26.5870 C.cat 177  ARG177      0.5346
    188  NH1      -10.5770   -0.1370  -25.7600 N.pl3 177  ARG177      0.1354
    189  NH2       -9.2180   -0.2350  -27.5930 N.pl3 177  ARG177      0.1354
@<TRIPOS>BOND
     1    22    21    2
     2   115   116    1
     3    21    20    1
     4   116   117    1
     5   116   119    1
     6   117   118    2
     7    20    23    1
     8    20    19    1
     9    23    24    1
    10    14    13    2
    11     6     5    1
    12    27    25   am
    13   119   120    1
    14   110   109    2
    15    26    25    2
    16    25    24    1
    17     5     2    1
    18    19    13   am
    19     1     2    1
    20    13    12    1
    21   120   122   ar
    22   120   121   ar
    23   122   124   ar
    24    10     9    2
    25   126   127    1
    26   109   108    1
    27   121   123   ar
    28   124   125   ar
    29     2     3    1
    30   123   125   ar
    31    48    49    1
    32     9    11   am
    33     9     8    1
    34   128   129    2
    35   128   127    1
    36     7     3   am
    37     7     8    1
    38    12    11    1
    39    12    15    1
    40     3     4    2
    41   127   130    1
    42   108   111    1
    43   108   107    1
    44    49    50    1
    45    49    52    1
    46    15    16    1
    47    72    70    1
    48   111   112    1
    49    53    52    1
    50    53    54    1
    51   130   131    1
    52   189   187    1
    53    55    54   ar
    54   136   137    1
    55    70    71    1
    56    70    69    1
    57    38    37   ar
    58    38    36   ar
    59    50    51    2
    60    54    56   ar
    61   114   112    1
    62    37    35   ar
    63    18    16    1
    64   112   113    1
    65    16    17    1
    66    57    58    1
    67    65    66    1
    68   187   186    2
    69   187   188    1
    70   131   132   ar
    71   131   133   ar
    72   186   185    1
    73    36    34   ar
    74   137   140    1
    75   137   138    1
    76   132   134   ar
    77    69    66    1
    78    66    67    1
    79   140   141    1
    80    35    33   ar
    81   133   135   ar
    82    58    59    1
    83    58    61    1
    84   185   184    1
    85   138   139    2
    86    59    60    2
    87    34    33   ar
    88   134   135   ar
    89   141   142   ar
    90   141   143   ar
    91    33    32    1
    92    67    68    2
    93    62    61    1
    94    62    64    1
    95    62    63    1
    96   184   183    1
    97    32    29    1
    98    80    78    1
    99   183   180    1
   100    94    95    1
   101    94    93    1
   102    78    77    1
   103    29    28    1
   104    29    30    1
   105   151   149    1
   106   150   148    1
   107    79    77    1
   108    47    46    1
   109    31    30    2
   110   162   161   ar
   111    93    92    1
   112   180   179    1
   113   180   181    1
   114    77    74    1
   115   178   177    2
   116   163   161   ar
   117   176   177    1
   118   176   175    1
   119   148   149    1
   120   148   145    1
   121    46    45    1
   122   161   160    1
   123   182   181    2
   124   175   166   am
   125    45    44    1
   126    92    89    1
   127    74    73    1
   128    74    75    1
   129   106   105   ar
   130   106   104   ar
   131   159   158    2
   132   105   103   ar
   133   147   146    2
   134   145   146    1
   135   145   144    1
   136   146   152   am
   137   152   153    1
   138   153   154    1
   139   160   157    1
   140   166   167    2
   141   166   165    1
   142   156   154   am
   143   156   157    1
   144    89    88    1
   145    89    90    1
   146    84    83    2
   147   158   157    1
   148   158   164   am
   149    75    76    2
   150    75    81   am
   151    44    43    1
   152   104   102   ar
   153   154   155    2
   154   165   164    1
   155   165   168    1
   156    81    82    1
   157   103   101   ar
   158    43    40    1
   159    42    41    2
   160    83    82    1
   161    90    91    2
   162   102   101   ar
   163    82    85    1
   164    41    40    1
   165   101   100    1
   166    85    87    1
   167    85    86    1
   168   168   169    1
   169    40    39    1
   170   171   169   ar
   171   171   173   ar
   172   169   170   ar
   173   173   174   ar
   174   100    97    1
   175    96    97    1
   176    97    98    1
   177   170   172   ar
   178   174   172   ar
   179    98    99    2
