@<TRIPOS>MOLECULE
tmp/5kmnA00.pdb
 171 161 0 0 0
SMALL
GASTEIGER

@<TRIPOS>ATOM
      1  N        -18.1150   -3.0530  -27.7070 N.3     1  SER1       -0.1202
      2  CA       -17.3590   -2.4290  -28.7970 C.3     1  SER1        0.2020
      3  C        -16.0140   -3.0940  -29.0720 C.2     1  SER1        0.2619
      4  O        -15.5180   -2.9710  -30.1910 O.2     1  SER1       -0.2717
      5  CB       -17.1990   -0.9290  -28.5830 C.3     1  SER1        0.2103
      6  OG       -16.3780   -0.6180  -27.4740 O.3     1  SER1       -0.2182
      7  N        -15.4420   -3.8300  -28.0680 N.am    2  SER2       -0.1937
      8  CA       -14.1770   -4.5600  -28.1930 C.3     2  SER2        0.2055
      9  C        -14.2980   -5.7880  -29.0890 C.2     2  SER2        0.2642
     10  O        -13.2820   -6.3570  -29.4910 O.2     2  SER2       -0.2714
     11  CB       -13.6590   -4.9670  -26.8250 C.3     2  SER2        0.2130
     12  OG       -13.1540   -3.8080  -26.1900 O.3     2  SER2       -0.2179
     13  N        -15.5280   -6.1990  -29.3960 N.am    3  LEU3       -0.1977
     14  CA       -15.7620   -7.3460  -30.2700 C.3     3  LEU3        0.1596
     15  C        -15.9020   -6.9310  -31.7300 C.2     3  LEU3        0.2287
     16  O        -16.3890   -5.8420  -32.0250 O.2     3  LEU3       -0.2864
     17  CB       -16.9890   -8.1640  -29.8480 C.3     3  LEU3        0.0297
     18  CG       -16.9630   -8.9270  -28.5240 C.3     3  LEU3        0.0022
     19  CD1      -18.0370   -9.9480  -28.5330 C.3     3  LEU3        0.0001
     20  CD2      -15.6540   -9.6890  -28.2950 C.3     3  LEU3        0.0001
     21  N        -15.8640    7.8560  -21.8780 N.3    29  PHE29      -0.1241
     22  CA       -17.1870    7.5720  -22.4440 C.3    29  PHE29       0.1605
     23  C        -18.3440    7.5330  -21.4160 C.2    29  PHE29       0.2264
     24  O        -19.5090    7.4520  -21.8260 O.2    29  PHE29      -0.2867
     25  CB       -17.1530    6.2750  -23.2730 C.3    29  PHE29       0.0534
     26  CG       -16.3460    6.3610  -24.5490 C.ar   29  PHE29      -0.0203
     27  CD1      -14.9870    6.0570  -24.5560 C.ar   29  PHE29      -0.0042
     28  CD2      -16.9460    6.7300  -25.7480 C.ar   29  PHE29      -0.0042
     29  CE1      -14.2420    6.1330  -25.7380 C.ar   29  PHE29      -0.0003
     30  CE2      -16.1980    6.8020  -26.9320 C.ar   29  PHE29      -0.0003
     31  CZ       -14.8530    6.5010  -26.9180 C.ar   29  PHE29      -0.0000
     32  N        -23.4620    0.9440  -16.1260 N.3    50  LYS50      -0.1245
     33  CA       -22.6350    1.7440  -17.0100 C.3    50  LYS50       0.1561
     34  C        -23.5480    2.8180  -17.5870 C.2    50  LYS50       0.2260
     35  O        -24.5360    2.4870  -18.2420 O.2    50  LYS50      -0.2867
     36  CB       -22.0270    0.8750  -18.1260 C.3    50  LYS50       0.0271
     37  CG       -21.0120    1.6480  -18.9500 C.3    50  LYS50       0.0035
     38  CD       -20.4810    0.9010  -20.1600 C.3    50  LYS50       0.0206
     39  CE       -19.7240    1.9200  -21.0000 C.3    50  LYS50       0.1093
     40  NZ       -19.2840    1.3780  -22.2920 N.3    50  LYS50      -0.1314
     41  N        -24.3160   -2.4080  -29.4870 N.3    65  GLU65      -0.1245
     42  CA       -23.5440   -3.0260  -28.3990 C.3    65  GLU65       0.1567
     43  C        -24.4840   -3.8350  -27.5060 C.2    65  GLU65       0.2260
     44  O        -24.1840   -4.9890  -27.2060 O.2    65  GLU65      -0.2867
     45  CB       -22.8020   -1.9590  -27.5690 C.3    65  GLU65       0.0388
     46  CG       -21.5300   -1.4400  -28.2090 C.3    65  GLU65       0.1160
     47  CD       -21.0470   -0.0840  -27.7220 C.2    65  GLU65       0.3649
     48  OE1      -20.2060    0.5280  -28.4190 O.co2  65  GLU65      -0.2457
     49  OE2      -21.5090    0.3710  -26.6500 O.co2  65  GLU65      -0.2457
     50  N        -24.2320   -7.8000  -26.8290 N.3    69  LEU69      -0.1245
     51  CA       -24.1080   -8.2600  -25.4470 C.3    69  LEU69       0.1561
     52  C        -25.2540   -9.1920  -25.0620 C.2    69  LEU69       0.2260
     53  O        -25.0360  -10.1170  -24.2860 O.2    69  LEU69      -0.2867
     54  CB       -23.9990   -7.0780  -24.4590 C.3    69  LEU69       0.0270
     55  CG       -22.7340   -6.2130  -24.5220 C.3    69  LEU69       0.0019
     56  CD1      -22.8590   -5.0190  -23.6280 C.3    69  LEU69       0.0001
     57  CD2      -21.4750   -7.0040  -24.1900 C.3    69  LEU69       0.0001
     58  N        -24.4920  -12.6510  -26.3510 N.3    72  LEU72      -0.1245
     59  CA       -23.3320  -13.1110  -25.6060 C.3    72  LEU72       0.1561
     60  C        -23.6240  -13.4930  -24.1870 C.2    72  LEU72       0.2260
     61  O        -23.1850  -12.8060  -23.2620 O.2    72  LEU72      -0.2867
     62  CB       -22.3130  -11.9770  -25.6130 C.3    72  LEU72       0.0270
     63  CG       -21.1410  -12.0780  -26.5350 C.3    72  LEU72       0.0019
     64  CD1      -21.5690  -12.0790  -28.0090 C.3    72  LEU72       0.0001
     65  CD2      -20.2270  -10.9260  -26.2530 C.3    72  LEU72       0.0001
     66  N        -18.4560  -15.2110  -19.3860 N.3    77  ILE77      -0.1231
     67  CA       -18.6450  -13.8860  -19.9810 C.3    77  ILE77       0.1692
     68  C        -19.4970  -13.1320  -18.9550 C.2    77  ILE77       0.2591
     69  O        -20.5250  -13.6690  -18.5350 O.2    77  ILE77      -0.2718
     70  CB       -19.3390  -13.9240  -21.3750 C.3    77  ILE77       0.0266
     71  CG1      -18.5670  -14.8240  -22.3970 C.3    77  ILE77       0.0019
     72  CG2      -19.6010  -12.4790  -21.9220 C.3    77  ILE77       0.0020
     73  CD1      -17.0490  -14.4100  -22.7540 C.3    77  ILE77       0.0001
     74  N        -19.0570  -11.9300  -18.5250 N.am   78  VAL78      -0.1980
     75  CA       -19.7730  -11.0680  -17.5660 C.3    78  VAL78       0.1595
     76  C        -21.2340  -10.9150  -18.0480 C.2    78  VAL78       0.2287
     77  O        -21.4840  -10.5690  -19.2110 O.2    78  VAL78      -0.2864
     78  CB       -19.0860   -9.6850  -17.3710 C.3    78  VAL78       0.0276
     79  CG1      -19.9190   -8.7790  -16.4580 C.3    78  VAL78       0.0022
     80  CG2      -17.6960   -9.8530  -16.7780 C.3    78  VAL78       0.0022
     81  N        -26.5730    0.7010  -19.1160 N.3    92  MET92      -0.1245
     82  CA       -26.3350   -0.7200  -19.3850 C.3    92  MET92       0.1570
     83  C        -26.1910   -1.3790  -18.0410 C.2    92  MET92       0.2261
     84  O        -25.4640   -0.8670  -17.2010 O.2    92  MET92      -0.2867
     85  CB       -25.1280   -0.9640  -20.2580 C.3    92  MET92       0.0387
     86  CG       -25.4670   -0.8430  -21.7110 C.3    92  MET92       0.0595
     87  SD       -24.0120   -1.0340  -22.7140 S.3    92  MET92      -0.1393
     88  CE       -23.3140    0.5490  -22.5340 C.3    92  MET92       0.0692
     89  N        -25.1910   -4.6480  -15.7440 N.3    94  PHE94      -0.1241
     90  CA       -24.3660   -5.8540  -15.7050 C.3    94  PHE94       0.1605
     91  C        -24.3280   -6.4240  -14.3180 C.2    94  PHE94       0.2264
     92  O        -24.6070   -5.7120  -13.3570 O.2    94  PHE94      -0.2867
     93  CB       -22.9040   -5.5080  -16.0810 C.3    94  PHE94       0.0534
     94  CG       -22.6780   -5.0670  -17.4960 C.ar   94  PHE94      -0.0203
     95  CD1      -22.6980   -3.7160  -17.8310 C.ar   94  PHE94      -0.0042
     96  CD2      -22.4510   -5.9990  -18.5020 C.ar   94  PHE94      -0.0042
     97  CE1      -22.4830   -3.3030  -19.1510 C.ar   94  PHE94      -0.0003
     98  CE2      -22.2430   -5.5900  -19.8200 C.ar   94  PHE94      -0.0003
     99  CZ       -22.2610   -4.2450  -20.1350 C.ar   94  PHE94      -0.0000
    100  N        -16.3040  -17.1610  -27.3220 N.3   141  LEU141     -0.1245
    101  CA       -16.3220  -16.0450  -28.2760 C.3   141  LEU141      0.1561
    102  C        -15.8480  -16.4950  -29.6740 C.2   141  LEU141      0.2260
    103  O        -16.4730  -16.1360  -30.6870 O.2   141  LEU141     -0.2867
    104  CB       -15.5270  -14.8390  -27.7560 C.3   141  LEU141      0.0270
    105  CG       -16.0710  -14.1230  -26.5010 C.3   141  LEU141      0.0019
    106  CD1      -15.0710  -13.0800  -25.9730 C.3   141  LEU141      0.0001
    107  CD2      -17.4540  -13.5090  -26.7430 C.3   141  LEU141      0.0001
    108  N        -11.9240  -10.6560  -29.9240 N.3   148  HIS148     -0.1241
    109  CA       -11.8800   -9.6610  -28.8330 C.3   148  HIS148      0.1621
    110  C        -10.6110   -8.8580  -29.0780 C.2   148  HIS148      0.2264
    111  O         -9.5110   -9.3930  -28.9690 O.2   148  HIS148     -0.2867
    112  CB       -11.8880  -10.3120  -27.4380 C.3   148  HIS148      0.0745
    113  CG       -12.1890   -9.3560  -26.3190 C.ar  148  HIS148      0.0817
    114  ND1      -11.4710   -8.1880  -26.1510 N.ar  148  HIS148     -0.2268
    115  CD2      -13.1050   -9.4500  -25.3250 C.ar  148  HIS148      0.1154
    116  CE1      -11.9610   -7.6090  -25.0680 C.ar  148  HIS148      0.1986
    117  NE2      -12.9370   -8.3350  -24.5230 N.ar  148  HIS148     -0.2212
    118  N         -9.2980   -6.4410  -27.3410 N.3   150  ASP150     -0.1239
    119  CA        -8.5560   -5.9230  -26.1990 C.3   150  ASP150      0.1674
    120  C         -8.5050   -6.9400  -25.0450 C.2   150  ASP150      0.2266
    121  O         -8.7760   -6.6020  -23.8860 O.2   150  ASP150     -0.2867
    122  CB        -9.0830   -4.5430  -25.7710 C.3   150  ASP150      0.1410
    123  CG        -8.1540   -3.7650  -24.8710 C.2   150  ASP150      0.3668
    124  OD1       -6.9680   -4.1890  -24.7080 O.co2 150  ASP150     -0.2456
    125  OD2       -8.6000   -2.7640  -24.3000 O.co2 150  ASP150     -0.2456
    126  N        -14.8260  -12.8000  -18.7230 N.3   166  ILE166     -0.1231
    127  CA       -14.3520  -11.7660  -19.6500 C.3   166  ILE166      0.1692
    128  C        -15.4200  -10.6790  -19.6320 C.2   166  ILE166      0.2593
    129  O        -16.6230  -10.9660  -19.6910 O.2   166  ILE166     -0.2718
    130  CB       -14.1690  -12.3170  -21.0910 C.3   166  ILE166      0.0266
    131  CG1      -13.1790  -13.5070  -21.0830 C.3   166  ILE166      0.0019
    132  CG2      -13.7110  -11.1710  -22.0770 C.3   166  ILE166      0.0020
    133  CD1      -13.0230  -14.2100  -22.3760 C.3   166  ILE166      0.0001
    134  N        -14.9670   -9.4460  -19.5540 N.am  167  GLY167     -0.1942
    135  CA       -15.8570   -8.3040  -19.5630 C.3   167  GLY167      0.2014
    136  C        -15.2160   -7.1500  -18.8650 C.2   167  GLY167      0.2639
    137  O        -14.3430   -7.3310  -18.0080 O.2   167  GLY167     -0.2714
    138  N        -15.6510   -5.9560  -19.2450 N.am  168  ASP168     -0.1957
    139  CA       -15.1830   -4.7110  -18.6720 C.3   168  ASP168      0.1840
    140  C        -16.2580   -3.6670  -18.9410 C.2   168  ASP168      0.2622
    141  O        -17.1410   -3.8970  -19.7690 O.2   168  ASP168     -0.2715
    142  CB       -13.8390   -4.2980  -19.3290 C.3   168  ASP168      0.1450
    143  CG       -13.9770   -3.9900  -20.8010 C.2   168  ASP168      0.3671
    144  OD1      -13.8640   -4.9330  -21.6200 O.co2 168  ASP168     -0.2456
    145  OD2      -14.2060   -2.8150  -21.1320 O.co2 168  ASP168     -0.2456
    146  N        -16.1490   -2.5100  -18.3150 N.am  169  PHE169     -0.1960
    147  CA       -17.1380   -1.4690  -18.5130 C.3   169  PHE169      0.1771
    148  C        -16.5880   -0.2700  -19.3170 C.2   169  PHE169      0.2620
    149  O        -17.0290    0.8520  -19.1120 O.2   169  PHE169     -0.2715
    150  CB       -17.7750   -1.0600  -17.1640 C.3   169  PHE169      0.0574
    151  CG       -18.1960   -2.2160  -16.2880 C.ar  169  PHE169     -0.0200
    152  CD1      -17.6120   -2.4170  -15.0450 C.ar  169  PHE169     -0.0042
    153  CD2      -19.1370   -3.1420  -16.7320 C.ar  169  PHE169     -0.0042
    154  CE1      -17.9960   -3.4910  -14.2370 C.ar  169  PHE169     -0.0003
    155  CE2      -19.4920   -4.2380  -15.9330 C.ar  169  PHE169     -0.0003
    156  CZ       -18.9260   -4.3970  -14.6890 C.ar  169  PHE169     -0.0000
    157  N        -15.6490   -0.5280  -20.2300 N.am  170  GLY170     -0.1954
    158  CA       -15.0900    0.4770  -21.1290 C.3   170  GLY170      0.1869
    159  C        -14.2080    1.5910  -20.6000 C.2   170  GLY170      0.2309
    160  O        -14.0430    2.5970  -21.2900 O.2   170  GLY170     -0.2863
    161  N         -8.8760    2.2220  -21.0650 N.3   173  ARG173     -0.1245
    162  CA        -7.9700    3.2160  -21.6750 C.3   173  ARG173      0.1563
    163  C         -7.7110    4.4050  -20.7360 C.2   173  ARG173      0.2260
    164  O         -6.6750    5.0680  -20.8450 O.2   173  ARG173     -0.2867
    165  CB        -8.4370    3.6490  -23.0680 C.3   173  ARG173      0.0307
    166  CG        -8.1900    2.5740  -24.0980 C.3   173  ARG173      0.0489
    167  CD        -8.8990    2.8040  -25.4230 C.3   173  ARG173      0.2205
    168  NE        -8.3010    1.9810  -26.4820 N.pl3 173  ARG173     -0.0865
    169  CZ        -8.6270    0.7180  -26.7550 C.cat 173  ARG173      0.5346
    170  NH1       -9.5770    0.1070  -26.0640 N.pl3 173  ARG173      0.1354
    171  NH2       -8.0000    0.0580  -27.7210 N.pl3 173  ARG173      0.1354
@<TRIPOS>BOND
     1    16    15    2
     2    15    14    1
     3   103   102    2
     4    14    17    1
     5    14    13    1
     6     4     3    2
     7   108   109    1
     8    17    18    1
     9   102   101    1
    10    10     9    2
    11    41    42    1
    12    13     9   am
    13     9     8    1
    14   110   111    2
    15   110   109    1
    16     3     2    1
    17     3     7   am
    18   109   112    1
    19     2     5    1
    20     2     1    1
    21     5     6    1
    22    19    18    1
    23    18    20    1
    24    48    47   ar
    25    42    45    1
    26    42    43    1
    27   101   104    1
    28   101   100    1
    29    46    47    1
    30    46    45    1
    31     8     7    1
    32     8    11    1
    33    64    63    1
    34   104   105    1
    35    47    49   ar
    36   171   169    1
    37    43    44    2
    38   112   113    1
    39   118   119    1
    40    30    31   ar
    41    30    28   ar
    42    31    29   ar
    43    50    51    1
    44    11    12    1
    45   169   168    2
    46   169   170    1
    47   107   105    1
    48    63    65    1
    49    63    62    1
    50   105   106    1
    51   168   167    1
    52    58    59    1
    53   113   114   ar
    54   113   115   ar
    55   119   122    1
    56   119   120    1
    57   114   116   ar
    58   122   123    1
    59    28    26   ar
    60    29    27   ar
    61    62    59    1
    62    59    60    1
    63    51    52    1
    64    51    54    1
    65   167   166    1
    66   115   117   ar
    67   116   117   ar
    68    52    53    2
    69   120   121    2
    70   123   124   ar
    71   123   125   ar
    72    27    26   ar
    73    26    25    1
    74    55    54    1
    75    55    57    1
    76    55    56    1
    77    60    61    2
    78   166   165    1
    79    25    22    1
    80   165   162    1
    81    73    71    1
    82    87    88    1
    83    87    86    1
    84    22    21    1
    85    22    23    1
    86    71    70    1
    87   133   131    1
    88    40    39    1
    89   132   130    1
    90    72    70    1
    91    24    23    2
    92    86    85    1
    93   162   161    1
    94   162   163    1
    95   144   143   ar
    96    70    67    1
    97   160   159    2
    98   145   143   ar
    99   158   159    1
   100   158   157    1
   101   130   131    1
   102   130   127    1
   103    39    38    1
   104   164   163    2
   105   143   142    1
   106    85    82    1
   107   157   148   am
   108    38    37    1
   109    99    98   ar
   110    99    97   ar
   111    67    66    1
   112    67    68    1
   113    98    96   ar
   114   141   140    2
   115   129   128    2
   116   127   128    1
   117   127   126    1
   118   128   134   am
   119   135   134    1
   120   135   136    1
   121    82    81    1
   122    82    83    1
   123   142   139    1
   124   148   149    2
   125   148   147    1
   126   138   136   am
   127   138   139    1
   128    77    76    2
   129    97    95   ar
   130    68    69    2
   131    68    74   am
   132    37    36    1
   133   140   139    1
   134   140   146   am
   135   136   137    2
   136    74    75    1
   137   147   146    1
   138   147   150    1
   139    96    94   ar
   140    35    34    2
   141    36    33    1
   142    76    75    1
   143    83    84    2
   144    95    94   ar
   145    34    33    1
   146    75    78    1
   147    94    93    1
   148    78    80    1
   149    78    79    1
   150   150   151    1
   151    33    32    1
   152   153   151   ar
   153   153   155   ar
   154   151   152   ar
   155    93    90    1
   156   155   156   ar
   157    89    90    1
   158    90    91    1
   159   152   154   ar
   160   156   154   ar
   161    91    92    2
