@<TRIPOS>MOLECULE
tmp/5kmoA00.pdb
 178 171 0 0 0
SMALL
GASTEIGER

@<TRIPOS>ATOM
      1  N        -18.2170    3.0820   -9.0370 N.3    17  LEU17      -0.1231
      2  CA       -17.2270    2.0020   -8.9750 C.3    17  LEU17       0.1693
      3  C        -16.0610    2.3610   -9.9280 C.2    17  LEU17       0.2593
      4  O        -14.8940    2.3320   -9.5280 O.2    17  LEU17      -0.2718
      5  CB       -17.8320    0.6330   -9.3590 C.3    17  LEU17       0.0284
      6  CG       -18.9340    0.0120   -8.4910 C.3    17  LEU17       0.0019
      7  CD1      -19.6000   -1.1310   -9.2120 C.3    17  LEU17       0.0001
      8  CD2      -18.4060   -0.5010   -7.1950 C.3    17  LEU17       0.0001
      9  N        -16.3990    2.7160  -11.1650 N.am   18  GLY18      -0.1942
     10  CA       -15.4330    3.0840  -12.1940 C.3    18  GLY18       0.2014
     11  C        -15.8800    4.2210  -13.0940 C.2    18  GLY18       0.2638
     12  O        -17.0160    4.7030  -12.9870 O.2    18  GLY18      -0.2714
     13  N        -14.9800    4.6770  -13.9820 N.am   19  GLU19      -0.1977
     14  CA       -15.2800    5.7760  -14.9070 C.3    19  GLU19       0.1602
     15  C        -14.4880    5.6300  -16.1920 C.2    19  GLU19       0.2287
     16  O        -13.4630    4.9440  -16.2020 O.2    19  GLU19      -0.2864
     17  CB       -15.0110    7.1530  -14.2510 C.3    19  GLU19       0.0415
     18  CG       -13.5680    7.3250  -13.8120 C.3    19  GLU19       0.1163
     19  CD       -13.3070    8.6510  -13.1210 C.2    19  GLU19       0.3649
     20  OE1      -14.2900    9.4200  -12.9130 O.co2  19  GLU19      -0.2457
     21  OE2      -12.1410    8.9420  -12.7940 O.co2  19  GLU19      -0.2457
     22  N        -19.3380    3.9320  -14.3550 N.3    25  VAL25      -0.1245
     23  CA       -20.0260    2.7830  -13.7350 C.3    25  VAL25       0.1561
     24  C        -20.4270    3.0310  -12.2620 C.2    25  VAL25       0.2260
     25  O        -19.6470    3.5520  -11.4550 O.2    25  VAL25      -0.2867
     26  CB       -19.2030    1.4660  -13.9390 C.3    25  VAL25       0.0252
     27  CG1      -19.8550    0.2440  -13.2860 C.3    25  VAL25       0.0019
     28  CG2      -18.9960    1.2050  -15.4290 C.3    25  VAL25       0.0019
     29  N        -24.1600   -3.5340  -11.7380 N.3    43  ALA43      -0.1245
     30  CA       -23.2070   -2.5000  -12.1230 C.3    43  ALA43       0.1562
     31  C        -23.8700   -1.8120  -13.3170 C.2    43  ALA43       0.2260
     32  O        -24.1290   -2.4400  -14.3510 O.2    43  ALA43      -0.2867
     33  CB       -21.8660   -3.1020  -12.5130 C.3    43  ALA43       0.0290
     34  N        -23.9910    1.2160  -16.1140 N.3    45  LYS45      -0.1245
     35  CA       -23.1520    2.0870  -16.9120 C.3    45  LYS45       0.1561
     36  C        -24.0360    3.1590  -17.5560 C.2    45  LYS45       0.2260
     37  O        -24.9110    2.8380  -18.3610 O.2    45  LYS45      -0.2867
     38  CB       -22.3400    1.2860  -17.9540 C.3    45  LYS45       0.0271
     39  CG       -21.4120    2.1500  -18.7870 C.3    45  LYS45       0.0035
     40  CD       -20.7010    1.3570  -19.8560 C.3    45  LYS45       0.0206
     41  CE       -19.8430    2.2780  -20.7010 C.3    45  LYS45       0.1093
     42  NZ       -18.9340    1.5300  -21.6180 N.3    45  LYS45      -0.1314
     43  N        -19.0660  -11.8060  -18.9020 N.3    71  VAL71      -0.1245
     44  CA       -19.7330  -10.8840  -17.9750 C.3    71  VAL71       0.1561
     45  C        -21.1980  -10.7930  -18.4040 C.2    71  VAL71       0.2260
     46  O        -21.4960  -10.4260  -19.5550 O.2    71  VAL71      -0.2867
     47  CB       -19.0640   -9.4860  -17.9190 C.3    71  VAL71       0.0252
     48  CG1      -19.9540   -8.4680  -17.2210 C.3    71  VAL71       0.0019
     49  CG2      -17.7080   -9.5550  -17.2320 C.3    71  VAL71       0.0019
     50  N        -25.4070   -4.4750  -15.9510 N.3    87  PHE87      -0.1227
     51  CA       -24.5820   -5.6800  -15.9380 C.3    87  PHE87       0.1736
     52  C        -24.4530   -6.2620  -14.5250 C.2    87  PHE87       0.2598
     53  O        -24.7990   -5.5880  -13.5410 O.2    87  PHE87      -0.2717
     54  CB       -23.1720   -5.3050  -16.3860 C.3    87  PHE87       0.0547
     55  CG       -22.9710   -4.6750  -17.7350 C.ar   87  PHE87      -0.0202
     56  CD1      -22.9420   -3.2910  -17.8720 C.ar   87  PHE87      -0.0042
     57  CD2      -22.6770   -5.4560  -18.8420 C.ar   87  PHE87      -0.0042
     58  CE1      -22.6820   -2.6980  -19.1140 C.ar   87  PHE87      -0.0003
     59  CE2      -22.4080   -4.8730  -20.0790 C.ar   87  PHE87      -0.0003
     60  CZ       -22.4150   -3.4950  -20.2130 C.ar   87  PHE87      -0.0000
     61  N        -23.8910   -7.4930  -14.4200 N.am   88  GLU88      -0.1920
     62  CA       -23.6910   -8.1110  -13.1120 C.3    88  GLU88       0.1949
     63  C        -22.5740   -7.4540  -12.3430 C.2    88  GLU88       0.2659
     64  O        -21.5950   -7.0170  -12.9480 O.2    88  GLU88      -0.2711
     65  CB       -23.5030   -9.6390  -13.2120 C.2    88  GLU88       0.0111
     66  CG       -22.1790  -10.1070  -13.7830 C.2    88  GLU88       0.0838
     67  CD       -21.9830  -11.6090  -13.8260 C.2    88  GLU88       0.3877
     68  OE1      -22.2270  -12.2940  -12.8070 O.co2  88  GLU88      -0.2406
     69  OE2      -21.5690  -12.0960  -14.8970 O.co2  88  GLU88      -0.2406
     70  N        -22.7400   -7.3470  -11.0150 N.am   89  TYR89      -0.1957
     71  CA       -21.7090   -6.7660  -10.1510 C.3    89  TYR89       0.1771
     72  C        -20.7230   -7.8810   -9.7750 C.2    89  TYR89       0.2619
     73  O        -21.1470   -8.9950   -9.5070 O.2    89  TYR89      -0.2715
     74  CB       -22.3160   -6.1050   -8.9040 C.3    89  TYR89       0.0574
     75  CG       -21.2630   -5.7210   -7.8900 C.ar   89  TYR89      -0.0198
     76  CD1      -20.2740   -4.7900   -8.2000 C.ar   89  TYR89      -0.0009
     77  CD2      -21.2340   -6.3070   -6.6280 C.ar   89  TYR89      -0.0009
     78  CE1      -19.2950   -4.4390   -7.2770 C.ar   89  TYR89       0.0417
     79  CE2      -20.2520   -5.9660   -5.6960 C.ar   89  TYR89       0.0417
     80  CZ       -19.2960   -5.0220   -6.0240 C.ar   89  TYR89       0.1957
     81  OH       -18.3340   -4.6670   -5.1310 O.3    89  TYR89      -0.2866
     82  N        -19.4320   -7.5970   -9.7780 N.am   90  MET90      -0.1963
     83  CA       -18.3680   -8.5550   -9.4860 C.3    90  MET90       0.1736
     84  C        -17.5540   -8.0340   -8.3180 C.2    90  MET90       0.2616
     85  O        -16.7240   -7.1520   -8.5000 O.2    90  MET90      -0.2715
     86  CB       -17.4780   -8.7220  -10.7280 C.3    90  MET90       0.0427
     87  CG       -18.2480   -9.1650  -11.9790 C.3    90  MET90       0.0599
     88  SD       -18.7760  -10.8840  -11.8750 S.3    90  MET90      -0.1393
     89  CE       -17.3970  -11.7180  -12.6560 C.3    90  MET90       0.0692
     90  N        -17.8130   -8.5710   -7.1160 N.am   91  ARG91      -0.1963
     91  CA       -17.2020   -8.2150   -5.8330 C.3    91  ARG91       0.1729
     92  C        -15.7060   -7.8590   -5.8590 C.2    91  ARG91       0.2616
     93  O        -15.3340   -6.9310   -5.1500 O.2    91  ARG91      -0.2715
     94  CB       -17.4240   -9.3610   -4.8070 C.3    91  ARG91       0.0348
     95  CG       -17.0960   -9.0240   -3.3410 C.3    91  ARG91       0.0492
     96  CD       -17.1340  -10.2510   -2.4380 C.3    91  ARG91       0.2205
     97  NE       -18.3310  -10.2750   -1.5940 N.pl3  91  ARG91      -0.0865
     98  CZ       -19.5040  -10.7970   -1.9510 C.cat  91  ARG91       0.5346
     99  NH1      -19.6640  -11.3310   -3.1560 N.pl3  91  ARG91       0.1354
    100  NH2      -20.5360  -10.7550   -1.1200 N.pl3  91  ARG91       0.1354
    101  N        -14.8510   -8.6070   -6.6120 N.am   92  HIS92      -0.1959
    102  CA       -13.3930   -8.3830   -6.5920 C.3    92  HIS92       0.1787
    103  C        -12.8310   -7.4280   -7.6450 C.2    92  HIS92       0.2621
    104  O        -11.6090   -7.2100   -7.6730 O.2    92  HIS92      -0.2715
    105  CB       -12.6200   -9.7050   -6.6410 C.3    92  HIS92       0.0785
    106  CG       -12.9770  -10.6270   -5.5220 C.ar   92  HIS92       0.0821
    107  ND1      -12.5540  -10.3910   -4.2240 N.ar   92  HIS92      -0.2267
    108  CD2      -13.7360  -11.7470   -5.5370 C.ar   92  HIS92       0.1154
    109  CE1      -13.0590  -11.3670   -3.4980 C.ar   92  HIS92       0.1986
    110  NE2      -13.7840  -12.2010   -4.2420 N.ar   92  HIS92      -0.2212
    111  N        -13.6930   -6.8420   -8.4720 N.am   93  GLY93      -0.1940
    112  CA       -13.2410   -5.9010   -9.4870 C.3    93  GLY93       0.2014
    113  C        -12.5550   -6.5690  -10.6530 C.2    93  GLY93       0.2638
    114  O        -12.8400   -7.7200  -10.9540 O.2    93  GLY93      -0.2714
    115  N        -11.6820   -5.8630  -11.3410 N.am   94  ASP94      -0.1971
    116  CA       -11.0670   -6.4300  -12.5220 C.3    94  ASP94       0.1709
    117  C         -9.9210   -7.3830  -12.1570 C.2    94  ASP94       0.2293
    118  O         -9.3160   -7.2540  -11.1010 O.2    94  ASP94      -0.2864
    119  CB       -10.6830   -5.3320  -13.5500 C.3    94  ASP94       0.1436
    120  CG        -9.3870   -4.5760  -13.2980 C.2    94  ASP94       0.3671
    121  OD1       -9.4270   -3.3280  -13.1760 O.co2  94  ASP94      -0.2456
    122  OD2       -8.3410   -5.2120  -13.2430 O.co2  94  ASP94      -0.2456
    123  N         -6.2100   -5.7960  -11.0610 N.3    97  ARG97      -0.1245
    124  CA        -6.0830   -5.3070   -9.6950 C.3    97  ARG97       0.1563
    125  C         -6.1260   -6.4660   -8.7100 C.2    97  ARG97       0.2260
    126  O         -5.4230   -6.4400   -7.7080 O.2    97  ARG97      -0.2867
    127  CB        -7.1760   -4.2640   -9.3800 C.3    97  ARG97       0.0307
    128  CG        -6.9580   -2.9130  -10.0880 C.3    97  ARG97       0.0489
    129  CD        -8.0220   -1.9050   -9.6890 C.3    97  ARG97       0.2205
    130  NE        -9.3610   -2.3640  -10.0630 N.pl3  97  ARG97      -0.0865
    131  CZ       -10.3460   -2.6600   -9.2150 C.cat  97  ARG97       0.5346
    132  NH1      -10.1930   -2.4920   -7.9050 N.pl3  97  ARG97       0.1354
    133  NH2      -11.5060   -3.0820   -9.6880 N.pl3  97  ARG97       0.1354
    134  N         -7.1930   -6.6370  -17.4930 N.3   150  ARG150     -0.1245
    135  CA        -7.9310   -5.4340  -17.0790 C.3   150  ARG150      0.1563
    136  C         -9.3510   -5.4410  -17.6410 C.2   150  ARG150      0.2260
    137  O        -10.1710   -4.6190  -17.2180 O.2   150  ARG150     -0.2867
    138  CB        -7.1760   -4.1370  -17.4420 C.3   150  ARG150      0.0307
    139  CG        -7.1070   -3.9900  -18.9140 C.3   150  ARG150      0.0489
    140  CD        -6.3700   -2.8100  -19.4180 C.3   150  ARG150      0.2205
    141  NE        -6.4500   -2.8580  -20.8780 N.pl3 150  ARG150     -0.0865
    142  CZ        -5.5330   -3.4020  -21.6620 C.cat 150  ARG150      0.5346
    143  NH1       -4.4260   -3.9140  -21.1430 N.pl3 150  ARG150      0.1354
    144  NH2       -5.7080   -3.4280  -22.9730 N.pl3 150  ARG150      0.1354
    145  N        -13.3250   -9.7070  -15.1350 N.3   153  LEU153     -0.1245
    146  CA       -13.7980   -9.4270  -13.7780 C.3   153  LEU153      0.1561
    147  C        -13.7500  -10.6750  -12.8940 C.2   153  LEU153      0.2260
    148  O        -13.8380  -11.7940  -13.3960 O.2   153  LEU153     -0.2867
    149  CB       -15.2080   -8.7940  -13.7840 C.3   153  LEU153      0.0270
    150  CG       -15.3270   -7.4250  -14.4520 C.3   153  LEU153      0.0019
    151  CD1      -16.7460   -7.0920  -14.7130 C.3   153  LEU153      0.0001
    152  CD2      -14.6850   -6.3150  -13.6190 C.3   153  LEU153      0.0001
    153  N        -14.2140   -3.0150  -21.2660 N.3   165  PHE165     -0.1227
    154  CA       -14.5280   -1.6870  -20.7060 C.3   165  PHE165      0.1736
    155  C        -13.6320   -0.4950  -21.1960 C.2   165  PHE165      0.2596
    156  O        -12.8430   -0.6240  -22.1450 O.2   165  PHE165     -0.2718
    157  CB       -14.5340   -1.7630  -19.1510 C.3   165  PHE165      0.0547
    158  CG       -14.6960   -3.1680  -18.6110 C.ar  165  PHE165     -0.0202
    159  CD1      -15.8680   -3.8840  -18.8250 C.ar  165  PHE165     -0.0042
    160  CD2      -13.6670   -3.7840  -17.9120 C.ar  165  PHE165     -0.0042
    161  CE1      -15.9960   -5.1930  -18.3640 C.ar  165  PHE165     -0.0003
    162  CE2      -13.8140   -5.0850  -17.4200 C.ar  165  PHE165     -0.0003
    163  CZ       -14.9730   -5.7810  -17.6590 C.ar  165  PHE165     -0.0000
    164  N        -13.8200    0.6520  -20.5300 N.am  166  GLY166     -0.1957
    165  CA       -13.1520    1.9270  -20.7720 C.3   166  GLY166      0.1869
    166  C        -13.9670    3.1010  -20.2530 C.2   166  GLY166      0.2309
    167  O        -14.6950    2.9890  -19.2560 O.2   166  GLY166     -0.2863
    168  N        -11.4220    0.9380  -17.8800 N.3   167  ARG167     -0.1245
    169  CA       -10.0440    1.3950  -18.1000 C.3   167  ARG167      0.1563
    170  C         -9.8090    2.8430  -17.5690 C.2   167  ARG167      0.2260
    171  O        -10.5390    3.2800  -16.6780 O.2   167  ARG167     -0.2867
    172  CB        -9.6450    1.2380  -19.5970 C.3   167  ARG167      0.0307
    173  CG       -10.2840    2.2240  -20.5480 C.3   167  ARG167      0.0489
    174  CD        -9.5380    2.1280  -21.8630 C.3   167  ARG167      0.2205
    175  NE       -10.0200    3.0320  -22.9040 N.pl3 167  ARG167     -0.0865
    176  CZ        -9.2300    3.5700  -23.8340 C.cat 167  ARG167      0.5346
    177  NH1       -7.9210    3.3120  -23.8220 N.pl3 167  ARG167      0.1354
    178  NH2       -9.7460    4.3810  -24.7630 N.pl3 167  ARG167      0.1354
@<TRIPOS>BOND
     1   178   176    1
     2   176   177    1
     3   176   175    2
     4   144   142    1
     5   175   174    1
     6   156   155    2
     7   174   173    1
     8   142   143    1
     9   142   141    2
    10    42    41    1
    11   153   154    1
    12   155   154    1
    13   155   164   am
    14   141   140    1
    15   165   164    1
    16   165   166    1
    17   154   157    1
    18    41    40    1
    19   173   172    1
    20   166   167    2
    21    60    59   ar
    22    60    58   ar
    23    59    57   ar
    24    40    39    1
    25   172   169    1
    26    46    45    2
    27   140   139    1
    28   157   158    1
    29    58    56   ar
    30   139   138    1
    31    43    44    1
    32    57    55   ar
    33   159   158   ar
    34   159   161   ar
    35    39    38    1
    36   158   160   ar
    37    45    44    1
    38   161   163   ar
    39    37    36    2
    40   169   168    1
    41   169   170    1
    42    44    47    1
    43    38    35    1
    44    47    49    1
    45    47    48    1
    46   160   162   ar
    47    56    55   ar
    48    55    54    1
    49   163   162   ar
    50   136   137    2
    51   136   135    1
    52   170   171    2
    53    36    35    1
    54   134   135    1
    55   138   135    1
    56    35    34    1
    57    54    51    1
    58    16    15    2
    59    15    14    1
    60    50    51    1
    61    51    52    1
    62    28    26    1
    63   145   146    1
    64    14    17    1
    65    14    13    1
    66    69    67   ar
    67   151   150    1
    68    52    61   am
    69    52    53    2
    70   150   149    1
    71   150   152    1
    72    61    62    1
    73    22    23    1
    74    32    31    2
    75    17    18    1
    76    13    11   am
    77    26    23    1
    78    26    27    1
    79    67    66    1
    80    67    68   ar
    81    18    19    1
    82   149   146    1
    83    66    65    2
    84   146   147    1
    85    23    24    1
    86   119   120    1
    87   119   116    1
    88   148   147    2
    89    31    30    1
    90   120   122   ar
    91   120   121   ar
    92    65    62    1
    93    19    20   ar
    94    19    21   ar
    95    62    63    1
    96    11    12    2
    97    11    10    1
    98    64    63    2
    99    89    88    1
   100   116   117    1
   101   116   115    1
   102    33    30    1
   103    63    70   am
   104    24    25    2
   105    10     9    1
   106   117   118    2
   107    30    29    1
   108    87    88    1
   109    87    86    1
   110   115   113   am
   111     9     3   am
   112   123   124    1
   113    70    71    1
   114   114   113    2
   115    86    83    1
   116   113   112    1
   117    71    72    1
   118    71    74    1
   119   128   129    1
   120   128   127    1
   121   130   129    1
   122   130   131    2
   123     3     4    2
   124     3     2    1
   125    82    72   am
   126    82    83    1
   127    72    73    2
   128   124   127    1
   129   124   125    1
   130   133   131    1
   131   112   111    1
   132    83    84    1
   133     5     2    1
   134     5     6    1
   135   131   132    1
   136     7     6    1
   137     1     2    1
   138    74    75    1
   139   125   126    2
   140    85    84    2
   141     6     8    1
   142   111   103   am
   143    84    90   am
   144    76    75   ar
   145    76    78   ar
   146    75    77   ar
   147   104   103    2
   148   103   102    1
   149    78    80   ar
   150    90    91    1
   151   105   102    1
   152   105   106    1
   153    77    79   ar
   154   101   102    1
   155   101    92   am
   156    80    79   ar
   157    80    81    1
   158    92    91    1
   159    92    93    2
   160    91    94    1
   161   108   106   ar
   162   108   110   ar
   163   106   107   ar
   164    94    95    1
   165   110   109   ar
   166   107   109   ar
   167    95    96    1
   168    99    98    1
   169    96    97    1
   170    98    97    2
   171    98   100    1
