@<TRIPOS>MOLECULE
tmp/5knbC00.pdb
 145 142 0 0 0
SMALL
GASTEIGER

@<TRIPOS>ATOM
      1  N        -54.1210    4.1400  -65.0380 N.3   213  GLN213     -0.1245
      2  CA       -52.7540    4.2550  -64.5540 C.3   213  GLN213      0.1566
      3  C        -52.0000    2.9560  -64.8280 C.2   213  GLN213      0.2260
      4  O        -52.3340    1.9060  -64.2790 O.2   213  GLN213     -0.2867
      5  CB       -52.7370    4.5950  -63.0630 C.3   213  GLN213      0.0367
      6  CG       -53.5920    5.8020  -62.6970 C.3   213  GLN213      0.0905
      7  CD       -53.2320    7.0420  -63.4950 C.2   213  GLN213      0.2608
      8  OE1      -53.9110    7.3900  -64.4630 O.2   213  GLN213     -0.2717
      9  NE2      -52.1640    7.7200  -63.0890 N.am  213  GLN213     -0.0878
     10  N        -46.9120   12.9030  -47.0210 N.3   234  PHE234     -0.1227
     11  CA       -47.4930   14.0350  -47.7320 C.3   234  PHE234      0.1736
     12  C        -46.6490   14.4160  -48.9450 C.2   234  PHE234      0.2596
     13  O        -45.4300   14.5570  -48.8500 O.2   234  PHE234     -0.2718
     14  CB       -47.6660   15.2380  -46.7960 C.3   234  PHE234      0.0547
     15  CG       -46.3860   15.7310  -46.1800 C.ar  234  PHE234     -0.0202
     16  CD1      -45.9000   15.1670  -45.0120 C.ar  234  PHE234     -0.0042
     17  CD2      -45.6830   16.7780  -46.7550 C.ar  234  PHE234     -0.0042
     18  CE1      -44.7280   15.6250  -44.4390 C.ar  234  PHE234     -0.0003
     19  CE2      -44.5120   17.2390  -46.1880 C.ar  234  PHE234     -0.0003
     20  CZ       -44.0340   16.6630  -45.0280 C.ar  234  PHE234     -0.0000
     21  N        -47.3090   14.5610  -50.0890 N.am  235  GLY235     -0.1942
     22  CA       -46.6340   14.9430  -51.3150 C.3   235  GLY235      0.2014
     23  C        -46.3540   13.7800  -52.2440 C.2   235  GLY235      0.2639
     24  O        -45.7410   13.9520  -53.2970 O.2   235  GLY235     -0.2714
     25  N        -46.8070   12.5910  -51.8580 N.am  236  ALA236     -0.1963
     26  CA       -46.5620   11.3890  -52.6480 C.3   236  ALA236      0.1728
     27  C        -47.5880   11.2330  -53.7710 C.2   236  ALA236      0.2617
     28  O        -47.3440   10.5270  -54.7510 O.2   236  ALA236     -0.2715
     29  CB       -46.5640   10.1620  -51.7510 C.3   236  ALA236      0.0334
     30  N        -48.7330   11.8930  -53.6170 N.am  237  GLY237     -0.1940
     31  CA       -49.7600   11.9030  -54.6440 C.3   237  GLY237      0.2014
     32  C        -50.9260   10.9690  -54.3820 C.2   237  GLY237      0.2639
     33  O        -51.5190   10.4300  -55.3170 O.2   237  GLY237     -0.2714
     34  N        -51.2570   10.7800  -53.1090 N.am  238  LYS238     -0.1963
     35  CA       -52.3620    9.9090  -52.7260 C.3   238  LYS238      0.1728
     36  C        -53.6970   10.4360  -53.2490 C.2   238  LYS238      0.2617
     37  O        -54.5250    9.6710  -53.7440 O.2   238  LYS238     -0.2715
     38  CB       -52.4160    9.7580  -51.2060 C.3   238  LYS238      0.0311
     39  CG       -51.1330    9.2330  -50.5900 C.3   238  LYS238      0.0038
     40  CD       -51.3010    9.0050  -49.1000 C.3   238  LYS238      0.0206
     41  CE       -51.7370   10.2780  -48.3920 C.3   238  LYS238      0.1093
     42  NZ       -50.7300   11.3660  -48.5280 N.3   238  LYS238     -0.1314
     43  N        -53.8990   11.7460  -53.1380 N.am  239  THR239     -0.1937
     44  CA       -55.1300   12.3760  -53.6050 C.3   239  THR239      0.2028
     45  C        -55.1940   12.3860  -55.1290 C.2   239  THR239      0.2642
     46  O        -56.2500   12.1460  -55.7180 O.2   239  THR239     -0.2714
     47  CB       -55.2610   13.8200  -53.0780 C.3   239  THR239      0.1808
     48  OG1      -55.2790   13.8080  -51.6450 O.3   239  THR239     -0.2208
     49  CG2      -56.5380   14.4700  -53.5900 C.3   239  THR239      0.0379
     50  N        -54.0570   12.6630  -55.7600 N.am  240  VAL240     -0.1963
     51  CA       -53.9580   12.6730  -57.2150 C.3   240  VAL240      0.1727
     52  C        -54.3760   11.3300  -57.8010 C.2   240  VAL240      0.2616
     53  O        -55.1660   11.2750  -58.7430 O.2   240  VAL240     -0.2715
     54  CB       -52.5270   13.0090  -57.6820 C.3   240  VAL240      0.0290
     55  CG1      -52.3760   12.7620  -59.1750 C.3   240  VAL240      0.0023
     56  CG2      -52.1780   14.4490  -57.3330 C.3   240  VAL240      0.0023
     57  N        -53.8480   10.2520  -57.2290 N.am  241  VAL241     -0.1977
     58  CA       -54.1780    8.9000  -57.6670 C.3   241  VAL241      0.1596
     59  C        -55.6780    8.6380  -57.5840 C.2   241  VAL241      0.2287
     60  O        -56.2890    8.1700  -58.5450 O.2   241  VAL241     -0.2864
     61  CB       -53.4310    7.8380  -56.8320 C.3   241  VAL241      0.0276
     62  CG1      -54.0150    6.4550  -57.0750 C.3   241  VAL241      0.0022
     63  CG2      -51.9470    7.8590  -57.1550 C.3   241  VAL241      0.0022
     64  N        -57.8990   18.7750  -47.2950 N.3   262  ARG262     -0.1245
     65  CA       -58.0410   20.1480  -47.7870 C.3   262  ARG262      0.1563
     66  C        -59.3590   20.4580  -48.4890 C.2   262  ARG262      0.2260
     67  O        -59.9380   19.6070  -49.1650 O.2   262  ARG262     -0.2867
     68  CB       -56.8840   20.4710  -48.7310 C.3   262  ARG262      0.0307
     69  CG       -55.5290   20.2970  -48.0830 C.3   262  ARG262      0.0489
     70  CD       -54.3950   20.4710  -49.0700 C.3   262  ARG262      0.2205
     71  NE       -53.1150   20.1790  -48.4360 N.pl3 262  ARG262     -0.0865
     72  CZ       -52.5860   18.9640  -48.3530 C.cat 262  ARG262      0.5346
     73  NH1      -53.2230   17.9250  -48.8740 N.pl3 262  ARG262      0.1354
     74  NH2      -51.4190   18.7870  -47.7500 N.pl3 262  ARG262      0.1354
     75  N        -59.2690   20.9320  -52.5030 N.3   265  GLU265     -0.1245
     76  CA       -59.2970   19.6540  -53.2010 C.3   265  GLU265      0.1567
     77  C        -60.7140   19.2710  -53.6170 C.2   265  GLU265      0.2260
     78  O        -60.9070   18.5750  -54.6110 O.2   265  GLU265     -0.2867
     79  CB       -58.6960   18.5530  -52.3260 C.3   265  GLU265      0.0388
     80  CG       -57.2100   18.7130  -52.0580 C.3   265  GLU265      0.1160
     81  CD       -56.6230   17.5210  -51.3300 C.2   265  GLU265      0.3649
     82  OE1      -57.3730   16.5550  -51.0730 O.co2 265  GLU265     -0.2457
     83  OE2      -55.4140   17.5490  -51.0170 O.co2 265  GLU265     -0.2457
     84  N        -39.5740   13.1290  -58.9240 N.3   423  ARG423     -0.1245
     85  CA       -40.7780   13.4010  -59.7040 C.3   423  ARG423      0.1563
     86  C        -41.1480   12.1840  -60.5470 C.2   423  ARG423      0.2260
     87  O        -41.6080   12.3100  -61.6810 O.2   423  ARG423     -0.2867
     88  CB       -40.6000   14.6440  -60.5830 C.3   423  ARG423      0.0307
     89  CG       -41.2510   15.8960  -60.0120 C.3   423  ARG423      0.0489
     90  CD       -40.8710   16.1010  -58.5540 C.3   423  ARG423      0.2205
     91  NE       -41.6450   17.1670  -57.9240 N.pl3 423  ARG423     -0.0865
     92  CZ       -41.5510   17.4990  -56.6400 C.cat 423  ARG423      0.5346
     93  NH1      -40.7120   16.8480  -55.8460 N.pl3 423  ARG423      0.1354
     94  NH2      -42.2920   18.4830  -56.1510 N.pl3 423  ARG423      0.1354
     95  N        -43.7020   10.0490  -61.1300 N.3   425  PHE425     -0.1228
     96  CA       -45.1390    9.9900  -60.8970 C.3   425  PHE425      0.1721
     97  C        -45.8320    9.0250  -61.8540 C.2   425  PHE425      0.2437
     98  O        -45.5380    9.0160  -63.0490 O.2   425  PHE425     -0.2733
     99  CB       -45.7460   11.3850  -61.0250 C.3   425  PHE425      0.0547
    100  CG       -45.4130   12.2980  -59.8800 C.ar  425  PHE425     -0.0202
    101  CD1      -45.4150   11.8260  -58.5780 C.ar  425  PHE425     -0.0042
    102  CD2      -45.0870   13.6240  -60.1060 C.ar  425  PHE425     -0.0042
    103  CE1      -45.1070   12.6630  -57.5220 C.ar  425  PHE425     -0.0003
    104  CE2      -44.7810   14.4680  -59.0560 C.ar  425  PHE425     -0.0003
    105  CZ       -44.7890   13.9860  -57.7610 C.ar  425  PHE425     -0.0000
    106  N        -46.7560    8.2040  -61.3270 N.am  426  PRO426     -0.2729
    107  CA       -47.1140    8.1520  -59.9040 C.3   426  PRO426      0.1401
    108  C        -46.1130    7.3350  -59.0850 C.2   426  PRO426      0.2269
    109  O        -45.6240    6.3060  -59.5520 O.2   426  PRO426     -0.2865
    110  CB       -48.4930    7.4920  -59.9200 C.3   426  PRO426      0.0296
    111  CG       -48.4640    6.6160  -61.1220 C.3   426  PRO426      0.0237
    112  CD       -47.6040    7.3140  -62.1420 C.3   426  PRO426      0.0939
    113  N        -46.1090    7.8470  -65.2550 N.3   503  GLN503     -0.1231
    114  CA       -47.3470    8.2800  -65.8840 C.3   503  GLN503      0.1698
    115  C        -47.8360    9.6070  -65.3200 C.2   503  GLN503      0.2592
    116  O        -48.5680    9.6450  -64.3310 O.2   503  GLN503     -0.2718
    117  CB       -48.4240    7.2120  -65.7140 C.3   503  GLN503      0.0381
    118  CG       -49.6960    7.4800  -66.4890 C.3   503  GLN503      0.0905
    119  CD       -50.5720    6.2530  -66.5700 C.2   503  GLN503      0.2608
    120  OE1      -50.1890    5.1810  -66.1070 O.2   503  GLN503     -0.2717
    121  NE2      -51.7520    6.3990  -67.1610 N.am  503  GLN503     -0.0878
    122  N        -47.4190   10.6930  -65.9580 N.am  504  ASN504     -0.1960
    123  CA       -47.8810   12.0180  -65.5920 C.3   504  ASN504      0.1819
    124  C        -49.3840   12.1420  -65.8380 C.2   504  ASN504      0.2621
    125  O        -49.8960   11.6880  -66.8610 O.2   504  ASN504     -0.2715
    126  CB       -47.1000   13.0710  -66.3750 C.3   504  ASN504      0.1195
    127  CG       -47.5880   14.4710  -66.1160 C.2   504  ASN504      0.2630
    128  OD1      -48.4300   14.9810  -66.8480 O.2   504  ASN504     -0.2716
    129  ND2      -47.0550   15.1080  -65.0790 N.am  504  ASN504     -0.0877
    130  N        -50.0880   12.7420  -64.8860 N.am  505  ALA505     -0.1963
    131  CA       -51.5430   12.8100  -64.9360 C.3   505  ALA505      0.1728
    132  C        -52.0070   14.1710  -65.4370 C.2   505  ALA505      0.2616
    133  O        -53.1830   14.5240  -65.2760 O.2   505  ALA505     -0.2715
    134  CB       -52.1290   12.5260  -63.5620 C.3   505  ALA505      0.0334
    135  N        -51.0830   14.9270  -66.0400 N.am  506  PHE506     -0.1974
    136  CA       -51.3130   16.3470  -66.3410 C.3   506  PHE506      0.1639
    137  C        -51.4570   16.5590  -67.8280 C.2   506  PHE506      0.2290
    138  O        -52.2100   17.4290  -68.2580 O.2   506  PHE506     -0.2864
    139  CB       -50.1740   17.2490  -65.7910 C.3   506  PHE506      0.0560
    140  CG       -50.1250   17.3280  -64.2870 C.ar  506  PHE506     -0.0200
    141  CD1      -49.7250   18.5370  -63.6400 C.ar  506  PHE506     -0.0042
    142  CD2      -50.5280   16.2310  -63.5110 C.ar  506  PHE506     -0.0042
    143  CE1      -49.7350   18.6390  -62.2550 C.ar  506  PHE506     -0.0003
    144  CE2      -50.5070   16.2850  -62.1550 C.ar  506  PHE506     -0.0003
    145  CZ       -50.0950   17.4440  -61.4970 C.ar  506  PHE506     -0.0000
@<TRIPOS>BOND
     1   138   137    2
     2   137   136    1
     3   121   119   am
     4   125   124    2
     5   128   127    2
     6   119   118    1
     7   119   120    2
     8   118   117    1
     9   126   127    1
    10   126   123    1
    11   136   135    1
    12   136   139    1
    13   127   129   am
    14   135   132   am
    15   122   123    1
    16   122   115   am
    17   114   117    1
    18   114   115    1
    19   114   113    1
    20   124   123    1
    21   124   130   am
    22   139   140    1
    23   132   133    2
    24   132   131    1
    25   115   116    2
    26     1     2    1
    27   131   130    1
    28   131   134    1
    29     3     2    1
    30     3     4    2
    31     2     5    1
    32     8     7    2
    33   140   141   ar
    34   140   142   ar
    35   141   143   ar
    36   142   144   ar
    37     7     9   am
    38     7     6    1
    39     5     6    1
    40    98    97    2
    41   143   145   ar
    42   144   145   ar
    43   112   106    1
    44   112   111    1
    45    97   106   am
    46    97    96    1
    47    87    86    2
    48   106   107    1
    49    95    96    1
    50   111   110    1
    51    99    96    1
    52    99   100    1
    53    88    89    1
    54    88    85    1
    55    86    85    1
    56   102   100   ar
    57   102   104   ar
    58    89    90    1
    59   110   107    1
    60   107   108    1
    61   100   101   ar
    62    85    84    1
    63   109   108    2
    64    55    54    1
    65   104   105   ar
    66    53    52    2
    67   101   103   ar
    68    90    91    1
    69    60    59    2
    70    91    92    2
    71    52    57   am
    72    52    51    1
    73   105   103   ar
    74    54    56    1
    75    54    51    1
    76    58    59    1
    77    58    57    1
    78    58    61    1
    79    51    50    1
    80    63    61    1
    81    62    61    1
    82    92    94    1
    83    92    93    1
    84    50    45   am
    85    46    45    2
    86    33    32    2
    87    45    44    1
    88    28    27    2
    89    31    32    1
    90    31    30    1
    91    78    77    2
    92    32    34   am
    93    27    30   am
    94    27    26    1
    95    37    36    2
    96    77    76    1
    97    44    43    1
    98    44    47    1
    99    49    47    1
   100    24    23    2
   101    36    43   am
   102    36    35    1
   103    76    75    1
   104    76    79    1
   105    34    35    1
   106    47    48    1
   107    35    38    1
   108    26    25    1
   109    26    29    1
   110    79    80    1
   111    23    25   am
   112    23    22    1
   113    80    81    1
   114    81    82   ar
   115    81    83   ar
   116    22    21    1
   117    38    39    1
   118    39    40    1
   119    21    12   am
   120    67    66    2
   121    40    41    1
   122    70    71    1
   123    70    69    1
   124    12    13    2
   125    12    11    1
   126    73    72    1
   127    68    69    1
   128    68    65    1
   129    42    41    1
   130    66    65    1
   131    71    72    2
   132    72    74    1
   133    65    64    1
   134    11    10    1
   135    11    14    1
   136    14    15    1
   137    17    19   ar
   138    17    15   ar
   139    19    20   ar
   140    15    16   ar
   141    20    18   ar
   142    16    18   ar
