@<TRIPOS>MOLECULE
tmp/5knkA02.pdb
 164 166 0 0 0
SMALL
GASTEIGER

@<TRIPOS>ATOM
      1  N          2.9060  -16.3000    1.9710 N.3    48  ASN48      -0.1240
      2  CA         2.2930  -17.6080    2.1700 C.3    48  ASN48       0.1653
      3  C          2.3440  -18.4240    0.8910 C.2    48  ASN48       0.2266
      4  O          2.6630  -19.6220    0.9220 O.2    48  ASN48      -0.2867
      5  CB         0.8560  -17.4420    2.6530 C.3    48  ASN48       0.1155
      6  CG         0.7940  -17.0570    4.0950 C.2    48  ASN48       0.2627
      7  OD1        1.7910  -17.1760    4.7920 O.2    48  ASN48      -0.2716
      8  ND2       -0.3680  -16.5950    4.5600 N.am   48  ASN48      -0.0877
      9  N        -10.5040  -13.6300   -2.0330 N.3    72  GLU72      -0.1245
     10  CA       -10.8080  -13.5900   -0.6100 C.3    72  GLU72       0.1567
     11  C        -11.6470  -12.3620   -0.2700 C.2    72  GLU72       0.2260
     12  O        -12.6420  -12.4640    0.4690 O.2    72  GLU72      -0.2867
     13  CB        -9.5280  -13.6280    0.2180 C.3    72  GLU72       0.0388
     14  CG        -9.8030  -13.8830    1.7100 C.3    72  GLU72       0.1160
     15  CD        -8.5390  -13.8750    2.5720 C.2    72  GLU72       0.3649
     16  OE1       -7.4180  -14.0150    2.0270 O.co2  72  GLU72      -0.2457
     17  OE2       -8.6760  -13.7630    3.8060 O.co2  72  GLU72      -0.2457
     18  N        -15.6090  -12.3490    1.2830 N.3    76  TYR76      -0.1241
     19  CA       -16.1190  -11.6790    2.4800 C.3    76  TYR76       0.1605
     20  C        -17.3360  -10.8060    2.1700 C.2    76  TYR76       0.2264
     21  O        -18.3030  -10.7810    2.9490 O.2    76  TYR76      -0.2867
     22  CB       -15.0080  -10.8770    3.1520 C.3    76  TYR76       0.0534
     23  CG       -14.1560  -11.7660    4.0260 C.ar   76  TYR76      -0.0201
     24  CD1      -14.6570  -12.2640    5.2210 C.ar   76  TYR76      -0.0009
     25  CD2      -12.8690  -12.1340    3.6510 C.ar   76  TYR76      -0.0009
     26  CE1      -13.9000  -13.0980    6.0290 C.ar   76  TYR76       0.0417
     27  CE2      -12.0950  -12.9730    4.4650 C.ar   76  TYR76       0.0417
     28  CZ       -12.6230  -13.4490    5.6480 C.ar   76  TYR76       0.1957
     29  OH       -11.8880  -14.2820    6.4710 O.3    76  TYR76      -0.2866
     30  N        -10.6430  -22.7220    5.3940 N.3   119  HIS119     -0.1241
     31  CA       -10.9650  -21.3340    5.0480 C.3   119  HIS119      0.1621
     32  C        -10.6200  -21.1230    3.5830 C.2   119  HIS119      0.2264
     33  O         -9.4950  -20.7380    3.2250 O.2   119  HIS119     -0.2867
     34  CB       -10.2150  -20.3330    5.9200 C.3   119  HIS119      0.0745
     35  CG       -10.6760  -20.2830    7.3430 C.ar  119  HIS119      0.0817
     36  ND1      -10.3050  -21.2260    8.2840 N.ar  119  HIS119     -0.2268
     37  CD2      -11.4510  -19.3800    7.9960 C.ar  119  HIS119      0.1154
     38  CE1      -10.8410  -20.9090    9.4520 C.ar  119  HIS119      0.1986
     39  NE2      -11.5380  -19.7910    9.3040 N.ar  119  HIS119     -0.2212
     40  N         -7.9810  -25.1080   10.0340 N.3   189  ASP189     -0.1225
     41  CA        -6.7390  -24.6920    9.3990 C.3   189  ASP189      0.1805
     42  C         -6.2120  -23.3750    9.9450 C.2   189  ASP189      0.2597
     43  O         -5.3730  -22.7420    9.3050 O.2   189  ASP189     -0.2718
     44  CB        -6.9170  -24.6080    7.8860 C.3   189  ASP189      0.1424
     45  CG        -8.1310  -23.8040    7.4900 C.2   189  ASP189      0.3668
     46  OD1       -9.0690  -23.6900    8.3130 O.co2 189  ASP189     -0.2456
     47  OD2       -8.1430  -23.2830    6.3550 O.co2 189  ASP189     -0.2456
     48  N         -6.6580  -22.9660   11.1240 N.am  190  HIS190     -0.1975
     49  CA        -6.0440  -21.8290   11.7980 C.3   190  HIS190      0.1656
     50  C         -5.1660  -22.3150   12.9380 C.2   190  HIS190      0.2291
     51  O         -5.1610  -23.4870   13.2950 O.2   190  HIS190     -0.2864
     52  CB        -7.0990  -20.8570   12.3340 C.3   190  HIS190      0.0771
     53  CG        -7.6370  -19.9370   11.2910 C.ar  190  HIS190      0.0820
     54  ND1       -8.6130  -19.0100   11.5520 N.ar  190  HIS190     -0.2267
     55  CD2       -7.3590  -19.8260    9.9760 C.ar  190  HIS190      0.1154
     56  CE1       -8.8940  -18.3390   10.4530 C.ar  190  HIS190      0.1986
     57  NE2       -8.1540  -18.8230    9.4790 N.ar  190  HIS190     -0.2212
     58  N          2.5800  -29.0580    7.8880 N.3   201  TYR201     -0.1227
     59  CA         1.6770  -28.3450    7.0020 C.3   201  TYR201      0.1736
     60  C          2.5550  -27.8330    5.8660 C.2   201  TYR201      0.2595
     61  O          3.4580  -27.0290    6.0970 O.2   201  TYR201     -0.2718
     62  CB         0.9680  -27.2190    7.7560 C.3   201  TYR201      0.0548
     63  CG        -0.0990  -26.5630    6.9410 C.ar  201  TYR201     -0.0200
     64  CD1       -1.1310  -27.3110    6.4300 C.ar  201  TYR201     -0.0009
     65  CD2       -0.0590  -25.1960    6.6540 C.ar  201  TYR201     -0.0009
     66  CE1       -2.1260  -26.7300    5.6630 C.ar  201  TYR201      0.0417
     67  CE2       -1.0420  -24.6050    5.8950 C.ar  201  TYR201      0.0417
     68  CZ        -2.0800  -25.3890    5.3990 C.ar  201  TYR201      0.1957
     69  OH        -3.0910  -24.8740    4.6360 O.3   201  TYR201     -0.2866
     70  N          2.3360  -28.3360    4.6550 N.am  202  PHE202     -0.1976
     71  CA         3.2290  -28.0530    3.5260 C.3   202  PHE202      0.1639
     72  C          4.7000  -28.2870    3.8940 C.2   202  PHE202      0.2290
     73  O          5.5960  -27.5260    3.5180 O.2   202  PHE202     -0.2864
     74  CB         2.9930  -26.6330    2.9880 C.3   202  PHE202      0.0560
     75  CG         1.6800  -26.4790    2.2660 C.ar  202  PHE202     -0.0200
     76  CD1        1.5520  -26.8800    0.9330 C.ar  202  PHE202     -0.0042
     77  CD2        0.5730  -25.9760    2.9210 C.ar  202  PHE202     -0.0042
     78  CE1        0.3590  -26.7460    0.2670 C.ar  202  PHE202     -0.0003
     79  CE2       -0.6360  -25.8270    2.2560 C.ar  202  PHE202     -0.0003
     80  CZ        -0.7460  -26.2210    0.9240 C.ar  202  PHE202     -0.0000
     81  N         -5.7690  -26.9530   -2.0280 N.3   267  ILE267     -0.1245
     82  CA        -4.9920  -25.7680   -2.3840 C.3   267  ILE267      0.1561
     83  C         -4.2060  -25.9850   -3.6760 C.2   267  ILE267      0.2260
     84  O         -4.1340  -25.1010   -4.5420 O.2   267  ILE267     -0.2867
     85  CB        -4.0550  -25.4130   -1.2230 C.3   267  ILE267      0.0252
     86  CG1       -4.8720  -24.8730   -0.0430 C.3   267  ILE267      0.0019
     87  CG2       -3.0150  -24.4660   -1.7030 C.3   267  ILE267      0.0019
     88  CD1       -4.0570  -24.7170    1.2260 C.3   267  ILE267      0.0001
     89  N         -7.9040  -20.3070   -1.9790 N.3   274  TYR274     -0.1227
     90  CA        -7.5940  -20.3740   -0.5580 C.3   274  TYR274      0.1736
     91  C         -7.4960  -18.9710    0.0420 C.2   274  TYR274      0.2595
     92  O         -7.1040  -18.0140   -0.6270 O.2   274  TYR274     -0.2718
     93  CB        -6.2930  -21.1450   -0.3100 C.3   274  TYR274      0.0548
     94  CG        -6.2080  -21.5070    1.1330 C.ar  274  TYR274     -0.0200
     95  CD1       -5.3050  -20.8910    1.9740 C.ar  274  TYR274     -0.0009
     96  CD2       -7.1050  -22.4100    1.6780 C.ar  274  TYR274     -0.0009
     97  CE1       -5.2660  -21.2050    3.3160 C.ar  274  TYR274      0.0417
     98  CE2       -7.0700  -22.7330    3.0100 C.ar  274  TYR274      0.0417
     99  CZ        -6.1580  -22.1200    3.8240 C.ar  274  TYR274      0.1957
    100  OH        -6.1590  -22.4390    5.1490 O.3   274  TYR274     -0.2866
    101  N         -7.8520  -18.8490    1.3200 N.am  275  HIS275     -0.1961
    102  CA        -7.8250  -17.5410    1.9880 C.3   275  HIS275      0.1787
    103  C         -6.4400  -17.3220    2.5750 C.2   275  HIS275      0.2620
    104  O         -6.1710  -17.6330    3.7280 O.2   275  HIS275     -0.2715
    105  CB        -8.9160  -17.4510    3.0430 C.3   275  HIS275      0.0785
    106  CG       -10.2970  -17.5150    2.4770 C.ar  275  HIS275      0.0821
    107  ND1      -11.4260  -17.3940    3.2550 N.ar  275  HIS275     -0.2267
    108  CD2      -10.7290  -17.7060    1.2080 C.ar  275  HIS275      0.1154
    109  CE1      -12.4960  -17.4830    2.4860 C.ar  275  HIS275      0.1986
    110  NE2      -12.1010  -17.6870    1.2420 N.ar  275  HIS275     -0.2212
    111  N         -5.5540  -16.7510    1.7750 N.am  276  TRP276     -0.1960
    112  CA        -4.1450  -16.6920    2.1120 C.3   276  TRP276      0.1771
    113  C         -3.7680  -15.5640    3.0690 C.2   276  TRP276      0.2620
    114  O         -2.6000  -15.4840    3.4410 O.2   276  TRP276     -0.2715
    115  CB        -3.3220  -16.5330    0.8360 C.3   276  TRP276      0.0590
    116  CG        -3.3200  -17.7260   -0.0150 C.ar  276  TRP276      0.0006
    117  CD1       -4.0180  -17.9080   -1.1730 C.ar  276  TRP276      0.0946
    118  CD2       -2.5810  -18.9370    0.2100 C.ar  276  TRP276      0.0152
    119  NE1       -3.7460  -19.1510   -1.6880 N.ar  276  TRP276     -0.2442
    120  CE2       -2.8700  -19.8040   -0.8590 C.ar  276  TRP276      0.0810
    121  CE3       -1.6900  -19.3610    1.2040 C.ar  276  TRP276      0.0012
    122  CZ2       -2.3140  -21.0940   -0.9560 C.ar  276  TRP276      0.0191
    123  CZ3       -1.1350  -20.6320    1.1070 C.ar  276  TRP276      0.0001
    124  CH2       -1.4440  -21.4810    0.0300 C.ar  276  TRP276      0.0015
    125  N         -4.6980  -14.6850    3.4680 N.am  277  SER277     -0.1936
    126  CA        -4.2960  -13.5790    4.3400 C.3   277  SER277      0.2055
    127  C         -3.8470  -14.0650    5.7210 C.2   277  SER277      0.2643
    128  O         -3.0400  -13.4010    6.3790 O.2   277  SER277     -0.2714
    129  CB        -5.4470  -12.5660    4.4720 C.3   277  SER277      0.2130
    130  OG        -6.5710  -13.1780    5.0820 O.3   277  SER277     -0.2179
    131  N         -4.3440  -15.2080    6.1840 N.am  278  TYR278     -0.1973
    132  CA        -4.0530  -15.6240    7.5560 C.3   278  TYR278      0.1639
    133  C         -2.5900  -16.0340    7.7170 C.2   278  TYR278      0.2290
    134  O         -2.0140  -16.7250    6.8640 O.2   278  TYR278     -0.2864
    135  CB        -4.9960  -16.7560    7.9580 C.3   278  TYR278      0.0560
    136  CG        -4.8970  -17.2060    9.3910 C.ar  278  TYR278     -0.0198
    137  CD1       -5.5570  -16.5170   10.4030 C.ar  278  TYR278     -0.0009
    138  CD2       -4.1430  -18.3400    9.7330 C.ar  278  TYR278     -0.0009
    139  CE1       -5.4730  -16.9400   11.7130 C.ar  278  TYR278      0.0417
    140  CE2       -4.0550  -18.7680   11.0360 C.ar  278  TYR278      0.0417
    141  CZ        -4.7240  -18.0670   12.0210 C.ar  278  TYR278      0.1957
    142  OH        -4.6280  -18.4980   13.3160 O.3   278  TYR278     -0.2866
    143  N         -0.6200  -18.1550    8.9990 N.3   280  ARG280     -0.1231
    144  CA        -0.5550  -19.4900    9.5830 C.3   280  ARG280      0.1694
    145  C          0.8690  -19.9520    9.8840 C.2   280  ARG280      0.2592
    146  O          1.0800  -20.6840   10.8580 O.2   280  ARG280     -0.2718
    147  CB        -1.1990  -20.4790    8.6330 C.3   280  ARG280      0.0321
    148  CG        -1.1560  -21.9410    9.0870 C.3   280  ARG280      0.0489
    149  CD        -2.1980  -22.1900   10.1440 C.3   280  ARG280      0.2205
    150  NE        -2.2480  -23.6130   10.4010 N.pl3 280  ARG280     -0.0865
    151  CZ        -1.7400  -24.2080   11.4720 C.cat 280  ARG280      0.5346
    152  NH1       -1.1880  -23.4870   12.4400 N.pl3 280  ARG280      0.1354
    153  NH2       -1.8260  -25.5320   11.5790 N.pl3 280  ARG280      0.1354
    154  N          1.8490  -19.5550    9.0650 N.am  281  PHE281     -0.1976
    155  CA         3.1980  -20.1150    9.1330 C.3   281  PHE281      0.1639
    156  C          4.0490  -19.5220   10.2400 C.2   281  PHE281      0.2290
    157  O          5.1990  -19.9360   10.4070 O.2   281  PHE281     -0.2864
    158  CB         3.9050  -19.9400    7.7880 C.3   281  PHE281      0.0560
    159  CG         3.4610  -20.9340    6.7560 C.ar  281  PHE281     -0.0200
    160  CD1        3.7810  -22.2700    6.9000 C.ar  281  PHE281     -0.0042
    161  CD2        2.7310  -20.5350    5.6460 C.ar  281  PHE281     -0.0042
    162  CE1        3.3590  -23.2190    5.9670 C.ar  281  PHE281     -0.0003
    163  CE2        2.3220  -21.4680    4.7010 C.ar  281  PHE281     -0.0003
    164  CZ         2.6350  -22.8060    4.8670 C.ar  281  PHE281     -0.0000
@<TRIPOS>BOND
     1    84    83    2
     2    83    82    1
     3    82    81    1
     4    82    85    1
     5     9    10    1
     6    89    90    1
     7    87    85    1
     8   119   117   ar
     9   119   120   ar
    10    85    86    1
    11   117   116   ar
    12   122   120   ar
    13   122   124   ar
    14   120   118   ar
    15    92    91    2
    16    10    11    1
    17    10    13    1
    18    90    93    1
    19    90    91    1
    20    93    94    1
    21    11    12    2
    22    86    88    1
    23   116   118   ar
    24   116   115    1
    25   124   123   ar
    26    91   101   am
    27   118   121   ar
    28    13    14    1
    29    78    80   ar
    30    78    76   ar
    31   115   112    1
    32     3     4    2
    33     3     2    1
    34    80    79   ar
    35    76    75   ar
    36   123   121   ar
    37    94    96   ar
    38    94    95   ar
    39   108   110   ar
    40   108   106   ar
    41   110   109   ar
    42    18    19    1
    43   101   102    1
    44    96    98   ar
    45    14    15    1
    46   111   112    1
    47   111   103   am
    48     1     2    1
    49    95    97   ar
    50   102   103    1
    51   102   105    1
    52    16    15   ar
    53   112   113    1
    54    20    19    1
    55    20    21    2
    56     2     5    1
    57    79    77   ar
    58    75    77   ar
    59    75    74    1
    60   106   105    1
    61   106   107   ar
    62    19    22    1
    63   109   107   ar
    64    15    17   ar
    65   103   104    2
    66     5     6    1
    67    74    71    1
    68    98    99   ar
    69   113   114    2
    70   113   125   am
    71    22    23    1
    72    33    32    2
    73    97    99   ar
    74   125   126    1
    75    73    72    2
    76    71    72    1
    77    71    70    1
    78    32    31    1
    79    25    23   ar
    80    25    27   ar
    81    99   100    1
    82    23    24   ar
    83     6     8   am
    84     6     7    2
    85   126   129    1
    86   126   127    1
    87    27    28   ar
    88   129   130    1
    89    69    68    1
    90    70    60   am
    91   163   164   ar
    92   163   161   ar
    93   164   162   ar
    94    31    30    1
    95    31    34    1
    96    24    26   ar
    97    68    66   ar
    98    68    67   ar
    99   161   159   ar
   100    28    26   ar
   101    28    29    1
   102    66    64   ar
   103   127   131   am
   104   127   128    2
   105    60    61    2
   106    60    59    1
   107    67    65   ar
   108    34    35    1
   109   162   160   ar
   110   131   132    1
   111    47    45   ar
   112    64    63   ar
   113    65    63   ar
   114   159   160   ar
   115   159   158    1
   116   134   133    2
   117    63    62    1
   118    59    62    1
   119    59    58    1
   120    35    37   ar
   121    35    36   ar
   122    45    44    1
   123    45    46   ar
   124   132   133    1
   125   132   135    1
   126   158   155    1
   127    44    41    1
   128   135   136    1
   129    37    39   ar
   130    36    38   ar
   131   147   148    1
   132   147   144    1
   133   143   144    1
   134   154   155    1
   135   154   145   am
   136   148   149    1
   137   155   156    1
   138    39    38   ar
   139    43    42    2
   140   136   138   ar
   141   136   137   ar
   142    41    42    1
   143    41    40    1
   144    57    55   ar
   145    57    56   ar
   146   144   145    1
   147   138   140   ar
   148   145   146    2
   149    42    48   am
   150    55    53   ar
   151   149   150    1
   152   156   157    2
   153   150   151    2
   154   137   139   ar
   155    56    54   ar
   156   140   141   ar
   157    48    49    1
   158    53    54   ar
   159    53    52    1
   160   151   153    1
   161   151   152    1
   162   139   141   ar
   163    49    52    1
   164    49    50    1
   165   141   142    1
   166    50    51    2
