@<TRIPOS>MOLECULE
tmp/5knkA01.pdb
 144 139 0 0 0
SMALL
GASTEIGER

@<TRIPOS>ATOM
      1  N        -10.6430  -22.7220    5.3940 N.3   119  HIS119     -0.1241
      2  CA       -10.9650  -21.3340    5.0480 C.3   119  HIS119      0.1621
      3  C        -10.6200  -21.1230    3.5830 C.2   119  HIS119      0.2264
      4  O         -9.4950  -20.7380    3.2250 O.2   119  HIS119     -0.2867
      5  CB       -10.2150  -20.3330    5.9200 C.3   119  HIS119      0.0745
      6  CG       -10.6760  -20.2830    7.3430 C.ar  119  HIS119      0.0817
      7  ND1      -10.3050  -21.2260    8.2840 N.ar  119  HIS119     -0.2268
      8  CD2      -11.4510  -19.3800    7.9960 C.ar  119  HIS119      0.1154
      9  CE1      -10.8410  -20.9090    9.4520 C.ar  119  HIS119      0.1986
     10  NE2      -11.5380  -19.7910    9.3040 N.ar  119  HIS119     -0.2212
     11  N        -16.6340  -18.1840   18.3120 N.3   141  LYS141     -0.1245
     12  CA       -15.8400  -17.2020   19.0380 C.3   141  LYS141      0.1561
     13  C        -16.4500  -15.8310   18.8040 C.2   141  LYS141      0.2260
     14  O        -16.5320  -15.3970   17.6470 O.2   141  LYS141     -0.2867
     15  CB       -14.3840  -17.2280   18.5750 C.3   141  LYS141      0.0271
     16  CG       -13.3560  -17.3530   19.6970 C.3   141  LYS141      0.0035
     17  CD       -13.1860  -16.0460   20.4540 C.3   141  LYS141      0.0206
     18  CE       -11.8160  -15.9700   21.1110 C.3   141  LYS141      0.1093
     19  NZ       -11.5410  -14.6240   21.6880 N.3   141  LYS141     -0.1314
     20  N        -15.9160  -21.6030   22.6010 N.3   166  THR166     -0.1218
     21  CA       -14.6780  -22.2580   22.1670 C.3   166  THR166      0.1862
     22  C        -13.8320  -22.5790   23.3990 C.2   166  THR166      0.2287
     23  O        -12.7830  -21.9820   23.6650 O.2   166  THR166     -0.2866
     24  CB       -13.9020  -21.3980   21.1710 C.3   166  THR166      0.1770
     25  OG1      -13.5200  -20.1630   21.7880 O.3   166  THR166     -0.2211
     26  CG2      -14.7240  -21.1220   19.9360 C.3   166  THR166      0.0375
     27  N        -13.6430  -25.6210   11.2540 N.3   187  LEU187     -0.1245
     28  CA       -12.6570  -25.0930   10.3290 C.3   187  LEU187      0.1561
     29  C        -11.3000  -25.3570   10.9550 C.2   187  LEU187      0.2260
     30  O        -10.9640  -24.7380   11.9760 O.2   187  LEU187     -0.2867
     31  CB       -12.8610  -23.5940   10.0680 C.3   187  LEU187      0.0270
     32  CG       -14.1710  -23.2510    9.3250 C.3   187  LEU187      0.0019
     33  CD1      -15.3820  -23.1940   10.2910 C.3   187  LEU187      0.0001
     34  CD2      -14.0670  -21.9920    8.4570 C.3   187  LEU187      0.0001
     35  N         -6.6580  -22.9660   11.1240 N.3   190  HIS190     -0.1226
     36  CA        -6.0440  -21.8290   11.7980 C.3   190  HIS190      0.1752
     37  C         -5.1660  -22.3150   12.9380 C.2   190  HIS190      0.2597
     38  O         -5.1610  -23.4870   13.2950 O.2   190  HIS190     -0.2718
     39  CB        -7.0990  -20.8570   12.3340 C.3   190  HIS190      0.0759
     40  CG        -7.6370  -19.9370   11.2910 C.ar  190  HIS190      0.0818
     41  ND1       -8.6130  -19.0100   11.5520 N.ar  190  HIS190     -0.2268
     42  CD2       -7.3590  -19.8260    9.9760 C.ar  190  HIS190      0.1154
     43  CE1       -8.8940  -18.3390   10.4530 C.ar  190  HIS190      0.1986
     44  NE2       -8.1540  -18.8230    9.4790 N.ar  190  HIS190     -0.2212
     45  N         -4.4200  -21.3790   13.5190 N.am  191  THR191     -0.1939
     46  CA        -3.5660  -21.7610   14.6320 C.3   191  THR191      0.2013
     47  C         -4.3610  -21.6350   15.9180 C.2   191  THR191      0.2484
     48  O         -5.0120  -20.6100   16.1270 O.2   191  THR191     -0.2729
     49  CB        -2.3430  -20.8600   14.7000 C.3   191  THR191      0.1807
     50  OG1       -1.6660  -20.8790   13.4380 O.3   191  THR191     -0.2208
     51  CG2       -1.3980  -21.3150   15.7790 C.3   191  THR191      0.0379
     52  N         -4.3630  -22.6310   16.7940 N.am  192  PRO192     -0.2715
     53  CA        -5.1360  -22.4930   18.0370 C.3   192  PRO192      0.1536
     54  C         -4.6060  -21.3400   18.8790 C.2   192  PRO192      0.2599
     55  O         -3.4170  -21.0270   18.8540 O.2   192  PRO192     -0.2715
     56  CB        -4.9430  -23.8480   18.7370 C.3   192  PRO192      0.0310
     57  CG        -3.7650  -24.4950   18.0360 C.3   192  PRO192      0.0237
     58  CD        -3.7560  -23.9660   16.6410 C.3   192  PRO192      0.0939
     59  N         -5.5230  -20.6890   19.6100 N.am  193  ASN193     -0.1959
     60  CA        -5.1370  -19.6520   20.5630 C.3   193  ASN193      0.1819
     61  C         -4.3770  -20.2250   21.7490 C.2   193  ASN193      0.2621
     62  O         -3.5510  -19.5270   22.3360 O.2   193  ASN193     -0.2715
     63  CB        -6.3710  -18.9100   21.0840 C.3   193  ASN193      0.1195
     64  CG        -7.0190  -18.0510   20.0330 C.2   193  ASN193      0.2630
     65  OD1       -6.3430  -17.3110   19.3200 O.2   193  ASN193     -0.2716
     66  ND2       -8.3400  -18.1330   19.9330 N.am  193  ASN193     -0.0877
     67  N         -4.6700  -21.4680   22.1330 N.am  194  VAL194     -0.1963
     68  CA        -4.0500  -22.1570   23.2710 C.3   194  VAL194      0.1727
     69  C         -3.6960  -23.5870   22.8570 C.2   194  VAL194      0.2616
     70  O         -4.5630  -24.3160   22.3660 O.2   194  VAL194     -0.2715
     71  CB        -4.9970  -22.1880   24.4920 C.3   194  VAL194      0.0290
     72  CG1       -4.3320  -22.9270   25.6620 C.3   194  VAL194      0.0023
     73  CG2       -5.4400  -20.7550   24.8950 C.3   194  VAL194      0.0023
     74  N         -2.4430  -24.0040   23.0660 N.am  195  GLY195     -0.1955
     75  CA        -1.9820  -25.3440   22.6120 C.3   195  GLY195      0.1869
     76  C         -1.7980  -25.3780   21.0890 C.2   195  GLY195      0.2309
     77  O         -1.7880  -24.3350   20.5490 O.2   195  GLY195     -0.2863
     78  N          2.0740  -25.5770   14.9820 N.3   207  ALA207     -0.1245
     79  CA         1.1200  -25.8600   16.0580 C.3   207  ALA207      0.1562
     80  C         -0.3070  -25.9020   15.5140 C.2   207  ALA207      0.2260
     81  O         -0.7510  -24.9790   14.8160 O.2   207  ALA207     -0.2867
     82  CB         1.2460  -24.7880   17.1550 C.3   207  ALA207      0.0290
     83  N         -4.3440  -15.2080    6.1840 N.3   278  TYR278     -0.1227
     84  CA        -4.0530  -15.6240    7.5560 C.3   278  TYR278      0.1736
     85  C         -2.5900  -16.0340    7.7170 C.2   278  TYR278      0.2595
     86  O         -2.0140  -16.7250    6.8640 O.2   278  TYR278     -0.2718
     87  CB        -4.9960  -16.7560    7.9580 C.3   278  TYR278      0.0548
     88  CG        -4.8970  -17.2060    9.3910 C.ar  278  TYR278     -0.0200
     89  CD1       -5.5570  -16.5170   10.4030 C.ar  278  TYR278     -0.0009
     90  CD2       -4.1430  -18.3400    9.7330 C.ar  278  TYR278     -0.0009
     91  CE1       -5.4730  -16.9400   11.7130 C.ar  278  TYR278      0.0417
     92  CE2       -4.0550  -18.7680   11.0360 C.ar  278  TYR278      0.0417
     93  CZ        -4.7240  -18.0670   12.0210 C.ar  278  TYR278      0.1957
     94  OH        -4.6280  -18.4980   13.3160 O.3   278  TYR278     -0.2866
     95  N         -1.9810  -15.5930    8.8260 N.am  279  LYS279     -0.1966
     96  CA        -0.5430  -15.7500    9.0510 C.3   279  LYS279      0.1728
     97  C         -0.2430  -17.0970    9.7070 C.2   279  LYS279      0.2616
     98  O          0.3050  -17.1930   10.8010 O.2   279  LYS279     -0.2715
     99  CB        -0.0240  -14.5930    9.8920 C.3   279  LYS279      0.0311
    100  CG        -0.4600  -13.2540    9.3510 C.3   279  LYS279      0.0038
    101  CD        -0.0200  -12.1130   10.2420 C.3   279  LYS279      0.0206
    102  CE        -0.2510  -10.8100    9.5210 C.3   279  LYS279      0.1093
    103  NZ         0.4790  -10.8440    8.2280 N.3   279  LYS279     -0.1314
    104  N         -0.6200  -18.1550    8.9990 N.am  280  ARG280     -0.1977
    105  CA        -0.5550  -19.4900    9.5830 C.3   280  ARG280      0.1597
    106  C          0.8690  -19.9520    9.8840 C.2   280  ARG280      0.2287
    107  O          1.0800  -20.6840   10.8580 O.2   280  ARG280     -0.2864
    108  CB        -1.1990  -20.4790    8.6330 C.3   280  ARG280      0.0334
    109  CG        -1.1560  -21.9410    9.0870 C.3   280  ARG280      0.0492
    110  CD        -2.1980  -22.1900   10.1440 C.3   280  ARG280      0.2205
    111  NE        -2.2480  -23.6130   10.4010 N.pl3 280  ARG280     -0.0865
    112  CZ        -1.7400  -24.2080   11.4720 C.cat 280  ARG280      0.5346
    113  NH1       -1.1880  -23.4870   12.4400 N.pl3 280  ARG280      0.1354
    114  NH2       -1.8260  -25.5320   11.5790 N.pl3 280  ARG280      0.1354
    115  N          3.5080  -18.5840   11.0000 N.3   282  LYS282     -0.1231
    116  CA         4.1730  -18.0990   12.1960 C.3   282  LYS282      0.1693
    117  C          4.1440  -19.1210   13.3250 C.2   282  LYS282      0.2592
    118  O          4.8450  -18.9460   14.3220 O.2   282  LYS282     -0.2718
    119  CB         3.4700  -16.8140   12.6230 C.3   282  LYS282      0.0285
    120  CG         4.2600  -15.8720   13.4510 C.3   282  LYS282      0.0035
    121  CD         3.3060  -14.9070   14.1600 C.3   282  LYS282      0.0206
    122  CE         2.0500  -14.6940   13.3400 C.3   282  LYS282      0.1093
    123  NZ         0.9380  -14.1410   14.1760 N.3   282  LYS282     -0.1314
    124  N          3.3490  -20.1800   13.1980 N.am  283  ALA283     -0.1966
    125  CA         3.0700  -21.0770   14.3220 C.3   283  ALA283      0.1728
    126  C          4.1680  -22.1180   14.5370 C.2   283  ALA283      0.2616
    127  O          3.8800  -23.3070   14.6710 O.2   283  ALA283     -0.2715
    128  CB         1.7210  -21.7810   14.1150 C.3   283  ALA283      0.0334
    129  N          5.4240  -21.6830   14.5860 N.am  284  ASN284     -0.1972
    130  CA         6.5880  -22.5180   14.8610 C.3   284  ASN284      0.1688
    131  C          7.5940  -21.6200   15.5710 C.2   284  ASN284      0.2292
    132  O          7.7700  -20.4670   15.1550 O.2   284  ASN284     -0.2864
    133  CB         7.1810  -23.0720   13.5610 C.3   284  ASN284      0.1181
    134  CG         8.3870  -23.9500   13.7930 C.2   284  ASN284      0.2629
    135  OD1        9.4750  -23.4620   14.0810 O.2   284  ASN284     -0.2716
    136  ND2        8.2020  -25.2660   13.6470 N.am  284  ASN284     -0.0877
    137  N          8.4810  -17.2790   14.3190 N.3   288  ASP288     -0.1239
    138  CA         7.6380  -16.2800   14.9750 C.3   288  ASP288      0.1674
    139  C          7.6010  -14.9450   14.2420 C.2   288  ASP288      0.2266
    140  O          6.5860  -14.2390   14.2880 O.2   288  ASP288     -0.2867
    141  CB         8.1180  -16.0570   16.4130 C.3   288  ASP288      0.1410
    142  CG         7.5950  -17.0230   17.4180 C.2   288  ASP288      0.3668
    143  OD1        6.7670  -17.8540   17.1110 O.co2 288  ASP288     -0.2456
    144  OD2        8.0470  -16.8580   18.6230 O.co2 288  ASP288     -0.2456
@<TRIPOS>BOND
     1     4     3    2
     2     3     2    1
     3     2     1    1
     4     2     5    1
     5     5     6    1
     6    83    84    1
     7    86    85    2
     8     6     8   ar
     9     6     7   ar
    10    84    85    1
    11    84    87    1
    12    85    95   am
    13    87    88    1
    14     8    10   ar
    15   103   102    1
    16     7     9   ar
    17    34    32    1
    18   108   109    1
    19   108   105    1
    20    95    96    1
    21   104   105    1
    22   104    97   am
    23    96    97    1
    24    96    99    1
    25   109   110    1
    26    10     9   ar
    27    32    31    1
    28    32    33    1
    29   100    99    1
    30   100   101    1
    31    88    90   ar
    32    88    89   ar
    33    44    42   ar
    34    44    43   ar
    35   102   101    1
    36   105   106    1
    37    97    98    2
    38    90    92   ar
    39   106   107    2
    40    42    40   ar
    41    31    28    1
    42   110   111    1
    43    28    29    1
    44    28    27    1
    45   111   112    2
    46    89    91   ar
    47    43    41   ar
    48    29    30    2
    49   115   116    1
    50    92    93   ar
    51    35    36    1
    52    40    41   ar
    53    40    39    1
    54   112   114    1
    55   112   113    1
    56    91    93   ar
    57    36    39    1
    58    36    37    1
    59    93    94    1
    60   116   119    1
    61   116   117    1
    62   119   120    1
    63    37    38    2
    64    37    45   am
    65   124   117   am
    66   124   125    1
    67   117   118    2
    68   122   121    1
    69   122   123    1
    70    50    49    1
    71   120   121    1
    72    45    46    1
    73   133   134    1
    74   133   130    1
    75   136   134   am
    76   134   135    2
    77   128   125    1
    78   139   140    2
    79   139   138    1
    80   137   138    1
    81   125   126    1
    82   126   129   am
    83   126   127    2
    84   129   130    1
    85    46    49    1
    86    46    47    1
    87    49    51    1
    88    81    80    2
    89   130   131    1
    90   138   141    1
    91    78    79    1
    92   132   131    2
    93    80    79    1
    94    47    48    2
    95    47    52   am
    96    79    82    1
    97   141   142    1
    98    58    52    1
    99    58    57    1
   100    52    53    1
   101   143   142   ar
   102   142   144   ar
   103    14    13    2
   104    57    56    1
   105    53    56    1
   106    53    54    1
   107    11    12    1
   108    15    12    1
   109    15    16    1
   110    13    12    1
   111    55    54    2
   112    54    59   am
   113    65    64    2
   114    59    60    1
   115    16    17    1
   116    66    64   am
   117    26    24    1
   118    64    63    1
   119    17    18    1
   120    77    76    2
   121    60    63    1
   122    60    61    1
   123    76    75    1
   124    18    19    1
   125    24    25    1
   126    24    21    1
   127    61    67   am
   128    61    62    2
   129    67    68    1
   130    21    20    1
   131    21    22    1
   132    70    69    2
   133    75    74    1
   134    69    74   am
   135    69    68    1
   136    68    71    1
   137    22    23    2
   138    71    73    1
   139    71    72    1
