@<TRIPOS>MOLECULE
tmp/5knkA00.pdb
 194 190 0 0 0
SMALL
GASTEIGER

@<TRIPOS>ATOM
      1  N        -18.0500    4.8660    6.2990 N.3    25  LEU25      -0.1245
      2  CA       -17.3250    3.9400    5.4380 C.3    25  LEU25       0.1561
      3  C        -15.9820    4.5290    5.0150 C.2    25  LEU25       0.2260
      4  O        -14.9580    3.8320    5.0170 O.2    25  LEU25      -0.2867
      5  CB       -18.2060    3.6010    4.2320 C.3    25  LEU25       0.0270
      6  CG       -17.9110    2.4520    3.2560 C.3    25  LEU25       0.0019
      7  CD1      -16.6640    2.6370    2.4410 C.3    25  LEU25       0.0001
      8  CD2      -17.8340    1.1380    4.0340 C.3    25  LEU25       0.0001
      9  N        -13.5590    4.2130    7.7770 N.3    28  LEU28      -0.1231
     10  CA       -13.0670    2.8400    7.8450 C.3    28  LEU28       0.1693
     11  C        -11.9590    2.5990    6.8300 C.2    28  LEU28       0.2591
     12  O        -10.8560    2.1440    7.1760 O.2    28  LEU28      -0.2718
     13  CB       -14.2220    1.8700    7.6070 C.3    28  LEU28       0.0284
     14  CG       -14.0080    0.4540    8.1400 C.3    28  LEU28       0.0019
     15  CD1      -14.2860    0.4130    9.6410 C.3    28  LEU28       0.0001
     16  CD2      -14.8690   -0.5550    7.3840 C.3    28  LEU28       0.0001
     17  N        -12.2530    2.8640    5.5530 N.am   29  LEU29      -0.1980
     18  CA       -11.2640    2.6460    4.5020 C.3    29  LEU29       0.1596
     19  C         -9.9900    3.4340    4.7610 C.2    29  LEU29       0.2287
     20  O         -8.8780    2.9120    4.6170 O.2    29  LEU29      -0.2864
     21  CB       -11.8440    3.0170    3.1410 C.3    29  LEU29       0.0297
     22  CG       -13.1080    2.2830    2.6890 C.3    29  LEU29       0.0022
     23  CD1      -13.3850    2.5870    1.2220 C.3    29  LEU29       0.0001
     24  CD2      -12.9700    0.7850    2.9150 C.3    29  LEU29       0.0001
     25  N        -11.2990  -11.1970   -0.8300 N.3    73  LEU73      -0.1245
     26  CA       -12.1730  -10.0450   -0.5870 C.3    73  LEU73       0.1561
     27  C        -13.5890  -10.3210   -1.0940 C.2    73  LEU73       0.2260
     28  O        -14.5900  -10.0260   -0.4070 O.2    73  LEU73      -0.2867
     29  CB       -11.5910   -8.8010   -1.2490 C.3    73  LEU73       0.0270
     30  CG       -12.3390   -7.5270   -0.8720 C.3    73  LEU73       0.0019
     31  CD1      -12.4780   -7.4310    0.6380 C.3    73  LEU73       0.0001
     32  CD2      -11.6290   -6.3050   -1.4400 C.3    73  LEU73       0.0001
     33  N        -15.6090  -12.3490    1.2830 N.3    76  TYR76      -0.1227
     34  CA       -16.1190  -11.6790    2.4800 C.3    76  TYR76       0.1736
     35  C        -17.3360  -10.8060    2.1700 C.2    76  TYR76       0.2595
     36  O        -18.3030  -10.7810    2.9490 O.2    76  TYR76      -0.2718
     37  CB       -15.0080  -10.8770    3.1520 C.3    76  TYR76       0.0548
     38  CG       -14.1560  -11.7660    4.0260 C.ar   76  TYR76      -0.0200
     39  CD1      -14.6570  -12.2640    5.2210 C.ar   76  TYR76      -0.0009
     40  CD2      -12.8690  -12.1340    3.6510 C.ar   76  TYR76      -0.0009
     41  CE1      -13.9000  -13.0980    6.0290 C.ar   76  TYR76       0.0417
     42  CE2      -12.0950  -12.9730    4.4650 C.ar   76  TYR76       0.0417
     43  CZ       -12.6230  -13.4490    5.6480 C.ar   76  TYR76       0.1957
     44  OH       -11.8880  -14.2820    6.4710 O.3    76  TYR76      -0.2866
     45  N        -17.3350  -10.1190    1.0230 N.am   77  PHE77      -0.1976
     46  CA       -18.5690   -9.4350    0.6160 C.3    77  PHE77       0.1639
     47  C        -19.7190  -10.4220    0.4050 C.2    77  PHE77       0.2290
     48  O        -20.8770  -10.1490    0.7790 O.2    77  PHE77      -0.2864
     49  CB       -18.3130   -8.6160   -0.6400 C.3    77  PHE77       0.0560
     50  CG       -17.6530   -7.3150   -0.3530 C.ar   77  PHE77      -0.0200
     51  CD1      -18.4030   -6.2330    0.0760 C.ar   77  PHE77      -0.0042
     52  CD2      -16.2850   -7.1730   -0.4710 C.ar   77  PHE77      -0.0042
     53  CE1      -17.8020   -5.0310    0.3580 C.ar   77  PHE77      -0.0003
     54  CE2      -15.6770   -5.9680   -0.1810 C.ar   77  PHE77      -0.0003
     55  CZ       -16.4390   -4.9020    0.2340 C.ar   77  PHE77      -0.0000
     56  N        -21.2590  -11.2450    3.5860 N.3    80  LEU80      -0.1245
     57  CA       -22.2320  -10.2330    3.9950 C.3    80  LEU80       0.1561
     58  C        -23.5950  -10.5160    3.3840 C.2    80  LEU80       0.2260
     59  O        -24.6160  -10.5280    4.0850 O.2    80  LEU80      -0.2867
     60  CB       -21.7730   -8.8340    3.5940 C.3    80  LEU80       0.0270
     61  CG       -20.5270   -8.2700    4.2390 C.3    80  LEU80       0.0019
     62  CD1      -20.4100   -6.8570    3.7220 C.3    80  LEU80       0.0001
     63  CD2      -20.6530   -8.3130    5.7540 C.3    80  LEU80       0.0001
     64  N        -25.1430  -13.6870    5.0250 N.3    83  TRP83      -0.1241
     65  CA       -25.5930  -13.4730    6.3920 C.3    83  TRP83       0.1605
     66  C        -26.6880  -12.4220    6.4860 C.2    83  TRP83       0.2264
     67  O        -27.2700  -12.2490    7.5630 O.2    83  TRP83      -0.2867
     68  CB       -24.3950  -13.0960    7.2760 C.3    83  TRP83       0.0550
     69  CG       -23.4450  -14.2630    7.4640 C.ar   83  TRP83       0.0003
     70  CD1      -23.7450  -15.5820    7.3170 C.ar   83  TRP83       0.0946
     71  CD2      -22.0480  -14.2040    7.7930 C.ar   83  TRP83       0.0152
     72  NE1      -22.6350  -16.3540    7.5540 N.ar   83  TRP83      -0.2442
     73  CE2      -21.5770  -15.5330    7.8470 C.ar   83  TRP83       0.0810
     74  CE3      -21.1540  -13.1580    8.0650 C.ar   83  TRP83       0.0012
     75  CZ2      -20.2480  -15.8480    8.1470 C.ar   83  TRP83       0.0191
     76  CZ3      -19.8290  -13.4760    8.3610 C.ar   83  TRP83       0.0001
     77  CH2      -19.3960  -14.8090    8.4040 C.ar   83  TRP83       0.0015
     78  N        -10.6430  -22.7220    5.3940 N.3   119  HIS119     -0.1241
     79  CA       -10.9650  -21.3340    5.0480 C.3   119  HIS119      0.1621
     80  C        -10.6200  -21.1230    3.5830 C.2   119  HIS119      0.2264
     81  O         -9.4950  -20.7380    3.2250 O.2   119  HIS119     -0.2867
     82  CB       -10.2150  -20.3330    5.9200 C.3   119  HIS119      0.0745
     83  CG       -10.6760  -20.2830    7.3430 C.ar  119  HIS119      0.0817
     84  ND1      -10.3050  -21.2260    8.2840 N.ar  119  HIS119     -0.2268
     85  CD2      -11.4510  -19.3800    7.9960 C.ar  119  HIS119      0.1154
     86  CE1      -10.8410  -20.9090    9.4520 C.ar  119  HIS119      0.1986
     87  NE2      -11.5380  -19.7910    9.3040 N.ar  119  HIS119     -0.2212
     88  N        -17.2190  -20.4310    2.0160 N.3   123  TRP123     -0.1241
     89  CA       -17.6250  -21.5690    2.8330 C.3   123  TRP123      0.1605
     90  C        -18.9170  -21.3180    3.6020 C.2   123  TRP123      0.2264
     91  O        -19.6820  -22.2720    3.8750 O.2   123  TRP123     -0.2867
     92  CB       -16.4930  -21.9470    3.7870 C.3   123  TRP123      0.0550
     93  CG       -15.8760  -20.8130    4.5630 C.ar  123  TRP123      0.0003
     94  CD1      -14.7760  -20.0720    4.2260 C.ar  123  TRP123      0.0946
     95  CD2      -16.3020  -20.3450    5.8410 C.ar  123  TRP123      0.0152
     96  NE1      -14.5140  -19.1580    5.2220 N.ar  123  TRP123     -0.2442
     97  CE2      -15.4410  -19.3090    6.2190 C.ar  123  TRP123      0.0810
     98  CE3      -17.3600  -20.6930    6.6950 C.ar  123  TRP123      0.0012
     99  CZ2      -15.5960  -18.6080    7.4140 C.ar  123  TRP123      0.0191
    100  CZ3      -17.5050  -20.0070    7.8890 C.ar  123  TRP123      0.0001
    101  CH2      -16.6340  -18.9690    8.2310 C.ar  123  TRP123      0.0015
    102  N        -21.8880  -25.8820   16.7580 N.3   138  ILE138     -0.1231
    103  CA       -20.7270  -25.2200   16.1760 C.3   138  ILE138      0.1692
    104  C        -19.9840  -24.4500   17.2610 C.2   138  ILE138      0.2592
    105  O        -20.6010  -23.7170   18.0420 O.2   138  ILE138     -0.2718
    106  CB       -21.1360  -24.2600   15.0410 C.3   138  ILE138      0.0266
    107  CG1      -22.0250  -24.9800   14.0230 C.3   138  ILE138      0.0019
    108  CG2      -19.8970  -23.7060   14.3430 C.3   138  ILE138      0.0020
    109  CD1      -22.6250  -24.0590   12.9820 C.3   138  ILE138      0.0001
    110  N        -18.6630  -24.6060   17.2970 N.am  139  LEU139     -0.1966
    111  CA       -17.8280  -23.6950   18.0700 C.3   139  LEU139      0.1728
    112  C        -18.0150  -22.2890   17.5420 C.2   139  LEU139      0.2616
    113  O        -18.0620  -22.0700   16.3290 O.2   139  LEU139     -0.2715
    114  CB       -16.3520  -24.0670   17.9590 C.3   139  LEU139      0.0311
    115  CG       -15.8420  -25.3520   18.5850 C.3   139  LEU139      0.0022
    116  CD1      -14.3410  -25.3830   18.4020 C.3   139  LEU139      0.0001
    117  CD2      -16.2210  -25.4180   20.0590 C.3   139  LEU139      0.0001
    118  N        -18.1320  -21.3340   18.4540 N.am  140  TYR140     -0.1960
    119  CA       -18.2830  -19.9450   18.0610 C.3   140  TYR140      0.1771
    120  C        -17.3810  -19.0870   18.9350 C.2   140  TYR140      0.2619
    121  O        -17.3430  -19.2670   20.1520 O.2   140  TYR140     -0.2715
    122  CB       -19.7450  -19.4880   18.1890 C.3   140  TYR140      0.0574
    123  CG       -19.9670  -18.0750   17.7070 C.ar  140  TYR140     -0.0198
    124  CD1      -20.0090  -17.7900   16.3470 C.ar  140  TYR140     -0.0009
    125  CD2      -20.1080  -17.0190   18.6080 C.ar  140  TYR140     -0.0009
    126  CE1      -20.1900  -16.4900   15.8980 C.ar  140  TYR140      0.0417
    127  CE2      -20.2860  -15.7150   18.1620 C.ar  140  TYR140      0.0417
    128  CZ       -20.3300  -15.4610   16.8080 C.ar  140  TYR140      0.1957
    129  OH       -20.5240  -14.1830   16.3520 O.3   140  TYR140     -0.2866
    130  N        -16.6340  -18.1840   18.3120 N.am  141  LYS141     -0.1964
    131  CA       -15.8400  -17.2020   19.0380 C.3   141  LYS141      0.1713
    132  C        -16.4500  -15.8310   18.8040 C.2   141  LYS141      0.2458
    133  O        -16.5320  -15.3970   17.6470 O.2   141  LYS141     -0.2730
    134  CB       -14.3840  -17.2280   18.5750 C.3   141  LYS141      0.0311
    135  CG       -13.3560  -17.3530   19.6970 C.3   141  LYS141      0.0038
    136  CD       -13.1860  -16.0460   20.4540 C.3   141  LYS141      0.0206
    137  CE       -11.8160  -15.9700   21.1110 C.3   141  LYS141      0.1093
    138  NZ       -11.5410  -14.6240   21.6880 N.3   141  LYS141     -0.1314
    139  N        -16.9020  -15.1220   19.8380 N.am  142  PRO142     -0.2716
    140  CA       -17.5380  -13.8160   19.6060 C.3   142  PRO142      0.1536
    141  C        -16.6030  -12.8870   18.8500 C.2   142  PRO142      0.2598
    142  O        -15.4090  -12.8010   19.1520 O.2   142  PRO142     -0.2715
    143  CB       -17.8320  -13.2980   21.0190 C.3   142  PRO142      0.0310
    144  CG       -17.8140  -14.5220   21.8890 C.3   142  PRO142      0.0237
    145  CD       -16.8110  -15.4480   21.2720 C.3   142  PRO142      0.0939
    146  N        -17.1510  -12.2170   17.8330 N.am  143  VAL143     -0.1964
    147  CA       -16.3650  -11.2450   17.0840 C.3   143  VAL143      0.1727
    148  C        -15.9540  -10.1160   18.0200 C.2   143  VAL143      0.2616
    149  O        -16.7100   -9.7180   18.9180 O.2   143  VAL143     -0.2715
    150  CB       -17.1610  -10.7330   15.8710 C.3   143  VAL143      0.0290
    151  CG1      -16.2880   -9.8430   14.9710 C.3   143  VAL143      0.0023
    152  CG2      -17.7130  -11.9060   15.0750 C.3   143  VAL143      0.0023
    153  N        -14.7290   -9.6180   17.8310 N.am  144  LYS144     -0.1977
    154  CA       -14.1680   -8.6290   18.7490 C.3   144  LYS144      0.1596
    155  C        -15.0530   -7.3860   18.8480 C.2   144  LYS144      0.2287
    156  O        -15.1980   -6.8040   19.9300 O.2   144  LYS144     -0.2864
    157  CB       -12.7530   -8.2580   18.2990 C.3   144  LYS144      0.0298
    158  CG       -11.9020   -7.5090   19.3260 C.3   144  LYS144      0.0038
    159  CD       -12.3070   -7.8020   20.7660 C.3   144  LYS144      0.0206
    160  CE       -11.4650   -7.0020   21.7470 C.3   144  LYS144      0.1093
    161  NZ       -11.6270   -5.5310   21.5390 N.3   144  LYS144     -0.1314
    162  N        -23.4570  -11.2780   12.9090 N.3   152  VAL152     -0.1245
    163  CA       -23.1070  -12.6650   12.6180 C.3   152  VAL152      0.1561
    164  C        -24.0560  -13.6220   13.3270 C.2   152  VAL152      0.2260
    165  O        -24.4660  -14.6430   12.7620 O.2   152  VAL152     -0.2867
    166  CB       -21.6340  -12.9050   12.9980 C.3   152  VAL152      0.0252
    167  CG1      -21.2520  -14.3710   12.8610 C.3   152  VAL152      0.0019
    168  CG2      -20.7350  -12.0250   12.1110 C.3   152  VAL152      0.0019
    169  N        -26.4410  -16.7390   12.2050 N.3   156  ARG156     -0.1245
    170  CA       -26.3410  -18.1360   12.6350 C.3   156  ARG156      0.1563
    171  C        -27.6290  -18.6120   13.3000 C.2   156  ARG156      0.2260
    172  O        -28.0230  -19.7740   13.1450 O.2   156  ARG156     -0.2867
    173  CB       -25.1580  -18.3260   13.5890 C.3   156  ARG156      0.0307
    174  CG       -23.8040  -17.8200   13.0930 C.3   156  ARG156      0.0489
    175  CD       -23.5640  -18.0650   11.6040 C.3   156  ARG156      0.2205
    176  NE       -23.4450  -19.4790   11.2660 N.pl3 156  ARG156     -0.0865
    177  CZ       -22.3320  -20.1930   11.4180 C.cat 156  ARG156      0.5346
    178  NH1      -22.3120  -21.4780   11.0780 N.pl3 156  ARG156      0.1354
    179  NH2      -21.2430  -19.6260   11.9170 N.pl3 156  ARG156      0.1354
    180  N        -15.9160  -21.6030   22.6010 N.3   166  THR166     -0.1218
    181  CA       -14.6780  -22.2580   22.1670 C.3   166  THR166      0.1862
    182  C        -13.8320  -22.5790   23.3990 C.2   166  THR166      0.2287
    183  O        -12.7830  -21.9820   23.6650 O.2   166  THR166     -0.2866
    184  CB       -13.9020  -21.3980   21.1710 C.3   166  THR166      0.1770
    185  OG1      -13.5200  -20.1630   21.7880 O.3   166  THR166     -0.2211
    186  CG2      -14.7240  -21.1220   19.9360 C.3   166  THR166      0.0375
    187  N        -13.6430  -25.6210   11.2540 N.3   187  LEU187     -0.1245
    188  CA       -12.6570  -25.0930   10.3290 C.3   187  LEU187      0.1561
    189  C        -11.3000  -25.3570   10.9550 C.2   187  LEU187      0.2260
    190  O        -10.9640  -24.7380   11.9760 O.2   187  LEU187     -0.2867
    191  CB       -12.8610  -23.5940   10.0680 C.3   187  LEU187      0.0270
    192  CG       -14.1710  -23.2510    9.3250 C.3   187  LEU187      0.0019
    193  CD1      -15.3820  -23.1940   10.2910 C.3   187  LEU187      0.0001
    194  CD2      -14.0670  -21.9920    8.4570 C.3   187  LEU187      0.0001
@<TRIPOS>BOND
     1    32    30    1
     2    29    30    1
     3    29    26    1
     4    27    26    1
     5    27    28    2
     6    30    31    1
     7    25    26    1
     8    49    50    1
     9    49    46    1
    10    52    50   ar
    11    52    54   ar
    12    50    51   ar
    13    54    55   ar
    14    51    53   ar
    15    55    53   ar
    16    47    46    1
    17    47    48    2
    18    46    45    1
    19    45    35   am
    20    23    22    1
    21    33    34    1
    22    88    89    1
    23    35    34    1
    24    35    36    2
    25     7     6    1
    26    34    37    1
    27    22    24    1
    28    22    21    1
    29    89    90    1
    30    89    92    1
    31    21    18    1
    32    37    38    1
    33    81    80    2
    34     6     8    1
    35     6     5    1
    36    58    57    1
    37    58    59    2
    38    80    79    1
    39    56    57    1
    40    60    57    1
    41    60    61    1
    42    90    91    2
    43    40    38   ar
    44    40    42   ar
    45    62    61    1
    46    92    93    1
    47    38    39   ar
    48    94    93   ar
    49    94    96   ar
    50     5     2    1
    51    61    63    1
    52    42    43   ar
    53    18    19    1
    54    18    17    1
    55    93    95   ar
    56    20    19    2
    57     3     4    2
    58     3     2    1
    59    64    65    1
    60    79    78    1
    61    79    82    1
    62    39    41   ar
    63    96    97   ar
    64     2     1    1
    65    17    11   am
    66    43    41   ar
    67    43    44    1
    68    95    97   ar
    69    95    98   ar
    70    82    83    1
    71    97    99   ar
    72    65    66    1
    73    65    68    1
    74    66    67    2
    75    98   100   ar
    76    11    12    2
    77    11    10    1
    78    68    69    1
    79    70    69   ar
    80    70    72   ar
    81    83    85   ar
    82    83    84   ar
    83    16    14    1
    84    99   101   ar
    85    69    71   ar
    86    72    73   ar
    87    13    10    1
    88    13    14    1
    89     9    10    1
    90    71    73   ar
    91    71    74   ar
    92    73    75   ar
    93   100   101   ar
    94    85    87   ar
    95    74    76   ar
    96    14    15    1
    97    75    77   ar
    98    84    86   ar
    99    76    77   ar
   100   194   192    1
   101    87    86   ar
   102   192   191    1
   103   192   193    1
   104   191   188    1
   105   188   189    1
   106   188   187    1
   107   189   190    2
   108   178   177    1
   109   176   177    2
   110   176   175    1
   111   177   179    1
   112   175   174    1
   113   168   166    1
   114   169   170    1
   115   163   162    1
   116   163   166    1
   117   163   164    1
   118   170   171    1
   119   170   173    1
   120   165   164    2
   121   167   166    1
   122   109   107    1
   123   174   173    1
   124   172   171    2
   125   107   106    1
   126   108   106    1
   127   151   150    1
   128   106   103    1
   129   152   150    1
   130   150   147    1
   131   126   124   ar
   132   126   128   ar
   133   103   102    1
   134   103   104    1
   135   113   112    2
   136   124   123   ar
   137   129   128    1
   138   128   127   ar
   139   147   146    1
   140   147   148    1
   141   104   110   am
   142   104   105    2
   143   110   111    1
   144   112   111    1
   145   112   118   am
   146   133   132    2
   147   123   122    1
   148   123   125   ar
   149   153   148   am
   150   153   154    1
   151   146   141   am
   152   114   111    1
   153   114   115    1
   154   148   149    2
   155   119   122    1
   156   119   118    1
   157   119   120    1
   158   127   125   ar
   159   157   154    1
   160   157   158    1
   161   130   120   am
   162   130   131    1
   163   116   115    1
   164   134   131    1
   165   134   135    1
   166   115   117    1
   167   154   155    1
   168   132   131    1
   169   132   139   am
   170   155   156    2
   171   141   142    2
   172   141   140    1
   173   120   121    2
   174   158   159    1
   175   140   139    1
   176   140   143    1
   177   135   136    1
   178   139   145    1
   179   186   184    1
   180   136   137    1
   181   159   160    1
   182   143   144    1
   183   137   138    1
   184   184   185    1
   185   184   181    1
   186   145   144    1
   187   161   160    1
   188   181   180    1
   189   181   182    1
   190   182   183    2
