@<TRIPOS>MOLECULE
tmp/5knqB00.pdb
 115 112 0 0 0
SMALL
GASTEIGER

@<TRIPOS>ATOM
      1  N         49.3160   78.4940  105.9320 N.3   106  GLU106     -0.1231
      2  CA        47.9570   78.1110  105.5630 C.3   106  GLU106      0.1699
      3  C         46.9900   78.2410  106.7320 C.2   106  GLU106      0.2592
      4  O         47.4000   78.2440  107.8940 O.2   106  GLU106     -0.2718
      5  CB        47.9310   76.6720  105.0320 C.3   106  GLU106      0.0402
      6  CG        48.1520   76.5500  103.5360 C.3   106  GLU106      0.1161
      7  CD        46.9520   77.0100  102.7290 C.2   106  GLU106      0.3649
      8  OE1       45.8440   77.1120  103.3030 O.co2 106  GLU106     -0.2457
      9  OE2       47.1180   77.2780  101.5200 O.co2 106  GLU106     -0.2457
     10  N         45.7040   78.3420  106.4150 N.am  107  ASP107     -0.1960
     11  CA        44.6650   78.3540  107.4350 C.3   107  ASP107      0.1840
     12  C         44.2080   76.9320  107.7580 C.2   107  ASP107      0.2622
     13  O         44.2540   76.5060  108.9120 O.2   107  ASP107     -0.2715
     14  CB        43.4730   79.2140  106.9950 C.3   107  ASP107      0.1450
     15  CG        43.0430   78.9400  105.5620 C.2   107  ASP107      0.3671
     16  OD1       43.8870   78.5050  104.7510 O.co2 107  ASP107     -0.2456
     17  OD2       41.8570   79.1640  105.2470 O.co2 107  ASP107     -0.2456
     18  N         43.7690   76.2010  106.7370 N.am  108  VAL108     -0.1963
     19  CA        43.3100   74.8260  106.9140 C.3   108  VAL108      0.1727
     20  C         43.8640   73.9100  105.8300 C.2   108  VAL108      0.2616
     21  O         43.8720   74.2650  104.6530 O.2   108  VAL108     -0.2715
     22  CB        41.7680   74.7280  106.8890 C.3   108  VAL108      0.0290
     23  CG1       41.3200   73.3010  107.1530 C.3   108  VAL108      0.0023
     24  CG2       41.1590   75.6570  107.9080 C.3   108  VAL108      0.0023
     25  N         44.3320   72.7310  106.2240 N.am  109  VAL109     -0.1963
     26  CA        44.7020   71.7170  105.2480 C.3   109  VAL109      0.1727
     27  C         43.7310   70.5460  105.3260 C.2   109  VAL109      0.2616
     28  O         43.6560   69.8460  106.3380 O.2   109  VAL109     -0.2715
     29  CB        46.1370   71.2090  105.4480 C.3   109  VAL109      0.0290
     30  CG1       46.4420   70.1050  104.4490 C.3   109  VAL109      0.0023
     31  CG2       47.1260   72.3470  105.2870 C.3   109  VAL109      0.0023
     32  N         42.9770   70.3570  104.2490 N.am  110  ASP110     -0.1957
     33  CA        42.0130   69.2710  104.1550 C.3   110  ASP110      0.1840
     34  C         42.4800   68.3050  103.0700 C.2   110  ASP110      0.2623
     35  O         43.2750   67.4080  103.3370 O.2   110  ASP110     -0.2715
     36  CB        40.6140   69.8210  103.8550 C.3   110  ASP110      0.1450
     37  CG        39.5170   68.8020  104.0950 C.2   110  ASP110      0.3671
     38  OD1       39.8220   67.6890  104.5740 O.co2 110  ASP110     -0.2456
     39  OD2       38.3420   69.1230  103.8130 O.co2 110  ASP110     -0.2456
     40  N         42.0060   68.5060  101.8440 N.am  111  SER111     -0.1936
     41  CA        42.4620   67.7140  100.7080 C.3   111  SER111      0.2055
     42  C         43.9290   68.0040  100.3900 C.2   111  SER111      0.2644
     43  O         44.6920   67.1000  100.0490 O.2   111  SER111     -0.2714
     44  CB        41.6010   67.9950   99.4810 C.3   111  SER111      0.2130
     45  OG        41.8020   69.3220   99.0280 O.3   111  SER111     -0.2179
     46  N         44.3090   69.2750  100.4920 N.am  112  GLY112     -0.1939
     47  CA        45.6860   69.6910  100.2840 C.3   112  GLY112      0.2014
     48  C         46.1230   69.7790   98.8310 C.2   112  GLY112      0.2639
     49  O         47.3120   69.9350   98.5500 O.2   112  GLY112     -0.2714
     50  N         45.1690   69.6870   97.9070 N.am  113  LEU113     -0.1963
     51  CA        45.4850   69.6600   96.4790 C.3   113  LEU113      0.1728
     52  C         46.1040   70.9650   95.9750 C.2   113  LEU113      0.2617
     53  O         47.1330   70.9500   95.2990 O.2   113  LEU113     -0.2715
     54  CB        44.2290   69.3420   95.6690 C.3   113  LEU113      0.0311
     55  CG        43.7840   67.8810   95.6810 C.3   113  LEU113      0.0022
     56  CD1       42.4220   67.7390   95.0250 C.3   113  LEU113      0.0001
     57  CD2       44.8130   67.0000   94.9870 C.3   113  LEU113      0.0001
     58  N         45.4710   72.0880   96.2960 N.am  114  THR114     -0.1937
     59  CA        45.9840   73.3940   95.8900 C.3   114  THR114      0.2028
     60  C         47.3000   73.7010   96.6040 C.2   114  THR114      0.2642
     61  O         48.2070   74.3110   96.0300 O.2   114  THR114     -0.2714
     62  CB        44.9640   74.5140   96.1760 C.3   114  THR114      0.1808
     63  OG1       43.7710   74.2780   95.4170 O.3   114  THR114     -0.2208
     64  CG2       45.5340   75.8730   95.7970 C.3   114  THR114      0.0379
     65  N         47.4020   73.2650   97.8550 N.am  115  LEU115     -0.1977
     66  CA        48.6290   73.4290   98.6230 C.3   115  LEU115      0.1596
     67  C         49.7630   72.6150   98.0040 C.2   115  LEU115      0.2287
     68  O         50.9040   73.0780   97.9210 O.2   115  LEU115     -0.2864
     69  CB        48.4140   73.0140  100.0800 C.3   115  LEU115      0.0297
     70  CG        49.6710   73.0390  100.9520 C.3   115  LEU115      0.0022
     71  CD1       50.1580   74.4690  101.1380 C.3   115  LEU115      0.0001
     72  CD2       49.4220   72.3640  102.2890 C.3   115  LEU115      0.0001
     73  N         42.9310   68.8450  108.9960 N.3   138  LYS138     -0.1245
     74  CA        41.7790   67.9530  109.0370 C.3   138  LYS138      0.1561
     75  C         42.2110   66.5130  108.7440 C.2   138  LYS138      0.2260
     76  O         43.2870   66.2960  108.1870 O.2   138  LYS138     -0.2867
     77  CB        40.7130   68.4250  108.0420 C.3   138  LYS138      0.0271
     78  CG        40.0180   69.7120  108.4550 C.3   138  LYS138      0.0035
     79  CD        38.6380   69.8230  107.8270 C.3   138  LYS138      0.0206
     80  CE        37.9100   71.0580  108.3250 C.3   138  LYS138      0.1093
     81  NZ        36.5110   71.1250  107.8270 N.3   138  LYS138     -0.1314
     82  N         32.8750   71.4050  109.1510 N.3   159  PHE159     -0.1227
     83  CA        33.1290   72.7140  108.5590 C.3   159  PHE159      0.1736
     84  C         33.1180   73.8110  109.6270 C.2   159  PHE159      0.2595
     85  O         32.1270   73.9970  110.3360 O.2   159  PHE159     -0.2718
     86  CB        32.0930   73.0170  107.4680 C.3   159  PHE159      0.0547
     87  CG        32.3980   74.2560  106.6650 C.ar  159  PHE159     -0.0202
     88  CD1       31.9180   75.4960  107.0630 C.ar  159  PHE159     -0.0042
     89  CD2       33.1620   74.1790  105.5100 C.ar  159  PHE159     -0.0042
     90  CE1       32.1960   76.6330  106.3270 C.ar  159  PHE159     -0.0003
     91  CE2       33.4450   75.3130  104.7700 C.ar  159  PHE159     -0.0003
     92  CZ        32.9630   76.5410  105.1790 C.ar  159  PHE159     -0.0000
     93  N         34.2230   74.5390  109.7370 N.am  160  VAL160     -0.1980
     94  CA        34.3430   75.5680  110.7620 C.3   160  VAL160      0.1595
     95  C         34.5240   76.9600  110.1600 C.2   160  VAL160      0.2287
     96  O         35.0270   77.1080  109.0480 O.2   160  VAL160     -0.2864
     97  CB        35.5190   75.2710  111.7150 C.3   160  VAL160      0.0276
     98  CG1       35.2590   73.9930  112.4930 C.3   160  VAL160      0.0022
     99  CG2       36.8180   75.1640  110.9400 C.3   160  VAL160      0.0022
    100  N         38.6100   82.2280  108.5250 N.3   165  LEU165     -0.1231
    101  CA        37.8180   81.2320  107.8050 C.3   165  LEU165      0.1693
    102  C         36.3920   81.7240  107.5900 C.2   165  LEU165      0.2592
    103  O         35.8040   82.3520  108.4700 O.2   165  LEU165     -0.2718
    104  CB        37.8050   79.9000  108.5560 C.3   165  LEU165      0.0284
    105  CG        39.0070   78.9560  108.4610 C.3   165  LEU165      0.0019
    106  CD1       40.3090   79.6140  108.8910 C.3   165  LEU165      0.0001
    107  CD2       38.7280   77.7420  109.3170 C.3   165  LEU165      0.0001
    108  N         35.8320   81.4230  106.4250 N.am  166  ASP166     -0.1974
    109  CA        34.5610   82.0160  106.0280 C.3   166  ASP166      0.1709
    110  C         33.4670   81.0190  105.6720 C.2   166  ASP166      0.2293
    111  O         33.7040   79.8190  105.5280 O.2   166  ASP166     -0.2864
    112  CB        34.7680   82.9350  104.8210 C.3   166  ASP166      0.1436
    113  CG        35.0220   82.1580  103.5440 C.2   166  ASP166      0.3671
    114  OD1       35.8370   81.2100  103.5860 O.co2 166  ASP166     -0.2456
    115  OD2       34.4000   82.4760  102.5070 O.co2 166  ASP166     -0.2456
@<TRIPOS>BOND
     1    57    55    1
     2    56    55    1
     3    53    52    2
     4    63    62    1
     5    54    55    1
     6    54    51    1
     7    64    62    1
     8    59    62    1
     9    59    58    1
    10    59    60    1
    11    52    58   am
    12    52    51    1
    13    61    60    2
    14    51    50    1
    15    60    65   am
    16    65    66    1
    17    50    48   am
    18    68    67    2
    19    67    66    1
    20    49    48    2
    21    66    69    1
    22    48    47    1
    23    45    44    1
    24    44    41    1
    25    43    42    2
    26    69    70    1
    27    47    46    1
    28    42    46   am
    29    42    41    1
    30    41    40    1
    31    70    71    1
    32    70    72    1
    33     9     7   ar
    34    40    34   am
    35   115   113   ar
    36     7     8   ar
    37     7     6    1
    38    34    35    2
    39    34    33    1
    40     6     5    1
    41   113   114   ar
    42   113   112    1
    43    39    37   ar
    44    36    37    1
    45    36    33    1
    46    37    38   ar
    47    33    32    1
    48    32    27   am
    49    30    29    1
    50    21    20    2
    51    16    15   ar
    52    91    92   ar
    53    91    89   ar
    54   112   109    1
    55     5     2    1
    56    92    90   ar
    57    17    15   ar
    58    26    27    1
    59    26    29    1
    60    26    25    1
    61    31    29    1
    62    27    28    2
    63    89    87   ar
    64   111   110    2
    65    15    14    1
    66     2     1    1
    67     2     3    1
    68   110   109    1
    69    20    25   am
    70    20    19    1
    71   109   108    1
    72    90    88   ar
    73    10     3   am
    74    10    11    1
    75   108   102   am
    76    87    88   ar
    77    87    86    1
    78     3     4    2
    79    18    19    1
    80    18    12   am
    81    22    19    1
    82    22    23    1
    83    22    24    1
    84    14    11    1
    85    11    12    1
    86    86    83    1
    87   102   101    1
    88   102   103    2
    89    12    13    2
    90   101   100    1
    91   101   104    1
    92    81    80    1
    93    79    80    1
    94    79    78    1
    95    77    78    1
    96    77    74    1
    97    76    75    2
    98   105   104    1
    99   105   106    1
   100   105   107    1
   101    83    82    1
   102    83    84    1
   103    75    74    1
   104    73    74    1
   105    96    95    2
   106    84    93   am
   107    84    85    2
   108    93    94    1
   109    95    94    1
   110    94    97    1
   111    99    97    1
   112    97    98    1
