@<TRIPOS>MOLECULE
tmp/5knrB00.pdb
 166 160 0 0 0
SMALL
GASTEIGER

@<TRIPOS>ATOM
      1  N        -29.2920   33.4920  -42.7750 N.3    40  LEU40      -0.1231
      2  CA       -29.5140   34.4840  -43.8200 C.3    40  LEU40       0.1693
      3  C        -28.8040   35.7910  -43.4820 C.2    40  LEU40       0.2592
      4  O        -29.2860   36.5840  -42.6740 O.2    40  LEU40      -0.2718
      5  CB       -31.0110   34.7230  -44.0270 C.3    40  LEU40       0.0284
      6  CG       -31.6960   33.8830  -45.1100 C.3    40  LEU40       0.0019
      7  CD1      -31.4640   32.3960  -44.8940 C.3    40  LEU40       0.0001
      8  CD2      -33.1860   34.1860  -45.1620 C.3    40  LEU40       0.0001
      9  N        -27.6510   35.9980  -44.1100 N.am   41  LEU41      -0.1966
     10  CA       -26.8170   37.1720  -43.8740 C.3    41  LEU41       0.1728
     11  C        -27.5220   38.4680  -44.2800 C.2    41  LEU41       0.2616
     12  O        -28.3360   38.4670  -45.2040 O.2    41  LEU41      -0.2715
     13  CB       -25.4950   37.0180  -44.6300 C.3    41  LEU41       0.0311
     14  CG       -24.6170   35.8780  -44.1150 C.3    41  LEU41       0.0022
     15  CD1      -23.3590   35.7580  -44.9480 C.3    41  LEU41       0.0001
     16  CD2      -24.2790   36.0940  -42.6500 C.3    41  LEU41       0.0001
     17  N        -27.2130   39.5730  -43.5990 N.am   42  ARG42      -0.1963
     18  CA       -26.1980   39.6080  -42.5460 C.3    42  ARG42       0.1729
     19  C        -26.7790   39.4600  -41.1460 C.2    42  ARG42       0.2616
     20  O        -26.2310   38.7380  -40.3140 O.2    42  ARG42      -0.2715
     21  CB       -25.4000   40.9110  -42.6250 C.3    42  ARG42       0.0348
     22  CG       -24.4200   40.9740  -43.7830 C.3    42  ARG42       0.0492
     23  CD       -23.6640   42.2910  -43.7870 C.3    42  ARG42       0.2205
     24  NE       -24.5230   43.4120  -44.1560 N.pl3  42  ARG42      -0.0865
     25  CZ       -24.1420   44.6850  -44.1300 C.cat  42  ARG42       0.5346
     26  NH1      -22.9140   45.0040  -43.7440 N.pl3  42  ARG42       0.1354
     27  NH2      -24.9900   45.6400  -44.4860 N.pl3  42  ARG42       0.1354
     28  N        -27.8970   40.1340  -40.8960 N.am   43  GLY43      -0.1955
     29  CA       -28.4420   40.2580  -39.5550 C.3    43  GLY43       0.1869
     30  C        -28.9050   38.9960  -38.8490 C.2    43  GLY43       0.2309
     31  O        -29.7820   39.0560  -37.9900 O.2    43  GLY43      -0.2863
     32  N        -33.1690   32.8420  -39.3280 N.3    93  GLU93      -0.1231
     33  CA       -33.3930   34.2360  -39.6930 C.3    93  GLU93       0.1699
     34  C        -33.7060   35.0530  -38.4410 C.2    93  GLU93       0.2592
     35  O        -34.1250   34.5010  -37.4260 O.2    93  GLU93      -0.2718
     36  CB       -34.5300   34.3380  -40.7200 C.3    93  GLU93       0.0402
     37  CG       -34.8740   35.7500  -41.2060 C.3    93  GLU93       0.1161
     38  CD       -33.8250   36.3470  -42.1330 C.2    93  GLU93       0.3649
     39  OE1      -34.1760   36.6730  -43.2870 O.co2  93  GLU93      -0.2457
     40  OE2      -32.6600   36.5090  -41.7100 O.co2  93  GLU93      -0.2457
     41  N        -33.4900   36.3630  -38.5060 N.am   94  ASP94      -0.1960
     42  CA       -33.7670   37.2380  -37.3750 C.3    94  ASP94       0.1840
     43  C        -35.2120   37.7370  -37.3630 C.2    94  ASP94       0.2622
     44  O        -35.8960   37.6430  -36.3450 O.2    94  ASP94      -0.2715
     45  CB       -32.8050   38.4290  -37.3770 C.3    94  ASP94       0.1450
     46  CG       -32.7810   39.1600  -38.7070 C.2    94  ASP94       0.3671
     47  OD1      -33.1060   38.5350  -39.7390 O.co2  94  ASP94      -0.2456
     48  OD2      -32.4370   40.3610  -38.7220 O.co2  94  ASP94      -0.2456
     49  N        -35.6730   38.2660  -38.4930 N.am   95  ILE95      -0.1963
     50  CA       -37.0060   38.8560  -38.5730 C.3    95  ILE95       0.1727
     51  C        -37.8500   38.2440  -39.6860 C.2    95  ILE95       0.2616
     52  O        -37.3740   38.0410  -40.8030 O.2    95  ILE95      -0.2715
     53  CB       -36.9380   40.3820  -38.8060 C.3    95  ILE95       0.0290
     54  CG1      -36.0190   41.0500  -37.7850 C.3    95  ILE95       0.0022
     55  CG2      -38.3300   41.0030  -38.7510 C.3    95  ILE95       0.0023
     56  CD1      -35.9850   42.5550  -37.9120 C.3    95  ILE95       0.0001
     57  N        -39.1070   37.9540  -39.3710 N.am   96  ILE96      -0.1963
     58  CA       -40.0740   37.5350  -40.3740 C.3    96  ILE96       0.1727
     59  C        -41.3460   38.3700  -40.2240 C.2    96  ILE96       0.2616
     60  O        -41.8570   38.5540  -39.1190 O.2    96  ILE96      -0.2715
     61  CB       -40.3970   36.0230  -40.2640 C.3    96  ILE96       0.0290
     62  CG1      -41.3990   35.6030  -41.3400 C.3    96  ILE96       0.0022
     63  CG2      -40.9040   35.6640  -38.8750 C.3    96  ILE96       0.0023
     64  CD1      -40.8120   35.5750  -42.7290 C.3    96  ILE96       0.0001
     65  N        -41.8360   38.9080  -41.3350 N.am   97  ASP97      -0.1957
     66  CA       -43.0600   39.7000  -41.3150 C.3    97  ASP97       0.1840
     67  C        -43.8430   39.5470  -42.6130 C.2    97  ASP97       0.2623
     68  O        -44.8970   38.9170  -42.6270 O.2    97  ASP97      -0.2715
     69  CB       -42.7490   41.1780  -41.0470 C.3    97  ASP97       0.1450
     70  CG       -41.5600   41.6830  -41.8380 C.2    97  ASP97       0.3671
     71  OD1      -40.6360   40.8860  -42.0980 O.co2  97  ASP97      -0.2456
     72  OD2      -41.5540   42.8770  -42.2050 O.co2  97  ASP97      -0.2456
     73  N        -43.3290   40.1150  -43.7000 N.am   98  SER98      -0.1936
     74  CA       -44.0020   40.0270  -44.9900 C.3    98  SER98       0.2055
     75  C        -43.9530   38.6010  -45.5260 C.2    98  SER98       0.2644
     76  O        -44.8560   38.1640  -46.2390 O.2    98  SER98      -0.2714
     77  CB       -43.3770   40.9950  -45.9960 C.3    98  SER98       0.2130
     78  OG       -42.0820   40.5680  -46.3770 O.3    98  SER98      -0.2179
     79  N        -42.8930   37.8800  -45.1760 N.am   99  GLY99      -0.1939
     80  CA       -42.7460   36.4970  -45.5840 C.3    99  GLY99       0.2014
     81  C        -42.2590   36.3460  -47.0090 C.2    99  GLY99       0.2639
     82  O        -42.2300   35.2390  -47.5430 O.2    99  GLY99      -0.2714
     83  N        -41.8730   37.4580  -47.6250 N.am  100  ASN100     -0.1958
     84  CA       -41.4150   37.4460  -49.0090 C.3   100  ASN100      0.1819
     85  C        -40.1130   36.6770  -49.1910 C.2   100  ASN100      0.2621
     86  O        -40.0410   35.7420  -49.9870 O.2   100  ASN100     -0.2715
     87  CB       -41.2450   38.8760  -49.5240 C.3   100  ASN100      0.1195
     88  CG       -42.5390   39.4610  -50.0570 C.2   100  ASN100      0.2630
     89  OD1      -43.6280   39.0630  -49.6450 O.2   100  ASN100     -0.2716
     90  ND2      -42.4260   40.4070  -50.9810 N.am  100  ASN100     -0.0877
     91  N        -39.0900   37.0720  -48.4420 N.am  101  THR101     -0.1951
     92  CA       -37.7650   36.4740  -48.5700 C.3   101  THR101      0.1897
     93  C        -37.7550   34.9960  -48.1870 C.2   101  THR101      0.2313
     94  O        -37.2480   34.1610  -48.9360 O.2   101  THR101     -0.2863
     95  CB       -36.7330   37.2170  -47.7050 C.3   101  THR101      0.1794
     96  OG1      -37.1800   37.2380  -46.3430 O.3   101  THR101     -0.2208
     97  CG2      -36.5620   38.6460  -48.1990 C.3   101  THR101      0.0378
     98  N        -43.3540   39.4160  -36.9650 N.3   125  LYS125     -0.1245
     99  CA       -44.4410   40.3820  -37.0660 C.3   125  LYS125      0.1561
    100  C        -45.5730   39.8000  -37.9070 C.2   125  LYS125      0.2260
    101  O        -45.5610   39.9140  -39.1320 O.2   125  LYS125     -0.2867
    102  CB       -43.9500   41.6970  -37.6750 C.3   125  LYS125      0.0271
    103  CG       -42.7740   42.3280  -36.9490 C.3   125  LYS125      0.0035
    104  CD       -42.3860   43.6520  -37.5880 C.3   125  LYS125      0.0206
    105  CE       -41.1810   44.2700  -36.8990 C.3   125  LYS125      0.1093
    106  NZ       -40.8280   45.5990  -37.4740 N.3   125  LYS125     -0.1314
    107  N        -47.8460   41.8840  -40.8220 N.3   128  ARG128     -0.1245
    108  CA       -47.4140   42.2790  -42.1590 C.3   128  ARG128      0.1563
    109  C        -47.3940   41.1060  -43.1330 C.2   128  ARG128      0.2260
    110  O        -46.8540   41.2170  -44.2330 O.2   128  ARG128     -0.2867
    111  CB       -46.0270   42.9200  -42.0980 C.3   128  ARG128      0.0307
    112  CG       -45.7910   43.7730  -40.8640 C.3   128  ARG128      0.0489
    113  CD       -44.9760   45.0090  -41.1990 C.3   128  ARG128      0.2205
    114  NE       -43.7490   44.6810  -41.9190 N.pl3 128  ARG128     -0.0865
    115  CZ       -43.0260   45.5640  -42.6000 C.cat 128  ARG128      0.5346
    116  NH1      -41.9230   45.1800  -43.2270 N.pl3 128  ARG128      0.1354
    117  NH2      -43.4080   46.8330  -42.6540 N.pl3 128  ARG128      0.1354
    118  N        -40.6510   49.1070  -35.3290 N.3   146  PHE146     -0.1227
    119  CA       -39.3510   49.0280  -35.9810 C.3   146  PHE146      0.1736
    120  C        -38.2610   48.8400  -34.9340 C.2   146  PHE146      0.2595
    121  O        -38.0090   49.7260  -34.1170 O.2   146  PHE146     -0.2718
    122  CB       -39.0740   50.2720  -36.8250 C.3   146  PHE146      0.0547
    123  CG       -37.9790   50.0800  -37.8360 C.ar  146  PHE146     -0.0202
    124  CD1      -38.2690   49.6310  -39.1140 C.ar  146  PHE146     -0.0042
    125  CD2      -36.6580   50.3350  -37.5050 C.ar  146  PHE146     -0.0042
    126  CE1      -37.2640   49.4470  -40.0460 C.ar  146  PHE146     -0.0003
    127  CE2      -35.6480   50.1530  -38.4320 C.ar  146  PHE146     -0.0003
    128  CZ       -35.9520   49.7080  -39.7050 C.ar  146  PHE146     -0.0000
    129  N        -37.6180   47.6780  -34.9640 N.am  147  VAL147     -0.1980
    130  CA       -36.6290   47.3260  -33.9550 C.3   147  VAL147      0.1595
    131  C        -35.2180   47.2480  -34.5300 C.2   147  VAL147      0.2287
    132  O        -35.0330   47.1120  -35.7410 O.2   147  VAL147     -0.2864
    133  CB       -36.9680   45.9780  -33.2940 C.3   147  VAL147      0.0276
    134  CG1      -38.3670   46.0150  -32.7160 C.3   147  VAL147      0.0022
    135  CG2      -36.8460   44.8520  -34.3050 C.3   147  VAL147      0.0022
    136  N        -27.9670   42.1420  -34.5070 N.3   151  GLY151     -0.1210
    137  CA       -27.8260   41.8560  -35.9230 C.3   151  GLY151      0.1956
    138  C        -28.7000   42.7420  -36.7890 C.2   151  GLY151      0.2612
    139  O        -28.3540   43.0500  -37.9290 O.2   151  GLY151     -0.2717
    140  N        -29.8400   43.1500  -36.2420 N.am  152  ILE152     -0.1965
    141  CA       -30.7760   44.0100  -36.9570 C.3   152  ILE152      0.1727
    142  C        -30.2770   45.4490  -36.9740 C.2   152  ILE152      0.2616
    143  O        -29.8670   45.9840  -35.9440 O.2   152  ILE152     -0.2715
    144  CB       -32.1730   43.9580  -36.3220 C.3   152  ILE152      0.0290
    145  CG1      -32.6180   42.5040  -36.1490 C.3   152  ILE152      0.0022
    146  CG2      -33.1690   44.7420  -37.1610 C.3   152  ILE152      0.0023
    147  CD1      -33.7220   42.3200  -35.1330 C.3   152  ILE152      0.0001
    148  N        -30.3210   46.0780  -38.1440 N.am  153  ASP153     -0.1971
    149  CA       -29.7280   47.3990  -38.3130 C.3   153  ASP153      0.1709
    150  C        -30.7310   48.4790  -38.7000 C.2   153  ASP153      0.2293
    151  O        -31.8540   48.1900  -39.1160 O.2   153  ASP153     -0.2864
    152  CB       -28.6270   47.3460  -39.3720 C.3   153  ASP153      0.1436
    153  CG       -29.1790   47.3250  -40.7850 C.2   153  ASP153      0.3671
    154  OD1      -29.2290   48.4000  -41.4220 O.co2 153  ASP153     -0.2456
    155  OD2      -29.5700   46.2360  -41.2560 O.co2 153  ASP153     -0.2456
    156  N        -25.9990   47.0700  -35.1380 N.3   159  ARG159     -0.1245
    157  CA       -25.9020   45.6340  -35.3780 C.3   159  ARG159      0.1563
    158  C        -25.1880   44.9130  -34.2400 C.2   159  ARG159      0.2260
    159  O        -25.3660   43.7100  -34.0470 O.2   159  ARG159     -0.2867
    160  CB       -25.1770   45.3560  -36.6960 C.3   159  ARG159      0.0307
    161  CG       -26.0830   45.3260  -37.9100 C.3   159  ARG159      0.0489
    162  CD       -25.4290   44.5810  -39.0610 C.3   159  ARG159      0.2205
    163  NE       -26.3860   44.2480  -40.1120 N.pl3 159  ARG159     -0.0865
    164  CZ       -26.5240   44.9330  -41.2420 C.cat 159  ARG159      0.5346
    165  NH1      -25.7620   45.9910  -41.4760 N.pl3 159  ARG159      0.1354
    166  NH2      -27.4220   44.5560  -42.1430 N.pl3 159  ARG159      0.1354
@<TRIPOS>BOND
     1    90    88   am
     2    88    89    2
     3    88    87    1
     4    86    85    2
     5    87    84    1
     6    85    84    1
     7    85    91   am
     8    84    83    1
     9    94    93    2
    10    92    91    1
    11    92    93    1
    12    92    95    1
    13    97    95    1
    14    95    96    1
    15    83    81   am
    16    82    81    2
    17    81    80    1
    18    78    77    1
    19    76    75    2
    20    77    74    1
    21    80    79    1
    22    75    79   am
    23    75    74    1
    24    12    11    2
    25     8     6    1
    26     6     7    1
    27     6     5    1
    28    74    73    1
    29    15    14    1
    30    13    14    1
    31    13    10    1
    32    27    25    1
    33    11    10    1
    34    11    17   am
    35   110   109    2
    36    24    25    2
    37    24    23    1
    38    25    26    1
    39    14    16    1
    40     9    10    1
    41     9     3   am
    42     5     2    1
    43     2     3    1
    44     2     1    1
    45    23    22    1
    46    22    21    1
    47    73    67   am
    48    17    18    1
    49     3     4    2
    50    39    38   ar
    51   116   115    1
    52   109   108    1
    53    64    62    1
    54   117   115    1
    55    68    67    2
    56    21    18    1
    57    67    66    1
    58   115   114    2
    59    18    19    1
    60    72    70   ar
    61   108   111    1
    62   108   107    1
    63   166   164    1
    64    38    40   ar
    65    38    37    1
    66   111   112    1
    67    71    70   ar
    68   114   113    1
    69    70    69    1
    70   165   164    1
    71   154   153   ar
    72    62    61    1
    73    65    66    1
    74    65    59   am
    75    66    69    1
    76   155   153   ar
    77   164   163    2
    78    37    36    1
    79   113   112    1
    80    19    28   am
    81    19    20    2
    82    28    29    1
    83    52    51    2
    84   153   152    1
    85    36    33    1
    86    58    61    1
    87    58    59    1
    88    58    57    1
    89    61    63    1
    90    59    60    2
    91   163   162    1
    92   126   128   ar
    93   126   124   ar
    94    47    46   ar
    95   128   127   ar
    96    33    32    1
    97    33    34    1
    98    51    57   am
    99    51    50    1
   100    29    30    1
   101   152   149    1
   102   101   100    2
   103   151   150    2
   104   124   123   ar
   105   162   161    1
   106    30    31    2
   107    53    55    1
   108    53    50    1
   109    53    54    1
   110    48    46   ar
   111    46    45    1
   112   150   149    1
   113    50    49    1
   114    41    34   am
   115    41    42    1
   116    49    43   am
   117    34    35    2
   118   127   125   ar
   119   149   148    1
   120   148   142   am
   121   139   138    2
   122    56    54    1
   123   161   160    1
   124   100    99    1
   125   123   125   ar
   126   123   122    1
   127   102    99    1
   128   102   103    1
   129   104   103    1
   130   104   105    1
   131   106   105    1
   132    45    42    1
   133    42    43    1
   134    43    44    2
   135   146   144    1
   136    99    98    1
   137   142   141    1
   138   142   143    2
   139   141   144    1
   140   141   140    1
   141   122   119    1
   142   138   140   am
   143   138   137    1
   144   160   157    1
   145   144   145    1
   146   145   147    1
   147   119   118    1
   148   119   120    1
   149   137   136    1
   150   132   131    2
   151   157   156    1
   152   157   158    1
   153   129   120   am
   154   129   130    1
   155   120   121    2
   156   131   130    1
   157   135   133    1
   158   158   159    2
   159   130   133    1
   160   133   134    1
