@<TRIPOS>MOLECULE
tmp/5knsA01.pdb
 93 90 0 0 0
SMALL
GASTEIGER

@<TRIPOS>ATOM
      1  N        -36.4030   17.9530  -31.5010 N.3    29  ARG29      -0.1231
      2  CA       -36.9750   17.7000  -32.8180 C.3    29  ARG29       0.1694
      3  C        -36.0560   16.8780  -33.7200 C.2    29  ARG29       0.2592
      4  O        -36.5270   16.0950  -34.5450 O.2    29  ARG29      -0.2718
      5  CB       -37.3090   19.0290  -33.5000 C.3    29  ARG29       0.0321
      6  CG       -38.1430   18.9030  -34.7630 C.3    29  ARG29       0.0489
      7  CD       -39.5790   18.5250  -34.4440 C.3    29  ARG29       0.2205
      8  NE       -40.1520   19.3880  -33.4150 N.pl3  29  ARG29      -0.0865
      9  CZ       -40.7930   20.5260  -33.6650 C.cat  29  ARG29       0.5346
     10  NH1      -41.2820   21.2470  -32.6640 N.pl3  29  ARG29       0.1354
     11  NH2      -40.9440   20.9460  -34.9140 N.pl3  29  ARG29       0.1354
     12  N        -34.7470   17.0490  -33.5550 N.am   30  TYR30      -0.1976
     13  CA       -33.7830   16.5060  -34.5100 C.3    30  TYR30       0.1639
     14  C        -32.8180   15.4660  -33.9400 C.2    30  TYR30       0.2290
     15  O        -31.9210   15.0050  -34.6470 O.2    30  TYR30      -0.2864
     16  CB       -32.9680   17.6490  -35.1200 C.3    30  TYR30       0.0560
     17  CG       -33.7520   18.5450  -36.0500 C.ar   30  TYR30      -0.0198
     18  CD1      -34.2990   19.7400  -35.5990 C.ar   30  TYR30      -0.0009
     19  CD2      -33.9380   18.2000  -37.3810 C.ar   30  TYR30      -0.0009
     20  CE1      -35.0130   20.5640  -36.4490 C.ar   30  TYR30       0.0417
     21  CE2      -34.6490   19.0160  -38.2380 C.ar   30  TYR30       0.0417
     22  CZ       -35.1850   20.1960  -37.7670 C.ar   30  TYR30       0.1957
     23  OH       -35.8950   21.0100  -38.6190 O.3    30  TYR30      -0.2866
     24  N        -33.1270   12.2570  -33.0040 N.3    32  ASP32      -0.1225
     25  CA       -33.1940   10.8760  -33.4690 C.3    32  ASP32       0.1805
     26  C        -33.2770   10.7680  -34.9890 C.2    32  ASP32       0.2598
     27  O        -33.7200    9.7490  -35.5200 O.2    32  ASP32      -0.2718
     28  CB       -34.3970   10.1680  -32.8410 C.3    32  ASP32       0.1424
     29  CG       -34.3810   10.2250  -31.3260 C.2    32  ASP32       0.3668
     30  OD1      -33.2900   10.4120  -30.7470 O.co2  32  ASP32      -0.2456
     31  OD2      -35.4610   10.0860  -30.7140 O.co2  32  ASP32      -0.2456
     32  N        -32.8450   11.8130  -35.6850 N.am   33  SER33      -0.1952
     33  CA       -32.9460   11.8500  -37.1400 C.3    33  SER33       0.1924
     34  C        -32.0090   10.8480  -37.8080 C.2    33  SER33       0.2314
     35  O        -32.4340   10.0580  -38.6520 O.2    33  SER33      -0.2863
     36  CB       -32.6550   13.2590  -37.6570 C.3    33  SER33       0.2116
     37  OG       -32.8830   13.3430  -39.0530 O.3    33  SER33      -0.2180
     38  N        -31.0930   17.3650  -42.9370 N.3    88  ASP88      -0.1239
     39  CA       -32.0830   18.1520  -42.2140 C.3    88  ASP88       0.1674
     40  C        -31.6250   19.6030  -42.1530 C.2    88  ASP88       0.2266
     41  O        -30.5840   19.9090  -41.5730 O.2    88  ASP88      -0.2867
     42  CB       -32.3000   17.6000  -40.8050 C.3    88  ASP88       0.1410
     43  CG       -33.0060   16.2600  -40.8070 C.2    88  ASP88       0.3668
     44  OD1      -34.0070   16.1130  -41.5410 O.co2  88  ASP88      -0.2456
     45  OD2      -32.5600   15.3530  -40.0770 O.co2  88  ASP88      -0.2456
     46  N        -33.7970   16.3780  -46.7630 N.3   115  LYS115     -0.1231
     47  CA       -34.6970   15.4590  -46.0720 C.3   115  LYS115      0.1693
     48  C        -35.8320   16.2190  -45.3970 C.2   115  LYS115      0.2593
     49  O        -36.9970   15.8280  -45.4840 O.2   115  LYS115     -0.2718
     50  CB       -33.9350   14.6280  -45.0400 C.3   115  LYS115      0.0285
     51  CG       -34.8000   13.6110  -44.3160 C.3   115  LYS115      0.0035
     52  CD       -34.0420   12.9490  -43.1800 C.3   115  LYS115      0.0206
     53  CE       -34.8900   11.8900  -42.4970 C.3   115  LYS115      0.1093
     54  NZ       -34.1380   11.1920  -41.4180 N.3   115  LYS115     -0.1314
     55  N        -35.4810   17.3090  -44.7240 N.am  116  SER116     -0.1938
     56  CA       -36.4680   18.1740  -44.0910 C.3   116  SER116      0.2055
     57  C        -36.0570   19.6320  -44.2410 C.2   116  SER116      0.2643
     58  O        -34.8870   19.9360  -44.4800 O.2   116  SER116     -0.2714
     59  CB       -36.6360   17.8180  -42.6140 C.3   116  SER116      0.2130
     60  OG       -35.4580   18.1040  -41.8810 O.3   116  SER116     -0.2179
     61  N        -37.0220   20.5320  -44.0980 N.am  117  LEU117     -0.1963
     62  CA       -36.7610   21.9540  -44.2620 C.3   117  LEU117      0.1728
     63  C        -37.6280   22.7730  -43.3120 C.2   117  LEU117      0.2616
     64  O        -38.8480   22.8350  -43.4650 O.2   117  LEU117     -0.2715
     65  CB       -37.0060   22.3710  -45.7140 C.3   117  LEU117      0.0311
     66  CG       -36.5140   23.7460  -46.1630 C.3   117  LEU117      0.0022
     67  CD1      -35.0450   23.9270  -45.8280 C.3   117  LEU117      0.0001
     68  CD2      -36.7370   23.9050  -47.6550 C.3   117  LEU117      0.0001
     69  N        -36.9890   23.3930  -42.3260 N.am  118  ALA118     -0.1977
     70  CA       -37.7020   24.1850  -41.3320 C.3   118  ALA118      0.1597
     71  C        -37.0770   25.5660  -41.1730 C.2   118  ALA118      0.2287
     72  O        -35.9450   25.8010  -41.5970 O.2   118  ALA118     -0.2864
     73  CB       -37.7270   23.4590  -39.9980 C.3   118  ALA118      0.0319
     74  N        -41.4630   27.1920  -37.9650 N.3   136  GLU136     -0.1231
     75  CA       -41.5830   26.1820  -36.9190 C.3   136  GLU136      0.1699
     76  C        -41.1090   26.6790  -35.5550 C.2   136  GLU136      0.2592
     77  O        -41.7020   26.3470  -34.5290 O.2   136  GLU136     -0.2718
     78  CB       -40.8050   24.9220  -37.3130 C.3   136  GLU136      0.0402
     79  CG       -41.4720   24.0880  -38.4030 C.3   136  GLU136      0.1161
     80  CD       -41.2170   24.6160  -39.8060 C.2   136  GLU136      0.3649
     81  OE1      -41.6500   23.9560  -40.7740 O.co2 136  GLU136     -0.2457
     82  OE2      -40.5820   25.6830  -39.9450 O.co2 136  GLU136     -0.2457
     83  N        -40.0430   27.4720  -35.5420 N.am  137  PHE137     -0.1976
     84  CA       -39.4840   27.9640  -34.2870 C.3   137  PHE137      0.1639
     85  C        -39.4050   29.4870  -34.2600 C.2   137  PHE137      0.2290
     86  O        -38.6900   30.0950  -35.0570 O.2   137  PHE137     -0.2864
     87  CB       -38.0950   27.3670  -34.0510 C.3   137  PHE137      0.0560
     88  CG       -38.0560   25.8680  -34.1350 C.ar  137  PHE137     -0.0200
     89  CD1      -37.6830   25.2370  -35.3110 C.ar  137  PHE137     -0.0042
     90  CD2      -38.3930   25.0900  -33.0400 C.ar  137  PHE137     -0.0042
     91  CE1      -37.6450   23.8580  -35.3930 C.ar  137  PHE137     -0.0003
     92  CE2      -38.3570   23.7100  -33.1150 C.ar  137  PHE137     -0.0003
     93  CZ       -37.9820   23.0940  -34.2930 C.ar  137  PHE137     -0.0000
@<TRIPOS>BOND
     1    68    66    1
     2    46    47    1
     3    66    67    1
     4    66    65    1
     5    47    48    1
     6    47    50    1
     7    65    62    1
     8    49    48    2
     9    48    55   am
    10    50    51    1
    11    55    56    1
    12    58    57    2
    13    51    52    1
    14    62    61    1
    15    62    63    1
    16    57    61   am
    17    57    56    1
    18    56    59    1
    19    64    63    2
    20    63    69   am
    21    52    53    1
    22    38    39    1
    23    59    60    1
    24    53    54    1
    25    69    70    1
    26    39    40    1
    27    39    42    1
    28    40    41    2
    29    72    71    2
    30    44    43   ar
    31    70    71    1
    32    70    73    1
    33    43    42    1
    34    43    45   ar
    35    81    80   ar
    36    82    80   ar
    37    80    79    1
    38    37    36    1
    39    35    34    2
    40    23    22    1
    41    79    78    1
    42    21    22   ar
    43    21    19   ar
    44    74    75    1
    45    34    33    1
    46    22    20   ar
    47    36    33    1
    48    19    17   ar
    49    78    75    1
    50    33    32    1
    51    75    76    1
    52    20    18   ar
    53    17    18   ar
    54    17    16    1
    55    32    26   am
    56    76    83   am
    57    76    77    2
    58    83    84    1
    59    27    26    2
    60    91    89   ar
    61    91    93   ar
    62    89    88   ar
    63    16    13    1
    64    86    85    2
    65    26    25    1
    66    11     9    1
    67     6     7    1
    68     6     5    1
    69    15    14    2
    70     4     3    2
    71    13    14    1
    72    13    12    1
    73     7     8    1
    74    93    92   ar
    75    84    85    1
    76    84    87    1
    77    88    87    1
    78    88    90   ar
    79     3    12   am
    80     3     2    1
    81     9     8    2
    82     9    10    1
    83     5     2    1
    84    25    24    1
    85    25    28    1
    86    92    90   ar
    87    28    29    1
    88     2     1    1
    89    29    30   ar
    90    29    31   ar
