@<TRIPOS>MOLECULE
tmp/5kntA00.pdb
 149 143 0 0 0
SMALL
GASTEIGER

@<TRIPOS>ATOM
      1  N         40.9080   -8.6820  -15.0270 N.3    42  LEU42      -0.1245
      2  CA        39.9950   -8.2710  -16.0740 C.3    42  LEU42       0.1561
      3  C         39.2380   -7.0300  -15.6220 C.2    42  LEU42       0.2260
      4  O         38.4260   -7.0820  -14.6980 O.2    42  LEU42      -0.2867
      5  CB        39.0320   -9.4030  -16.4310 C.3    42  LEU42       0.0270
      6  CG        39.6860  -10.7800  -16.6090 C.3    42  LEU42       0.0019
      7  CD1       38.6110  -11.8270  -16.8630 C.3    42  LEU42       0.0001
      8  CD2       40.7180  -10.7790  -17.7270 C.3    42  LEU42       0.0001
      9  N         35.8510   -4.5840  -13.2880 N.3    45  GLY45      -0.1225
     10  CA        35.3740   -5.2010  -12.0570 C.3    45  GLY45       0.1811
     11  C         36.3880   -5.7450  -11.0570 C.2    45  GLY45       0.2280
     12  O         36.0970   -5.8380   -9.8690 O.2    45  GLY45      -0.2866
     13  N         39.4670  -12.2380  -11.3590 N.3    92  GLU92      -0.1231
     14  CA        38.1850  -11.7810  -11.8720 C.3    92  GLU92       0.1699
     15  C         37.2170  -11.5600  -10.7230 C.2    92  GLU92       0.2592
     16  O         37.3600  -12.1390   -9.6560 O.2    92  GLU92      -0.2718
     17  CB        37.6360  -12.7940  -12.8800 C.3    92  GLU92       0.0402
     18  CG        36.1870  -12.5700  -13.3370 C.3    92  GLU92       0.1161
     19  CD        36.0160  -11.3650  -14.2610 C.2    92  GLU92       0.3649
     20  OE1       35.4110  -11.5160  -15.3530 O.co2  92  GLU92      -0.2457
     21  OE2       36.4760  -10.2660  -13.8860 O.co2  92  GLU92      -0.2457
     22  N         36.2310  -10.7080  -10.9270 N.am   93  ASP93      -0.1960
     23  CA        35.3140  -10.4040   -9.8480 C.3    93  ASP93       0.1840
     24  C         34.2160  -11.4760   -9.7090 C.2    93  ASP93       0.2622
     25  O         33.9550  -11.9660   -8.6090 O.2    93  ASP93      -0.2715
     26  CB        34.7100   -9.0110  -10.0480 C.3    93  ASP93       0.1450
     27  CG        34.0440   -8.8350  -11.4100 C.2    93  ASP93       0.3671
     28  OD1       34.2030   -9.6970  -12.3050 O.co2  93  ASP93      -0.2456
     29  OD2       33.3540   -7.8110  -11.5860 O.co2  93  ASP93      -0.2456
     30  N         33.5940  -11.8440  -10.8210 N.am   94  ILE94      -0.1963
     31  CA        32.5090  -12.8130  -10.8100 C.3    94  ILE94       0.1727
     32  C         32.5680  -13.7850  -11.9670 C.2    94  ILE94       0.2616
     33  O         32.7760  -13.3870  -13.1070 O.2    94  ILE94      -0.2715
     34  CB        31.1420  -12.1530  -10.9080 C.3    94  ILE94       0.0290
     35  CG1       30.8860  -11.2230   -9.7430 C.3    94  ILE94       0.0022
     36  CG2       30.0420  -13.2190  -10.9600 C.3    94  ILE94       0.0023
     37  CD1       29.6440  -10.3720   -9.9850 C.3    94  ILE94       0.0001
     38  N         32.3360  -15.0570  -11.6800 N.am   95  ILE95      -0.1963
     39  CA        31.9820  -15.9800  -12.7380 C.3    95  ILE95       0.1727
     40  C         30.5360  -16.4390  -12.5230 C.2    95  ILE95       0.2616
     41  O         30.1200  -16.8060  -11.4190 O.2    95  ILE95      -0.2715
     42  CB        32.9360  -17.1770  -12.8130 C.3    95  ILE95       0.0290
     43  CG1       32.5260  -18.0910  -13.9720 C.3    95  ILE95       0.0022
     44  CG2       32.9550  -17.9280  -11.4910 C.3    95  ILE95       0.0023
     45  CD1       33.4940  -19.2470  -14.2060 C.3    95  ILE95       0.0001
     46  N         29.7630  -16.3690  -13.5930 N.am   96  ASP96      -0.1957
     47  CA        28.3570  -16.7110  -13.5620 C.3    96  ASP96       0.1840
     48  C         28.0940  -17.8210  -14.5780 C.2    96  ASP96       0.2623
     49  O         28.1190  -19.0030  -14.2530 O.2    96  ASP96      -0.2715
     50  CB        27.5100  -15.4780  -13.8790 C.3    96  ASP96       0.1450
     51  CG        26.0100  -15.7360  -13.7500 C.2    96  ASP96       0.3671
     52  OD1       25.5990  -16.8950  -13.4940 O.co2  96  ASP96      -0.2456
     53  OD2       25.2410  -14.7620  -13.9100 O.co2  96  ASP96      -0.2456
     54  N         27.8470  -17.3940  -15.8100 N.am   97  SER97      -0.1936
     55  CA        27.5940  -18.2700  -16.9350 C.3    97  SER97       0.2055
     56  C         28.8540  -18.9990  -17.3430 C.2    97  SER97       0.2644
     57  O         28.8010  -20.1480  -17.7740 O.2    97  SER97      -0.2714
     58  CB        27.0740  -17.4690  -18.1190 C.3    97  SER97       0.2130
     59  OG        28.1550  -16.8470  -18.7910 O.3    97  SER97      -0.2179
     60  N         29.9840  -18.3040  -17.2340 N.am   98  GLY98      -0.1939
     61  CA        31.2740  -18.8830  -17.5450 C.3    98  GLY98       0.2014
     62  C         31.7890  -18.4880  -18.9070 C.2    98  GLY98       0.2639
     63  O         32.9200  -18.8190  -19.2710 O.2    98  GLY98      -0.2714
     64  N         30.9730  -17.7660  -19.6630 N.am   99  ASN99      -0.1958
     65  CA        31.3460  -17.4130  -21.0270 C.3    99  ASN99       0.1819
     66  C         32.5980  -16.5600  -21.0810 C.2    99  ASN99       0.2622
     67  O         33.4750  -16.7840  -21.9150 O.2    99  ASN99      -0.2715
     68  CB        30.1930  -16.6930  -21.7300 C.3    99  ASN99       0.1195
     69  CG        29.0030  -17.6100  -21.9830 C.2    99  ASN99       0.2630
     70  OD1       27.8700  -17.2910  -21.6310 O.2    99  ASN99      -0.2716
     71  ND2       29.2630  -18.7610  -22.5890 N.am   99  ASN99      -0.0877
     72  N         32.7010  -15.5950  -20.1760 N.am  100  THR100     -0.1937
     73  CA        33.8000  -14.6460  -20.2500 C.3   100  THR100      0.2028
     74  C         35.1610  -15.2880  -19.9790 C.2   100  THR100      0.2642
     75  O         36.0800  -15.2060  -20.8050 O.2   100  THR100     -0.2714
     76  CB        33.5940  -13.4960  -19.2670 C.3   100  THR100      0.1808
     77  OG1       32.2780  -12.9600  -19.4360 O.3   100  THR100     -0.2208
     78  CG2       34.6340  -12.4060  -19.5150 C.3   100  THR100      0.0379
     79  N         35.2870  -15.9190  -18.8170 N.am  101  LEU101     -0.1977
     80  CA        36.5370  -16.5590  -18.4440 C.3   101  LEU101      0.1596
     81  C         36.8890  -17.6890  -19.4130 C.2   101  LEU101      0.2287
     82  O         38.0690  -17.9630  -19.6680 O.2   101  LEU101     -0.2864
     83  CB        36.4580  -17.0690  -17.0100 C.3   101  LEU101      0.0297
     84  CG        36.5540  -15.9010  -16.0310 C.3   101  LEU101      0.0022
     85  CD1       35.9670  -16.2790  -14.6750 C.3   101  LEU101      0.0001
     86  CD2       38.0120  -15.4990  -15.8980 C.3   101  LEU101      0.0001
     87  N         28.8820  -17.6580   -8.9280 N.3   124  LYS124     -0.1245
     88  CA        27.4950  -18.1220   -8.9920 C.3   124  LYS124      0.1561
     89  C         27.4780  -19.4260   -9.7770 C.2   124  LYS124      0.2260
     90  O         27.5380  -19.4160  -11.0110 O.2   124  LYS124     -0.2867
     91  CB        26.5900  -17.0990   -9.6500 C.3   124  LYS124      0.0271
     92  CG        26.4220  -15.8330   -8.8760 C.3   124  LYS124      0.0035
     93  CD        25.6600  -14.8360   -9.7110 C.3   124  LYS124      0.0206
     94  CE        25.2550  -13.6400   -8.8880 C.3   124  LYS124      0.1093
     95  NZ        24.3180  -12.7760   -9.6440 N.3   124  LYS124     -0.1314
     96  N         23.3810  -21.8840  -13.3880 N.3   127  ARG127     -0.1245
     97  CA        23.3480  -21.2050  -14.6840 C.3   127  ARG127      0.1563
     98  C         24.6490  -21.3270  -15.4910 C.2   127  ARG127      0.2260
     99  O         24.8770  -20.5480  -16.4220 O.2   127  ARG127     -0.2867
    100  CB        23.0340  -19.7160  -14.4900 C.3   127  ARG127      0.0307
    101  CG        21.7910  -19.4160  -13.6730 C.3   127  ARG127      0.0489
    102  CD        21.8210  -17.9700  -13.1800 C.3   127  ARG127      0.2205
    103  NE        21.8900  -17.0040  -14.2780 N.pl3 127  ARG127     -0.0865
    104  CZ        22.1600  -15.7100  -14.1220 C.cat 127  ARG127      0.5346
    105  NH1       22.3990  -15.2190  -12.9110 N.pl3 127  ARG127      0.1354
    106  NH2       22.1990  -14.9050  -15.1780 N.pl3 127  ARG127      0.1354
    107  N         21.9150  -14.2510   -6.5070 N.3   144  GLU144     -0.1231
    108  CA        21.5770  -12.9090   -6.0490 C.3   144  GLU144      0.1699
    109  C         22.2810  -11.8290   -6.8830 C.2   144  GLU144      0.2592
    110  O         23.4160  -12.0180   -7.3200 O.2   144  GLU144     -0.2718
    111  CB        21.9640  -12.7430   -4.5780 C.3   144  GLU144      0.0402
    112  CG        21.4250  -13.8170   -3.6660 C.3   144  GLU144      0.1161
    113  CD        19.9090  -13.8500   -3.6340 C.2   144  GLU144      0.3649
    114  OE1       19.3430  -14.9650   -3.6850 O.co2 144  GLU144     -0.2457
    115  OE2       19.2890  -12.7670   -3.5680 O.co2 144  GLU144     -0.2457
    116  N         21.6240  -10.6960   -7.0950 N.am  145  PHE145     -0.1962
    117  CA        22.2750   -9.5830   -7.7850 C.3   145  PHE145      0.1771
    118  C         23.0220   -8.6890   -6.8010 C.2   145  PHE145      0.2619
    119  O         22.4080   -7.9490   -6.0260 O.2   145  PHE145     -0.2715
    120  CB        21.2820   -8.7360   -8.5660 C.3   145  PHE145      0.0574
    121  CG        21.9420   -7.6720   -9.3730 C.ar  145  PHE145     -0.0200
    122  CD1       21.7240   -6.3300   -9.0970 C.ar  145  PHE145     -0.0042
    123  CD2       22.8260   -8.0170  -10.3930 C.ar  145  PHE145     -0.0042
    124  CE1       22.3630   -5.3420   -9.8440 C.ar  145  PHE145     -0.0003
    125  CE2       23.4680   -7.0420  -11.1450 C.ar  145  PHE145     -0.0003
    126  CZ        23.2420   -5.7010  -10.8690 C.ar  145  PHE145     -0.0000
    127  N         24.3460   -8.7590   -6.8390 N.am  146  VAL146     -0.1977
    128  CA        25.1540   -8.0580   -5.8560 C.3   146  VAL146      0.1596
    129  C         25.9920   -6.9280   -6.4880 C.2   146  VAL146      0.2287
    130  O         26.2150   -6.9020   -7.7080 O.2   146  VAL146     -0.2864
    131  CB        26.0570   -9.0450   -5.1180 C.3   146  VAL146      0.0276
    132  CG1       25.2030  -10.0870   -4.4010 C.3   146  VAL146      0.0022
    133  CG2       26.9910   -9.7040   -6.0890 C.3   146  VAL146      0.0022
    134  N         32.3340   -4.2000   -8.0950 N.3   151  ILE151     -0.1231
    135  CA        31.2200   -4.6380   -8.9150 C.3   151  ILE151      0.1692
    136  C         30.1720   -3.5560   -8.9830 C.2   151  ILE151      0.2592
    137  O         29.7620   -3.0300   -7.9540 O.2   151  ILE151     -0.2718
    138  CB        30.5920   -5.9360   -8.3580 C.3   151  ILE151      0.0266
    139  CG1       31.6490   -7.0340   -8.3070 C.3   151  ILE151      0.0019
    140  CG2       29.4100   -6.3720   -9.1940 C.3   151  ILE151      0.0020
    141  CD1       31.4000   -8.0480   -7.2180 C.3   151  ILE151      0.0001
    142  N         29.7420   -3.2340  -10.1970 N.am  152  ASP152     -0.1974
    143  CA        28.8020   -2.1500  -10.3990 C.3   152  ASP152      0.1709
    144  C         27.3680   -2.5950  -10.6140 C.2   152  ASP152      0.2293
    145  O         27.0790   -3.7560  -10.9280 O.2   152  ASP152     -0.2864
    146  CB        29.2110   -1.3260  -11.6050 C.3   152  ASP152      0.1436
    147  CG        28.9720   -2.0600  -12.9040 C.2   152  ASP152      0.3671
    148  OD1       28.2910   -1.4920  -13.7730 O.co2 152  ASP152     -0.2456
    149  OD2       29.4530   -3.2080  -13.0550 O.co2 152  ASP152     -0.2456
@<TRIPOS>BOND
     1    71    69   am
     2    69    68    1
     3    69    70    2
     4    67    66    2
     5    68    65    1
     6    66    65    1
     7    66    72   am
     8    65    64    1
     9    75    74    2
    10    73    72    1
    11    73    74    1
    12    73    76    1
    13    74    79   am
    14    82    81    2
    15    64    62   am
    16    78    76    1
    17    77    76    1
    18    81    80    1
    19    63    62    2
    20    62    61    1
    21    79    80    1
    22    59    58    1
    23    80    83    1
    24    58    55    1
    25    57    56    2
    26     8     6    1
    27    61    60    1
    28    56    60   am
    29    56    55    1
    30    83    84    1
    31    55    54    1
    32     7     6    1
    33     6     5    1
    34     5     2    1
    35    99    98    2
    36     2     3    1
    37     2     1    1
    38    84    86    1
    39    84    85    1
    40    54    48   am
    41     3     4    2
    42    98    97    1
    43    20    19   ar
    44   106   104    1
    45    97   100    1
    46    97    96    1
    47    48    49    2
    48    48    47    1
    49   100   101    1
    50   103   104    2
    51   103   102    1
    52    19    21   ar
    53    19    18    1
    54    45    43    1
    55   104   105    1
    56    43    42    1
    57    53    51   ar
    58    50    51    1
    59    50    47    1
    60   148   147   ar
    61    51    52   ar
    62   101   102    1
    63    46    47    1
    64    46    40   am
    65    18    17    1
    66     9    10    1
    67    33    32    2
    68   149   147   ar
    69   147   146    1
    70    17    14    1
    71    42    39    1
    72    42    44    1
    73    39    40    1
    74    39    38    1
    75    40    41    2
    76    28    27   ar
    77    10    11    1
    78    32    38   am
    79    32    31    1
    80    14    13    1
    81    14    15    1
    82   146   143    1
    83    29    27   ar
    84    27    26    1
    85   125   126   ar
    86   125   123   ar
    87    11    12    2
    88    90    89    2
    89    36    34    1
    90   145   144    2
    91    22    15   am
    92    22    23    1
    93    34    31    1
    94    34    35    1
    95   126   124   ar
    96    30    31    1
    97    30    24   am
    98    15    16    2
    99   144   143    1
   100   143   142    1
   101   123   121   ar
   102   142   136   am
   103    26    23    1
   104    37    35    1
   105    23    24    1
   106   124   122   ar
   107    89    88    1
   108    93    94    1
   109    93    92    1
   110    24    25    2
   111    91    88    1
   112    91    92    1
   113    95    94    1
   114   121   122   ar
   115   121   120    1
   116   140   138    1
   117    88    87    1
   118   136   135    1
   119   136   137    2
   120   135   138    1
   121   135   134    1
   122   120   117    1
   123   138   139    1
   124   139   141    1
   125   117   116    1
   126   117   118    1
   127   130   129    2
   128   110   109    2
   129   116   109   am
   130   109   108    1
   131   127   118   am
   132   127   128    1
   133   118   119    2
   134   107   108    1
   135   129   128    1
   136   133   131    1
   137   108   111    1
   138   128   131    1
   139   131   132    1
   140   111   112    1
   141   114   113   ar
   142   112   113    1
   143   113   115   ar
