@<TRIPOS>MOLECULE
tmp/5knuA00.pdb
 167 160 0 0 0
SMALL
GASTEIGER

@<TRIPOS>ATOM
      1  N        -15.6750   35.0850  -43.6140 N.3    44  LEU44      -0.1231
      2  CA       -16.4870   33.8730  -43.5600 C.3    44  LEU44       0.1693
      3  C        -15.7120   32.6560  -44.0660 C.2    44  LEU44       0.2591
      4  O        -14.8390   32.7900  -44.9240 O.2    44  LEU44      -0.2718
      5  CB       -17.7630   34.0730  -44.3760 C.3    44  LEU44       0.0284
      6  CG       -18.6370   35.2180  -43.8730 C.3    44  LEU44       0.0019
      7  CD1      -19.7550   35.4680  -44.8490 C.3    44  LEU44       0.0001
      8  CD2      -19.1840   34.9040  -42.4910 C.3    44  LEU44       0.0001
      9  N        -16.0260   31.4710  -43.5420 N.am   45  ARG45      -0.1980
     10  CA       -17.0970   31.2820  -42.5640 C.3    45  ARG45       0.1597
     11  C        -16.6090   31.3120  -41.1200 C.2    45  ARG45       0.2287
     12  O        -17.3400   31.7240  -40.2190 O.2    45  ARG45      -0.2864
     13  CB       -17.8120   29.9560  -42.8200 C.3    45  ARG45       0.0334
     14  CG       -18.9670   30.0330  -43.7950 C.3    45  ARG45       0.0492
     15  CD       -19.6270   28.6740  -43.9270 C.3    45  ARG45       0.2205
     16  NE       -18.7810   27.7290  -44.6480 N.pl3  45  ARG45      -0.0865
     17  CZ       -18.9600   26.4120  -44.6470 C.cat  45  ARG45       0.5346
     18  NH1      -19.9490   25.8750  -43.9450 N.pl3  45  ARG45       0.1354
     19  NH2      -18.1440   25.6300  -45.3400 N.pl3  45  ARG45       0.1354
     20  N        -13.3790   34.6750  -48.8460 N.3    69  ALA69      -0.1231
     21  CA       -12.2170   34.5190  -49.7140 C.3    69  ALA69       0.1694
     22  C        -11.9480   33.0480  -50.0180 C.2    69  ALA69       0.2592
     23  O        -12.5310   32.1600  -49.3950 O.2    69  ALA69      -0.2718
     24  CB       -10.9960   35.1620  -49.0820 C.3    69  ALA69       0.0304
     25  N        -11.0590   32.8000  -50.9760 N.am   70  SER70      -0.1952
     26  CA       -10.7550   31.4420  -51.4180 C.3    70  SER70       0.1924
     27  C         -9.4750   30.9070  -50.7830 C.2    70  SER70       0.2314
     28  O         -9.2390   31.0920  -49.5900 O.2    70  SER70      -0.2863
     29  CB       -10.6370   31.3940  -52.9410 C.3    70  SER70       0.2116
     30  OG        -9.5530   32.1890  -53.3900 O.3    70  SER70      -0.2180
     31  N        -10.6400   37.9520  -37.8700 N.3    94  GLU94      -0.1231
     32  CA       -10.3520   36.5990  -38.3370 C.3    94  GLU94       0.1699
     33  C        -10.2920   35.6100  -37.1780 C.2    94  GLU94       0.2592
     34  O         -9.8710   35.9580  -36.0770 O.2    94  GLU94      -0.2718
     35  CB        -9.0350   36.5790  -39.1240 C.3    94  GLU94       0.0402
     36  CG        -8.4640   35.1910  -39.4090 C.3    94  GLU94       0.1161
     37  CD        -9.1730   34.4600  -40.5420 C.2    94  GLU94       0.3649
     38  OE1       -8.5600   33.5440  -41.1300 O.co2  94  GLU94      -0.2457
     39  OE2      -10.3400   34.7850  -40.8450 O.co2  94  GLU94      -0.2457
     40  N        -10.7250   34.3790  -37.4280 N.am   95  ASP95      -0.1960
     41  CA       -10.7120   33.3440  -36.4040 C.3    95  ASP95       0.1840
     42  C         -9.2920   32.8910  -36.0580 C.2    95  ASP95       0.2622
     43  O         -8.8790   32.9640  -34.9020 O.2    95  ASP95      -0.2715
     44  CB       -11.5620   32.1460  -36.8450 C.3    95  ASP95       0.1450
     45  CG       -11.2700   31.7060  -38.2710 C.2    95  ASP95       0.3671
     46  OD1      -10.7700   32.5250  -39.0720 O.co2  95  ASP95      -0.2456
     47  OD2      -11.5530   30.5340  -38.5930 O.co2  95  ASP95      -0.2456
     48  N         -8.5400   32.4340  -37.0550 N.am   96  ILE96      -0.1963
     49  CA        -7.2070   31.9020  -36.8020 C.3    96  ILE96       0.1727
     50  C         -6.2270   32.2490  -37.9190 C.2    96  ILE96       0.2616
     51  O         -6.5950   32.2910  -39.0920 O.2    96  ILE96      -0.2715
     52  CB        -7.2510   30.3610  -36.6100 C.3    96  ILE96       0.0290
     53  CG1       -5.8510   29.8000  -36.3400 C.3    96  ILE96       0.0022
     54  CG2       -7.8860   29.6830  -37.8140 C.3    96  ILE96       0.0023
     55  CD1       -5.8050   28.3020  -36.1690 C.3    96  ILE96       0.0001
     56  N         -4.9800   32.5150  -37.5430 N.am   97  ILE97      -0.1963
     57  CA        -3.9130   32.7260  -38.5120 C.3    97  ILE97       0.1727
     58  C         -2.8250   31.6630  -38.3810 C.2    97  ILE97       0.2616
     59  O         -2.0910   31.6390  -37.3930 O.2    97  ILE97      -0.2715
     60  CB        -3.2670   34.1120  -38.3490 C.3    97  ILE97       0.0290
     61  CG1       -4.3380   35.2040  -38.3530 C.3    97  ILE97       0.0022
     62  CG2       -2.2450   34.3510  -39.4470 C.3    97  ILE97       0.0023
     63  CD1       -3.7770   36.6020  -38.3100 C.3    97  ILE97       0.0001
     64  N         -2.7280   30.7790  -39.3680 N.am   98  ASP98      -0.1957
     65  CA        -1.6310   29.8180  -39.4090 C.3    98  ASP98       0.1840
     66  C         -0.4720   30.3740  -40.2180 C.2    98  ASP98       0.2623
     67  O          0.4670   30.9520  -39.6660 O.2    98  ASP98      -0.2715
     68  CB        -2.0780   28.4860  -40.0080 C.3    98  ASP98       0.1450
     69  CG        -2.4120   27.4560  -38.9540 C.2    98  ASP98       0.3671
     70  OD1       -2.9240   27.8430  -37.8830 O.co2  98  ASP98      -0.2456
     71  OD2       -2.1410   26.2580  -39.1900 O.co2  98  ASP98      -0.2456
     72  N         -0.5520   30.1940  -41.5320 N.am   99  SER99      -0.1936
     73  CA         0.4730   30.6750  -42.4480 C.3    99  SER99       0.2055
     74  C          0.3940   32.1850  -42.6270 C.2    99  SER99       0.2644
     75  O          1.4120   32.8780  -42.6120 O.2    99  SER99      -0.2714
     76  CB         0.3340   29.9820  -43.8000 C.3    99  SER99       0.2130
     77  OG        -0.9520   30.2130  -44.3480 O.3    99  SER99      -0.2179
     78  N         -0.8230   32.6870  -42.8020 N.am  100  GLY100     -0.1939
     79  CA        -1.0360   34.1050  -43.0020 C.3   100  GLY100      0.2014
     80  C         -1.1650   34.4700  -44.4670 C.2   100  GLY100      0.2639
     81  O         -1.2700   35.6460  -44.8100 O.2   100  GLY100     -0.2714
     82  N         -1.1560   33.4610  -45.3320 N.am  101  ASN101     -0.1958
     83  CA        -1.2650   33.6860  -46.7680 C.3   101  ASN101      0.1819
     84  C         -2.5500   34.4170  -47.1330 C.2   101  ASN101      0.2622
     85  O         -2.5230   35.4090  -47.8610 O.2   101  ASN101     -0.2715
     86  CB        -1.1890   32.3590  -47.5260 C.3   101  ASN101      0.1195
     87  CG         0.1900   31.7290  -47.4600 C.2   101  ASN101      0.2630
     88  OD1        1.2080   32.4180  -47.5500 O.2   101  ASN101     -0.2716
     89  ND2        0.2290   30.4090  -47.3020 N.am  101  ASN101     -0.0877
     90  N         -3.6720   33.9270  -46.6150 N.am  102  THR102     -0.1937
     91  CA        -4.9740   34.5120  -46.9130 C.3   102  THR102      0.2028
     92  C         -5.0990   35.9310  -46.3660 C.2   102  THR102      0.2642
     93  O         -5.4490   36.8470  -47.1090 O.2   102  THR102     -0.2714
     94  CB        -6.1140   33.6510  -46.3490 C.3   102  THR102      0.1808
     95  OG1       -5.8020   33.2700  -45.0040 O.3   102  THR102     -0.2208
     96  CG2       -6.2960   32.3970  -47.1940 C.3   102  THR102      0.0379
     97  N         -4.8130   36.1050  -45.0760 N.am  103  LEU103     -0.1977
     98  CA        -4.8410   37.4240  -44.4390 C.3   103  LEU103      0.1596
     99  C         -4.0130   38.4420  -45.2120 C.2   103  LEU103      0.2287
    100  O         -4.4710   39.5550  -45.4780 O.2   103  LEU103     -0.2864
    101  CB        -4.3260   37.3440  -42.9990 C.3   103  LEU103      0.0297
    102  CG        -5.3530   37.3810  -41.8680 C.3   103  LEU103      0.0022
    103  CD1       -6.1380   38.6770  -41.9050 C.3   103  LEU103      0.0001
    104  CD2       -6.2820   36.1880  -41.9700 C.3   103  LEU103      0.0001
    105  N         -1.2060   31.1060  -34.5460 N.3   126  LYS126     -0.1245
    106  CA        -0.2880   29.9760  -34.4760 C.3   126  LYS126      0.1561
    107  C          1.0020   30.3200  -35.2130 C.2   126  LYS126      0.2260
    108  O          1.1820   29.9390  -36.3690 O.2   126  LYS126     -0.2867
    109  CB        -0.9330   28.7210  -35.0630 C.3   126  LYS126      0.0271
    110  CG        -0.1590   27.4460  -34.8080 C.3   126  LYS126      0.0035
    111  CD        -0.7090   26.2990  -35.6350 C.3   126  LYS126      0.0206
    112  CE        -2.1820   26.0730  -35.3670 C.3   126  LYS126      0.1093
    113  NZ        -2.6990   24.9270  -36.1630 N.3   126  LYS126     -0.1314
    114  N         -3.9580   21.1970  -34.3330 N.3   147  PHE147     -0.1227
    115  CA        -5.1010   21.4350  -35.2070 C.3   147  PHE147      0.1736
    116  C         -6.3330   21.7230  -34.3620 C.2   147  PHE147      0.2595
    117  O         -6.9300   20.8130  -33.7860 O.2   147  PHE147     -0.2718
    118  CB        -5.3580   20.2420  -36.1260 C.3   147  PHE147      0.0547
    119  CG        -6.2410   20.5630  -37.2980 C.ar  147  PHE147     -0.0202
    120  CD1       -7.6190   20.4690  -37.1930 C.ar  147  PHE147     -0.0042
    121  CD2       -5.6920   20.9720  -38.5030 C.ar  147  PHE147     -0.0042
    122  CE1       -8.4310   20.7690  -38.2700 C.ar  147  PHE147     -0.0003
    123  CE2       -6.4990   21.2730  -39.5820 C.ar  147  PHE147     -0.0003
    124  CZ        -7.8700   21.1700  -39.4670 C.ar  147  PHE147     -0.0000
    125  N         -6.7100   22.9940  -34.2890 N.am  148  VAL148     -0.1980
    126  CA        -7.7960   23.4100  -33.4140 C.3   148  VAL148      0.1595
    127  C         -9.1550   23.3720  -34.0980 C.2   148  VAL148      0.2287
    128  O         -9.2580   23.5090  -35.3170 O.2   148  VAL148     -0.2864
    129  CB        -7.5610   24.8270  -32.8700 C.3   148  VAL148      0.0276
    130  CG1       -6.3010   24.8590  -32.0280 C.3   148  VAL148      0.0022
    131  CG2       -7.4750   25.8260  -34.0100 C.3   148  VAL148      0.0022
    132  N        -14.4260   27.6240  -36.1080 N.3   153  ILE153     -0.1231
    133  CA       -13.3890   26.8480  -36.7800 C.3   153  ILE153      0.1692
    134  C        -13.8020   25.3820  -36.8970 C.2   153  ILE153      0.2592
    135  O        -14.3780   24.8150  -35.9700 O.2   153  ILE153     -0.2718
    136  CB       -12.0470   26.9550  -36.0360 C.3   153  ILE153      0.0266
    137  CG1      -11.7470   28.4150  -35.6920 C.3   153  ILE153      0.0019
    138  CG2      -10.9260   26.3700  -36.8660 C.3   153  ILE153      0.0020
    139  CD1      -10.4890   28.5990  -34.8740 C.3   153  ILE153      0.0001
    140  N        -13.4980   24.7710  -38.0370 N.am  154  ASP154     -0.1974
    141  CA       -14.0030   23.4400  -38.3490 C.3   154  ASP154      0.1709
    142  C        -12.9140   22.4210  -38.6740 C.2   154  ASP154      0.2293
    143  O        -11.7920   22.7830  -39.0260 O.2   154  ASP154     -0.2864
    144  CB       -14.9610   23.5180  -39.5370 C.3   154  ASP154      0.1436
    145  CG       -14.2310   23.6220  -40.8660 C.2   154  ASP154      0.3671
    146  OD1      -14.1150   22.5910  -41.5630 O.co2 154  ASP154     -0.2456
    147  OD2      -13.7570   24.7290  -41.2050 O.co2 154  ASP154     -0.2456
    148  N        -15.7210   20.4690  -42.0480 N.3   157  GLN157     -0.1245
    149  CA       -17.0590   21.0330  -41.8650 C.3   157  GLN157      0.1566
    150  C        -17.7210   20.6050  -40.5570 C.2   157  GLN157      0.2260
    151  O        -18.9350   20.7260  -40.4010 O.2   157  GLN157     -0.2867
    152  CB       -17.9580   20.6600  -43.0490 C.3   157  GLN157      0.0367
    153  CG       -17.3610   21.0060  -44.4010 C.3   157  GLN157      0.0905
    154  CD       -16.9290   22.4570  -44.4870 C.2   157  GLN157      0.2608
    155  OE1      -17.6260   23.3530  -44.0090 O.2   157  GLN157     -0.2717
    156  NE2      -15.7710   22.6960  -45.0960 N.am  157  GLN157     -0.0878
    157  N        -18.0660   23.3990  -35.7790 N.3   160  ARG160     -0.1245
    158  CA       -18.1330   24.8670  -35.7690 C.3   160  ARG160      0.1563
    159  C        -18.9570   25.4210  -34.6060 C.2   160  ARG160      0.2260
    160  O        -18.7900   26.5730  -34.2120 O.2   160  ARG160     -0.2867
    161  CB       -18.7170   25.4000  -37.0780 C.3   160  ARG160      0.0307
    162  CG       -17.8030   25.2900  -38.2820 C.3   160  ARG160      0.0489
    163  CD       -18.3670   26.0780  -39.4510 C.3   160  ARG160      0.2205
    164  NE       -17.8050   25.6570  -40.7310 N.pl3 160  ARG160     -0.0865
    165  CZ       -16.6970   26.1580  -41.2660 C.cat 160  ARG160      0.5346
    166  NH1      -16.0220   27.1080  -40.6350 N.pl3 160  ARG160      0.1354
    167  NH2      -16.2670   25.7080  -42.4360 N.pl3 160  ARG160      0.1354
@<TRIPOS>BOND
     1    30    29    1
     2    29    26    1
     3    26    25    1
     4    26    27    1
     5    25    22   am
     6    27    28    2
     7    22    21    1
     8    22    23    2
     9    21    24    1
    10    21    20    1
    11    85    84    2
    12    88    87    2
    13    86    87    1
    14    86    83    1
    15    87    89   am
    16    96    94    1
    17    84    83    1
    18    84    90   am
    19    93    92    2
    20    91    90    1
    21    91    92    1
    22    91    94    1
    23    83    82    1
    24    92    97   am
    25    94    95    1
    26   100    99    2
    27    19    17    1
    28    82    80   am
    29    99    98    1
    30   156   154   am
    31    97    98    1
    32     4     3    2
    33     7     6    1
    34    81    80    2
    35    16    17    2
    36    16    15    1
    37    17    18    1
    38   154   153    1
    39   154   155    2
    40    80    79    1
    41    98   101    1
    42   153   152    1
    43     5     6    1
    44     5     2    1
    45    77    76    1
    46     3     2    1
    47     3     9   am
    48    15    14    1
    49     6     8    1
    50    76    73    1
    51    14    13    1
    52     1     2    1
    53     9    10    1
    54   152   149    1
    55    79    78    1
    56   101   102    1
    57    13    10    1
    58    78    74   am
    59    74    75    2
    60    74    73    1
    61    10    11    1
    62    73    72    1
    63   167   165    1
    64   148   149    1
    65   104   102    1
    66   103   102    1
    67   149   150    1
    68   146   145   ar
    69    72    66   am
    70   165   164    2
    71   165   166    1
    72   147   145   ar
    73    38    37   ar
    74    11    12    2
    75   145   144    1
    76    39    37   ar
    77   164   163    1
    78   150   151    2
    79    37    36    1
    80    66    67    2
    81    66    65    1
    82    68    65    1
    83    68    69    1
    84   123   124   ar
    85   123   121   ar
    86   144   141    1
    87   124   122   ar
    88   163   162    1
    89    62    60    1
    90    36    35    1
    91    65    64    1
    92    64    58   am
    93    71    69   ar
    94    35    32    1
    95    51    50    2
    96    46    45   ar
    97   143   142    2
    98    69    70   ar
    99   142   141    1
   100    47    45   ar
   101    57    58    1
   102    57    60    1
   103    57    56    1
   104   121   119   ar
   105    58    59    2
   106    61    60    1
   107    61    63    1
   108   141   140    1
   109    32    31    1
   110    32    33    1
   111   162   161    1
   112    45    44    1
   113   122   120   ar
   114   140   134   am
   115    50    56   am
   116    50    49    1
   117    54    52    1
   118    40    33   am
   119    40    41    1
   120   119   120   ar
   121   119   118    1
   122    33    34    2
   123   161   158    1
   124    48    49    1
   125    48    42   am
   126   134   133    1
   127   134   135    2
   128   138   136    1
   129    44    41    1
   130    49    52    1
   131   133   132    1
   132   133   136    1
   133    52    53    1
   134    41    42    1
   135   108   107    2
   136    53    55    1
   137   113   112    1
   138   118   115    1
   139    42    43    2
   140   136   137    1
   141   157   158    1
   142   158   159    1
   143   137   139    1
   144   111   112    1
   145   111   110    1
   146   128   127    2
   147   107   106    1
   148   115   116    1
   149   115   114    1
   150   109   110    1
   151   109   106    1
   152   159   160    2
   153   105   106    1
   154   116   125   am
   155   116   117    2
   156   125   126    1
   157   127   126    1
   158   131   129    1
   159   126   129    1
   160   129   130    1
