@<TRIPOS>MOLECULE
tmp/5knvA00.pdb
 180 172 0 0 0
SMALL
GASTEIGER

@<TRIPOS>ATOM
      1  N        -26.8830   39.6830  -43.5500 N.3    43  ARG43      -0.1245
      2  CA       -25.9780   39.5900  -42.4050 C.3    43  ARG43       0.1563
      3  C        -26.6570   40.0300  -41.1160 C.2    43  ARG43       0.2260
      4  O        -26.0140   40.5710  -40.2160 O.2    43  ARG43      -0.2867
      5  CB       -24.7210   40.4250  -42.6530 C.3    43  ARG43       0.0307
      6  CG       -25.0060   41.8460  -43.1000 C.3    43  ARG43       0.0489
      7  CD       -23.7780   42.4960  -43.7120 C.3    43  ARG43       0.2205
      8  NE       -24.1290   43.7000  -44.4590 N.pl3  43  ARG43      -0.0865
      9  CZ       -23.9700   44.9380  -44.0050 C.cat  43  ARG43       0.5346
     10  NH1      -24.3230   45.9710  -44.7580 N.pl3  43  ARG43       0.1354
     11  NH2      -23.4510   45.1460  -42.8040 N.pl3  43  ARG43       0.1354
     12  N        -31.2130   38.7450  -51.8860 N.3    68  SER68      -0.1202
     13  CA       -31.3750   40.0940  -52.4260 C.3    68  SER68       0.2020
     14  C        -31.6410   41.1330  -51.3340 C.2    68  SER68       0.2619
     15  O        -31.7490   40.7970  -50.1540 O.2    68  SER68      -0.2717
     16  CB       -32.5110   40.1130  -53.4510 C.3    68  SER68       0.2103
     17  OG       -32.7060   41.4130  -53.9790 O.3    68  SER68      -0.2182
     18  N        -31.7490   42.3950  -51.7390 N.am   69  SER69      -0.1951
     19  CA       -31.9300   43.5010  -50.8010 C.3    69  SER69       0.1924
     20  C        -33.2110   43.3620  -49.9820 C.2    69  SER69       0.2314
     21  O        -34.1730   42.7270  -50.4140 O.2    69  SER69      -0.2863
     22  CB       -31.9330   44.8360  -51.5510 C.3    69  SER69       0.2116
     23  OG       -32.7460   45.7940  -50.8930 O.3    69  SER69      -0.2180
     24  N        -33.1280   33.0410  -39.3660 N.3    92  GLU92      -0.1231
     25  CA       -33.3290   34.4380  -39.7390 C.3    92  GLU92       0.1699
     26  C        -33.4810   35.3050  -38.4900 C.2    92  GLU92       0.2592
     27  O        -33.9180   34.8250  -37.4450 O.2    92  GLU92      -0.2718
     28  CB       -34.5590   34.5690  -40.6490 C.3    92  GLU92       0.0402
     29  CG       -34.9320   35.9910  -41.0730 C.3    92  GLU92       0.1161
     30  CD       -34.0400   36.5490  -42.1700 C.2    92  GLU92       0.3649
     31  OE1      -34.5850   37.0130  -43.1940 O.co2  92  GLU92      -0.2457
     32  OE2      -32.8010   36.5400  -42.0070 O.co2  92  GLU92      -0.2457
     33  N        -33.1090   36.5760  -38.5960 N.am   93  ASP93      -0.1960
     34  CA       -33.2300   37.5000  -37.4750 C.3    93  ASP93       0.1840
     35  C        -34.6790   37.9210  -37.2370 C.2    93  ASP93       0.2622
     36  O        -35.1430   37.9570  -36.0980 O.2    93  ASP93      -0.2715
     37  CB       -32.3570   38.7380  -37.7040 C.3    93  ASP93       0.1450
     38  CG       -32.6270   39.4110  -39.0400 C.2    93  ASP93       0.3671
     39  OD1      -33.0330   38.7150  -39.9960 O.co2  93  ASP93      -0.2456
     40  OD2      -32.4300   40.6420  -39.1340 O.co2  93  ASP93      -0.2456
     41  N        -35.3920   38.2340  -38.3140 N.am   94  ILE94      -0.1963
     42  CA       -36.7530   38.7460  -38.2040 C.3    94  ILE94       0.1727
     43  C        -37.5440   38.5130  -39.4920 C.2    94  ILE94       0.2616
     44  O        -37.0170   38.6590  -40.5950 O.2    94  ILE94      -0.2715
     45  CB       -36.7460   40.2610  -37.8540 C.3    94  ILE94       0.0290
     46  CG1      -38.1670   40.8310  -37.8080 C.3    94  ILE94       0.0022
     47  CG2      -35.8900   41.0400  -38.8370 C.3    94  ILE94       0.0023
     48  CD1      -38.2200   42.3170  -37.5280 C.3    94  ILE94       0.0001
     49  N        -38.8140   38.1490  -39.3470 N.am   95  ILE95      -0.1963
     50  CA       -39.6880   37.9460  -40.4960 C.3    95  ILE95       0.1727
     51  C        -40.8990   38.8800  -40.4410 C.2    95  ILE95       0.2616
     52  O        -41.5790   38.9740  -39.4190 O.2    95  ILE95      -0.2715
     53  CB       -40.1610   36.4760  -40.5850 C.3    95  ILE95       0.0290
     54  CG1      -41.2250   36.3090  -41.6730 C.3    95  ILE95       0.0022
     55  CG2      -40.6870   35.9900  -39.2410 C.3    95  ILE95       0.0023
     56  CD1      -41.6990   34.8830  -41.8410 C.3    95  ILE95       0.0001
     57  N        -41.1510   39.5870  -41.5390 N.am   96  ASP96      -0.1957
     58  CA       -42.3210   40.4460  -41.6420 C.3    96  ASP96       0.1840
     59  C        -43.2150   39.9280  -42.7730 C.2    96  ASP96       0.2623
     60  O        -43.9030   38.9230  -42.5930 O.2    96  ASP96      -0.2715
     61  CB       -41.9110   41.9220  -41.8230 C.3    96  ASP96       0.1450
     62  CG       -41.0170   42.1610  -43.0370 C.2    96  ASP96       0.3671
     63  OD1      -40.9310   41.2780  -43.9130 O.co2  96  ASP96      -0.2456
     64  OD2      -40.3970   43.2430  -43.1100 O.co2  96  ASP96      -0.2456
     65  N        -43.1930   40.5950  -43.9240 N.am   97  SER97      -0.1936
     66  CA       -43.9610   40.1860  -45.0970 C.3    97  SER97       0.2055
     67  C        -43.7590   38.7130  -45.4370 C.2    97  SER97       0.2644
     68  O        -44.6820   38.0390  -45.8920 O.2    97  SER97      -0.2714
     69  CB       -43.5800   41.0470  -46.3020 C.3    97  SER97       0.2130
     70  OG       -42.1870   40.9680  -46.5520 O.3    97  SER97      -0.2179
     71  N        -42.5470   38.2190  -45.2080 N.am   98  GLY98      -0.1939
     72  CA       -42.2410   36.8210  -45.4380 C.3    98  GLY98       0.2014
     73  C        -41.9290   36.5230  -46.8890 C.2    98  GLY98       0.2639
     74  O        -41.9480   35.3670  -47.3080 O.2    98  GLY98      -0.2714
     75  N        -41.6380   37.5680  -47.6580 N.am   99  ASN99      -0.1958
     76  CA       -41.3170   37.4110  -49.0720 C.3    99  ASN99       0.1819
     77  C        -40.0010   36.6730  -49.2880 C.2    99  ASN99       0.2622
     78  O        -39.9410   35.7010  -50.0420 O.2    99  ASN99      -0.2715
     79  CB       -41.2550   38.7750  -49.7650 C.3    99  ASN99       0.1195
     80  CG       -42.5960   39.4840  -49.7870 C.2    99  ASN99       0.2630
     81  OD1      -42.6970   40.6560  -49.4240 O.2    99  ASN99      -0.2716
     82  ND2      -43.6350   38.7750  -50.2140 N.am   99  ASN99      -0.0877
     83  N        -38.9530   37.1400  -48.6180 N.am  100  THR100     -0.1937
     84  CA       -37.6080   36.6030  -48.8040 C.3   100  THR100      0.2028
     85  C        -37.5020   35.1290  -48.4130 C.2   100  THR100      0.2642
     86  O        -37.0280   34.3100  -49.1990 O.2   100  THR100     -0.2714
     87  CB       -36.5710   37.4080  -47.9980 C.3   100  THR100      0.1808
     88  OG1      -36.6320   38.7880  -48.3810 O.3   100  THR100     -0.2208
     89  CG2      -35.1670   36.8770  -48.2480 C.3   100  THR100      0.0379
     90  N        -37.9430   34.7960  -47.2020 N.am  101  LEU101     -0.1977
     91  CA       -37.8820   33.4160  -46.7230 C.3   101  LEU101      0.1596
     92  C        -38.7090   32.4760  -47.5860 C.2   101  LEU101      0.2287
     93  O        -38.3450   31.3150  -47.7670 O.2   101  LEU101     -0.2864
     94  CB       -38.3530   33.3250  -45.2720 C.3   101  LEU101      0.0297
     95  CG       -37.3340   33.7600  -44.2220 C.3   101  LEU101      0.0022
     96  CD1      -37.9880   33.8490  -42.8710 C.3   101  LEU101      0.0001
     97  CD2      -36.1710   32.7880  -44.1880 C.3   101  LEU101      0.0001
     98  N        -43.0750   39.4330  -36.9310 N.3   124  LYS124     -0.1245
     99  CA       -44.1010   40.4610  -37.0390 C.3   124  LYS124      0.1561
    100  C        -45.2820   39.9270  -37.8380 C.2   124  LYS124      0.2260
    101  O        -45.2890   40.0070  -39.0650 O.2   124  LYS124     -0.2867
    102  CB       -43.5480   41.7250  -37.6970 C.3   124  LYS124      0.0271
    103  CG       -42.5430   42.4940  -36.8560 C.3   124  LYS124      0.0035
    104  CD       -42.1460   43.7870  -37.5490 C.3   124  LYS124      0.0206
    105  CE       -41.2020   44.6160  -36.6980 C.3   124  LYS124      0.1093
    106  NZ       -40.8660   45.9060  -37.3610 N.3   124  LYS124     -0.1314
    107  N        -47.3970   42.6440  -40.3790 N.3   127  ARG127     -0.1245
    108  CA       -46.9180   42.7240  -41.7490 C.3   127  ARG127      0.1563
    109  C        -46.7020   41.3100  -42.2670 C.2   127  ARG127      0.2260
    110  O        -45.8600   40.5830  -41.7490 O.2   127  ARG127     -0.2867
    111  CB       -45.6280   43.5440  -41.8310 C.3   127  ARG127      0.0307
    112  CG       -45.5620   44.6710  -40.8130 C.3   127  ARG127      0.0489
    113  CD       -44.5530   45.7420  -41.2000 C.3   127  ARG127      0.2205
    114  NE       -43.3280   45.1930  -41.7720 N.pl3 127  ARG127     -0.0865
    115  CZ       -42.2580   45.9230  -42.0740 C.cat 127  ARG127      0.5346
    116  NH1      -42.2600   47.2300  -41.8470 N.pl3 127  ARG127      0.1354
    117  NH2      -41.1840   45.3480  -42.5940 N.pl3 127  ARG127      0.1354
    118  N        -43.0990   47.2810  -34.5200 N.3   144  GLU144     -0.1231
    119  CA       -42.2700   48.3060  -33.9000 C.3   144  GLU144      0.1699
    120  C        -40.9430   48.4630  -34.6340 C.2   144  GLU144      0.2592
    121  O        -40.4720   47.5340  -35.2910 O.2   144  GLU144     -0.2718
    122  CB       -42.0150   47.9700  -32.4280 C.3   144  GLU144      0.0402
    123  CG       -43.2660   47.9370  -31.5610 C.3   144  GLU144      0.1161
    124  CD       -43.8660   49.3140  -31.3430 C.2   144  GLU144      0.3649
    125  OE1      -45.0480   49.3920  -30.9480 O.co2 144  GLU144     -0.2457
    126  OE2      -43.1560   50.3180  -31.5610 O.co2 144  GLU144     -0.2457
    127  N        -40.3450   49.6430  -34.5170 N.am  145  PHE145     -0.1962
    128  CA       -39.0440   49.9090  -35.1180 C.3   145  PHE145      0.1771
    129  C        -37.9320   49.3910  -34.2090 C.2   145  PHE145      0.2619
    130  O        -37.4690   50.1020  -33.3180 O.2   145  PHE145     -0.2715
    131  CB       -38.8660   51.4070  -35.3740 C.3   145  PHE145      0.0574
    132  CG       -37.7770   51.7320  -36.3580 C.ar  145  PHE145     -0.0200
    133  CD1      -37.1560   50.7290  -37.0860 C.ar  145  PHE145     -0.0042
    134  CD2      -37.3740   53.0430  -36.5520 C.ar  145  PHE145     -0.0042
    135  CE1      -36.1560   51.0280  -37.9900 C.ar  145  PHE145     -0.0003
    136  CE2      -36.3740   53.3480  -37.4550 C.ar  145  PHE145     -0.0003
    137  CZ       -35.7650   52.3390  -38.1740 C.ar  145  PHE145     -0.0000
    138  N        -37.5060   48.1540  -34.4410 N.am  146  VAL146     -0.1977
    139  CA       -36.5220   47.5210  -33.5710 C.3   146  VAL146      0.1596
    140  C        -35.1380   47.4300  -34.2090 C.2   146  VAL146      0.2287
    141  O        -35.0040   47.3030  -35.4280 O.2   146  VAL146     -0.2864
    142  CB       -36.9720   46.1030  -33.1540 C.3   146  VAL146      0.0276
    143  CG1      -38.2390   46.1750  -32.3170 C.3   146  VAL146      0.0022
    144  CG2      -37.1830   45.2250  -34.3770 C.3   146  VAL146      0.0022
    145  N        -29.7660   43.2600  -36.1110 N.3   151  ILE151     -0.1231
    146  CA       -30.7150   44.1080  -36.8230 C.3   151  ILE151      0.1692
    147  C        -30.2340   45.5570  -36.8320 C.2   151  ILE151      0.2592
    148  O        -29.8670   46.1030  -35.7930 O.2   151  ILE151     -0.2718
    149  CB       -32.1150   44.0230  -36.1910 C.3   151  ILE151      0.0266
    150  CG1      -32.5740   42.5640  -36.1270 C.3   151  ILE151      0.0019
    151  CG2      -33.1060   44.8670  -36.9680 C.3   151  ILE151      0.0020
    152  CD1      -33.9080   42.3710  -35.4470 C.3   151  ILE151      0.0001
    153  N        -30.2440   46.1770  -38.0080 N.am  152  ASP152     -0.1974
    154  CA       -29.6320   47.4910  -38.1770 C.3   152  ASP152      0.1709
    155  C        -30.6190   48.6120  -38.4830 C.2   152  ASP152      0.2293
    156  O        -31.7750   48.3750  -38.8300 O.2   152  ASP152     -0.2864
    157  CB       -28.5930   47.4440  -39.2980 C.3   152  ASP152      0.1436
    158  CG       -29.2280   47.4310  -40.6770 C.2   152  ASP152      0.3671
    159  OD1      -28.8690   48.2940  -41.5050 O.co2 152  ASP152     -0.2456
    160  OD2      -30.0880   46.5590  -40.9300 O.co2 152  ASP152     -0.2456
    161  N        -27.2670   50.7860  -41.2960 N.3   155  GLN155     -0.1245
    162  CA       -26.0120   50.1060  -40.9770 C.3   155  GLN155      0.1566
    163  C        -25.4830   50.4870  -39.5960 C.2   155  GLN155      0.2260
    164  O        -24.2840   50.6980  -39.4180 O.2   155  GLN155     -0.2867
    165  CB       -24.9550   50.4060  -42.0440 C.3   155  GLN155      0.0367
    166  CG       -25.4600   50.2580  -43.4720 C.3   155  GLN155      0.0905
    167  CD       -26.0410   48.8840  -43.7500 C.2   155  GLN155      0.2608
    168  OE1      -25.5060   47.8670  -43.3070 O.2   155  GLN155     -0.2717
    169  NE2      -27.1470   48.8490  -44.4840 N.am  155  GLN155     -0.0878
    170  N        -26.0090   47.1710  -35.1180 N.3   158  ARG158     -0.1245
    171  CA       -25.9410   45.7280  -35.3450 C.3   158  ARG158      0.1563
    172  C        -25.2760   44.9890  -34.1870 C.2   158  ARG158      0.2260
    173  O        -25.5430   43.8090  -33.9570 O.2   158  ARG158     -0.2867
    174  CB       -25.1830   45.4210  -36.6390 C.3   158  ARG158      0.0307
    175  CG       -26.0650   45.2550  -37.8580 C.3   158  ARG158      0.0489
    176  CD       -25.2800   44.6890  -39.0290 C.3   158  ARG158      0.2205
    177  NE       -26.1590   44.2620  -40.1130 N.pl3 158  ARG158     -0.0865
    178  CZ       -26.4610   45.0120  -41.1670 C.cat 158  ARG158      0.5346
    179  NH1      -25.9490   46.2280  -41.2840 N.pl3 158  ARG158      0.1354
    180  NH2      -27.2710   44.5440  -42.1060 N.pl3 158  ARG158      0.1354
@<TRIPOS>BOND
     1    17    16    1
     2    16    13    1
     3    13    12    1
     4    13    14    1
     5    18    14   am
     6    18    19    1
     7    22    23    1
     8    22    19    1
     9    14    15    2
    10    19    20    1
    11    21    20    2
    12    82    80   am
    13    78    77    2
    14    80    79    1
    15    80    81    2
    16    79    76    1
    17    77    76    1
    18    77    83   am
    19    86    85    2
    20    76    75    1
    21    84    83    1
    22    84    85    1
    23    84    87    1
    24    85    90   am
    25    88    87    1
    26    89    87    1
    27    93    92    2
    28    75    73   am
    29    92    91    1
    30    74    73    2
    31    90    91    1
    32    73    72    1
    33    91    94    1
    34    70    69    1
    35    69    66    1
    36    68    67    2
    37    72    71    1
    38    67    71   am
    39    67    66    1
    40    94    95    1
    41    66    65    1
    42    10     9    1
    43   169   167   am
    44     8     9    2
    45     8     7    1
    46    95    97    1
    47    95    96    1
    48     9    11    1
    49    65    59   am
    50    63    62   ar
    51   167   166    1
    52   167   168    2
    53     7     6    1
    54     1     2    1
    55   166   165    1
    56    31    30   ar
    57    64    62   ar
    58     6     5    1
    59    62    61    1
    60    59    60    2
    61    59    58    1
    62     5     2    1
    63   117   115    1
    64     2     3    1
    65   109   108    1
    66   109   110    2
    67    30    32   ar
    68    30    29    1
    69   180   178    1
    70   115   116    1
    71   115   114    2
    72   165   162    1
    73    56    54    1
    74   111   108    1
    75   111   112    1
    76    61    58    1
    77   114   113    1
    78   108   107    1
    79    54    53    1
    80    58    57    1
    81    57    51   am
    82   159   158   ar
    83   161   162    1
    84   179   178    1
    85   113   112    1
    86   178   177    2
    87     3     4    2
    88    29    28    1
    89   162   163    1
    90   160   158   ar
    91   158   157    1
    92    28    25    1
    93    44    43    2
    94    53    50    1
    95    53    55    1
    96    50    51    1
    97    50    49    1
    98    51    52    2
    99   177   176    1
   100    39    38   ar
   101    25    24    1
   102    25    26    1
   103   163   164    2
   104    43    49   am
   105    43    42    1
   106   157   154    1
   107    40    38   ar
   108   101   100    2
   109    38    37    1
   110   176   175    1
   111    47    45    1
   112   156   155    2
   113    33    26   am
   114    33    34    1
   115    26    27    2
   116   155   154    1
   117    41    42    1
   118    41    35   am
   119    42    45    1
   120   154   153    1
   121   137   135   ar
   122   137   136   ar
   123   153   147   am
   124   135   133   ar
   125   175   174    1
   126    45    46    1
   127   100    99    1
   128    46    48    1
   129    37    34    1
   130   102    99    1
   131   102   103    1
   132   104   103    1
   133   104   105    1
   134    34    35    1
   135   136   134   ar
   136   106   105    1
   137    35    36    2
   138   133   132   ar
   139    99    98    1
   140   151   149    1
   141   147   146    1
   142   147   148    2
   143   146   149    1
   144   146   145    1
   145   174   171    1
   146   134   132   ar
   147   132   131    1
   148   149   150    1
   149   150   152    1
   150   141   140    2
   151   131   128    1
   152   171   170    1
   153   171   172    1
   154   121   120    2
   155   128   127    1
   156   128   129    1
   157   120   127   am
   158   120   119    1
   159   118   119    1
   160   138   129   am
   161   138   139    1
   162   144   142    1
   163   129   130    2
   164   140   139    1
   165   172   173    2
   166   119   122    1
   167   139   142    1
   168   142   143    1
   169   122   123    1
   170   126   124   ar
   171   123   124    1
   172   124   125   ar
