@<TRIPOS>MOLECULE
tmp/5knxB00.pdb
 182 175 0 0 0
SMALL
GASTEIGER

@<TRIPOS>ATOM
      1  N         19.2140   29.7970   12.3180 N.3    44  ARG44      -0.1245
      2  CA        18.5930   30.6000   13.3750 C.3    44  ARG44       0.1563
      3  C         18.9340   30.1300   14.7830 C.2    44  ARG44       0.2260
      4  O         18.7690   30.8750   15.7450 O.2    44  ARG44      -0.2867
      5  CB        17.0730   30.5970   13.2100 C.3    44  ARG44       0.0307
      6  CG        16.5600   31.4560   12.0740 C.3    44  ARG44       0.0489
      7  CD        15.0580   31.2990   11.9420 C.3    44  ARG44       0.2205
      8  NE        14.7110   30.0970   11.1950 N.pl3  44  ARG44      -0.0865
      9  CZ        13.4900   29.5800   11.1370 C.cat  44  ARG44       0.5346
     10  NH1       12.4920   30.1540   11.7980 N.pl3  44  ARG44       0.1354
     11  NH2       13.2660   28.4850   10.4230 N.pl3  44  ARG44       0.1354
     12  N         20.0250   24.4530    5.3380 N.3    70  SER70      -0.1202
     13  CA        19.4900   23.5980    6.3940 C.3    70  SER70       0.2020
     14  C         19.1980   22.1760    5.9250 C.2    70  SER70       0.2619
     15  O         19.9420   21.2460    6.2490 O.2    70  SER70      -0.2717
     16  CB        18.2150   24.2120    6.9780 C.3    70  SER70       0.2103
     17  OG        18.4950   25.4190    7.6680 O.3    70  SER70      -0.2182
     18  N         18.1050   22.0230    5.1770 N.am   71  TYR71      -0.1961
     19  CA        17.5860   20.7180    4.7570 C.3    71  TYR71       0.1771
     20  C         17.1970   19.8710    5.9690 C.2    71  TYR71       0.2620
     21  O         17.2950   20.3190    7.1140 O.2    71  TYR71      -0.2715
     22  CB        18.6060   19.9650    3.8930 C.3    71  TYR71       0.0574
     23  CG        19.2570   20.8170    2.8270 C.ar   71  TYR71      -0.0198
     24  CD1       18.4940   21.6010    1.9730 C.ar   71  TYR71      -0.0009
     25  CD2       20.6400   20.8490    2.6850 C.ar   71  TYR71      -0.0009
     26  CE1       19.0870   22.3870    1.0020 C.ar   71  TYR71       0.0417
     27  CE2       21.2430   21.6320    1.7170 C.ar   71  TYR71       0.0417
     28  CZ        20.4610   22.3980    0.8770 C.ar   71  TYR71       0.1957
     29  OH        21.0540   23.1800   -0.0890 O.3    71  TYR71      -0.2866
     30  N         16.7460   18.6480    5.7150 N.am   72  GLY72      -0.1940
     31  CA        16.3760   17.7420    6.7870 C.3    72  GLY72       0.2014
     32  C         17.5970   17.1180    7.4350 C.2    72  GLY72       0.2639
     33  O         18.7260   17.5330    7.1750 O.2    72  GLY72      -0.2714
     34  N         17.3750   16.1220    8.2840 N.am   73  SER73      -0.1949
     35  CA        18.4790   15.3990    8.9030 C.3    73  SER73       0.1924
     36  C         19.0060   14.3190    7.9580 C.2    73  SER73       0.2314
     37  O         20.1090   13.8010    8.1440 O.2    73  SER73      -0.2863
     38  CB        18.0410   14.7850   10.2350 C.3    73  SER73       0.2116
     39  OG        16.7830   14.1430   10.1190 O.3    73  SER73      -0.2180
     40  N         20.7110   16.5280    4.5350 N.3    76  SER76      -0.1217
     41  CA        21.9280   17.2440    4.9200 C.3    76  SER76       0.1889
     42  C         23.1580   16.3360    4.8200 C.2    76  SER76       0.2288
     43  O         24.2940   16.8030    4.8570 O.2    76  SER76      -0.2866
     44  CB        21.7910   17.8000    6.3440 C.3    76  SER76       0.2089
     45  OG        22.9870   18.4260    6.7800 O.3    76  SER76      -0.2183
     46  N         27.6460   28.1550   18.0680 N.3   100  GLU100     -0.1231
     47  CA        26.7000   27.1430   17.6190 C.3   100  GLU100      0.1699
     48  C         25.7910   26.7290   18.7680 C.2   100  GLU100      0.2592
     49  O         26.1940   26.7820   19.9320 O.2   100  GLU100     -0.2718
     50  CB        27.4560   25.9330   17.0600 C.3   100  GLU100      0.0402
     51  CG        26.5870   24.7700   16.6250 C.3   100  GLU100      0.1161
     52  CD        25.7300   25.1030   15.4260 C.2   100  GLU100      0.3649
     53  OE1       25.9410   24.4900   14.3590 O.co2 100  GLU100     -0.2457
     54  OE2       24.8440   25.9750   15.5490 O.co2 100  GLU100     -0.2457
     55  N         24.5610   26.3360   18.4540 N.am  101  ASP101     -0.1960
     56  CA        23.6420   25.8940   19.4950 C.3   101  ASP101      0.1840
     57  C         23.9000   24.4300   19.8520 C.2   101  ASP101      0.2622
     58  O         24.1120   24.0990   21.0190 O.2   101  ASP101     -0.2715
     59  CB        22.1830   26.1120   19.0710 C.3   101  ASP101      0.1450
     60  CG        21.8650   25.5050   17.7210 C.2   101  ASP101      0.3671
     61  OD1       22.8060   25.2620   16.9380 O.co2 101  ASP101     -0.2456
     62  OD2       20.6680   25.2830   17.4370 O.co2 101  ASP101     -0.2456
     63  N         23.9120   23.5570   18.8500 N.am  102  ILE102     -0.1963
     64  CA        24.1310   22.1430   19.1070 C.3   102  ILE102      0.1727
     65  C         24.9110   21.4730   17.9800 C.2   102  ILE102      0.2616
     66  O         24.6270   21.6810   16.8010 O.2   102  ILE102     -0.2715
     67  CB        22.7840   21.4000   19.3310 C.3   102  ILE102      0.0290
     68  CG1       23.0150   19.9040   19.5590 C.3   102  ILE102      0.0022
     69  CG2       21.8300   21.6290   18.1700 C.3   102  ILE102      0.0023
     70  CD1       21.7420   19.1300   19.8500 C.3   102  ILE102      0.0001
     71  N         25.9110   20.6820   18.3550 N.am  103  ILE103     -0.1963
     72  CA        26.6210   19.8520   17.3940 C.3   103  ILE103      0.1727
     73  C         26.1420   18.4060   17.4810 C.2   103  ILE103      0.2616
     74  O         26.4420   17.6940   18.4410 O.2   103  ILE103     -0.2715
     75  CB        28.1340   19.8900   17.6140 C.3   103  ILE103      0.0290
     76  CG1       28.6270   21.3340   17.6210 C.3   103  ILE103      0.0022
     77  CG2       28.8460   19.0960   16.5270 C.3   103  ILE103      0.0023
     78  CD1       30.1020   21.4500   17.8490 C.3   103  ILE103      0.0001
     79  N         25.3780   17.9900   16.4770 N.am  104  ASP104     -0.1957
     80  CA        24.9210   16.6140   16.3640 C.3   104  ASP104      0.1840
     81  C         25.9310   15.8590   15.5070 C.2   104  ASP104      0.2623
     82  O         26.9660   15.4100   16.0050 O.2   104  ASP104     -0.2715
     83  CB        23.5090   16.5630   15.7640 C.3   104  ASP104      0.1450
     84  CG        22.8770   15.1800   15.8380 C.2   104  ASP104      0.3671
     85  OD1       22.7860   14.5050   14.7880 O.co2 104  ASP104     -0.2456
     86  OD2       22.4580   14.7720   16.9430 O.co2 104  ASP104     -0.2456
     87  N         25.6480   15.7480   14.2120 N.am  105  SER105     -0.1936
     88  CA        26.5830   15.1230   13.2830 C.3   105  SER105      0.2055
     89  C         27.8140   16.0030   13.0750 C.2   105  SER105      0.2644
     90  O         28.9340   15.5040   12.9580 O.2   105  SER105     -0.2714
     91  CB        25.8990   14.8390   11.9420 C.3   105  SER105      0.2130
     92  OG        25.4610   16.0360   11.3240 O.3   105  SER105     -0.2179
     93  N         27.5990   17.3150   13.0310 N.am  106  GLY106     -0.1939
     94  CA        28.6830   18.2570   12.8260 C.3   106  GLY106      0.2014
     95  C         29.0680   18.4550   11.3680 C.2   106  GLY106      0.2639
     96  O         30.1060   19.0460   11.0770 O.2   106  GLY106     -0.2714
     97  N         28.2360   17.9620   10.4530 N.am  107  ASN107     -0.1958
     98  CA        28.4900   18.1050    9.0190 C.3   107  ASN107      0.1819
     99  C         28.5270   19.5610    8.5740 C.2   107  ASN107      0.2622
    100  O         29.5490   20.0560    8.0870 O.2   107  ASN107     -0.2715
    101  CB        27.4230   17.3630    8.2090 C.3   107  ASN107      0.1195
    102  CG        27.5660   15.8580    8.2900 C.2   107  ASN107      0.2630
    103  OD1       28.6780   15.3300    8.3020 O.2   107  ASN107     -0.2716
    104  ND2       26.4380   15.1550    8.3420 N.am  107  ASN107     -0.0877
    105  N         27.3930   20.2340    8.7440 N.am  108  THR108     -0.1937
    106  CA        27.2220   21.6110    8.3100 C.3   108  THR108      0.2028
    107  C         28.2580   22.5350    8.9400 C.2   108  THR108      0.2642
    108  O         28.8730   23.3480    8.2500 O.2   108  THR108     -0.2714
    109  CB        25.8060   22.1170    8.6400 C.3   108  THR108      0.1808
    110  OG1       24.8380   21.2440    8.0420 O.3   108  THR108     -0.2208
    111  CG2       25.5980   23.5290    8.1110 C.3   108  THR108      0.0379
    112  N         28.4570   22.3920   10.2460 N.am  109  LEU109     -0.1977
    113  CA        29.4230   23.2060   10.9740 C.3   109  LEU109      0.1596
    114  C         30.8350   23.0070   10.4320 C.2   109  LEU109      0.2287
    115  O         31.6130   23.9590   10.3290 O.2   109  LEU109     -0.2864
    116  CB        29.3790   22.8710   12.4660 C.3   109  LEU109      0.0297
    117  CG        30.3440   23.6180   13.3830 C.3   109  LEU109      0.0022
    118  CD1       30.1180   25.1140   13.3010 C.3   109  LEU109      0.0001
    119  CD2       30.1560   23.1410   14.8010 C.3   109  LEU109      0.0001
    120  N         26.4920   16.6020   21.1900 N.3   132  LYS132     -0.1245
    121  CA        25.9510   15.2520   21.2550 C.3   132  LYS132      0.1561
    122  C         26.8960   14.3030   20.5190 C.2   132  LYS132      0.2260
    123  O         26.6490   13.9530   19.3640 O.2   132  LYS132     -0.2867
    124  CB        24.5510   15.2050   20.6440 C.3   132  LYS132      0.0271
    125  CG        23.7040   14.0420   21.1080 C.3   132  LYS132      0.0035
    126  CD        22.4200   13.9570   20.3050 C.3   132  LYS132      0.0206
    127  CE        21.7100   15.3000   20.2410 C.3   132  LYS132      0.1093
    128  NZ        20.4850   15.2310   19.3870 N.3   132  LYS132     -0.1314
    129  N         16.5990   14.0580   21.5360 N.3   153  PHE153     -0.1227
    130  CA        16.1900   15.1700   20.6860 C.3   153  PHE153      0.1736
    131  C         15.8190   16.3500   21.5700 C.2   153  PHE153      0.2595
    132  O         14.7950   16.3260   22.2570 O.2   153  PHE153     -0.2718
    133  CB        15.0140   14.7940   19.7860 C.3   153  PHE153      0.0547
    134  CG        14.7570   15.7890   18.6870 C.ar  153  PHE153     -0.0202
    135  CD1       15.4330   15.6990   17.4790 C.ar  153  PHE153     -0.0042
    136  CD2       13.8540   16.8210   18.8660 C.ar  153  PHE153     -0.0042
    137  CE1       15.2030   16.6170   16.4660 C.ar  153  PHE153     -0.0003
    138  CE2       13.6190   17.7400   17.8570 C.ar  153  PHE153     -0.0003
    139  CZ        14.2940   17.6360   16.6550 C.ar  153  PHE153     -0.0000
    140  N         16.6600   17.3760   21.5600 N.am  154  VAL154     -0.1980
    141  CA        16.4750   18.4960   22.4660 C.3   154  VAL154      0.1595
    142  C         15.7980   19.6820   21.7900 C.2   154  VAL154      0.2287
    143  O         15.8700   19.8470   20.5680 O.2   154  VAL154     -0.2864
    144  CB        17.8140   18.9540   23.0670 C.3   154  VAL154      0.0276
    145  CG1       18.4120   17.8470   23.9150 C.3   154  VAL154      0.0022
    146  CG2       18.7740   19.3740   21.9710 C.3   154  VAL154      0.0022
    147  N         16.7570   26.2700   19.9440 N.3   159  ILE159     -0.1231
    148  CA        16.6390   25.0070   19.2290 C.3   159  ILE159      0.1692
    149  C         15.1700   24.6290   19.0940 C.2   159  ILE159      0.2592
    150  O         14.3850   24.8130   20.0220 O.2   159  ILE159     -0.2718
    151  CB        17.4230   23.8900   19.9350 C.3   159  ILE159      0.0266
    152  CG1       18.8590   24.3480   20.1970 C.3   159  ILE159      0.0019
    153  CG2       17.4140   22.6160   19.1030 C.3   159  ILE159      0.0020
    154  CD1       19.6440   23.4160   21.1010 C.3   159  ILE159      0.0001
    155  N         14.8050   24.1010   17.9310 N.am  160  ASP160     -0.1974
    156  CA        13.4050   23.9010   17.5860 C.3   160  ASP160      0.1709
    157  C         13.0200   22.4450   17.3290 C.2   160  ASP160      0.2293
    158  O         13.8720   21.5790   17.1300 O.2   160  ASP160     -0.2864
    159  CB        13.0630   24.7180   16.3420 C.3   160  ASP160      0.1436
    160  CG        13.5530   24.0560   15.0630 C.2   160  ASP160      0.3671
    161  OD1       12.7210   23.4690   14.3390 O.co2 160  ASP160     -0.2456
    162  OD2       14.7720   24.1060   14.7920 O.co2 160  ASP160     -0.2456
    163  N         10.0870   23.9650   13.9470 N.3   163  GLN163     -0.1245
    164  CA         9.9020   25.4050   14.1710 C.3   163  GLN163      0.1566
    165  C          9.2870   25.7470   15.5290 C.2   163  GLN163      0.2260
    166  O          9.0100   26.9130   15.8160 O.2   163  GLN163     -0.2867
    167  CB         9.0540   26.0230   13.0510 C.3   163  GLN163      0.0367
    168  CG         9.5900   25.7400   11.6580 C.3   163  GLN163      0.0905
    169  CD        11.0940   25.8990   11.5790 C.2   163  GLN163      0.2608
    170  OE1       11.6540   26.8810   12.0670 O.2   163  GLN163     -0.2717
    171  NE2       11.7610   24.9190   10.9760 N.am  163  GLN163     -0.0878
    172  N         11.4220   27.3520   20.2210 N.3   166  ARG166     -0.1245
    173  CA        12.6710   28.1250   20.2370 C.3   166  ARG166      0.1563
    174  C         12.7660   29.1000   21.4130 C.2   166  ARG166      0.2260
    175  O         13.8630   29.4430   21.8580 O.2   166  ARG166     -0.2867
    176  CB        12.8460   28.9130   18.9360 C.3   166  ARG166      0.0307
    177  CG        13.1620   28.0770   17.7220 C.3   166  ARG166      0.0489
    178  CD        13.5540   28.9690   16.5530 C.3   166  ARG166      0.2205
    179  NE        13.4210   28.2890   15.2670 N.pl3 166  ARG166     -0.0865
    180  CZ        14.3850   27.5750   14.6930 C.cat 166  ARG166      0.5346
    181  NH1       15.5640   27.4390   15.2860 N.pl3 166  ARG166      0.1354
    182  NH2       14.1680   26.9950   13.5220 N.pl3 166  ARG166      0.1354
@<TRIPOS>BOND
     1    29    28    1
     2    28    26   ar
     3    28    27   ar
     4    26    24   ar
     5    27    25   ar
     6    24    23   ar
     7    25    23   ar
     8    23    22    1
     9    22    19    1
    10    40    41    1
    11    19    18    1
    12    19    20    1
    13    42    43    2
    14    42    41    1
    15    41    44    1
    16    18    14   am
    17    12    13    1
    18    30    20   am
    19    30    31    1
    20    14    15    2
    21    14    13    1
    22    20    21    2
    23    44    45    1
    24    13    16    1
    25    31    32    1
    26    16    17    1
    27    33    32    2
    28    32    34   am
    29    36    37    2
    30    36    35    1
    31   110   109    1
    32   100    99    2
    33   111   109    1
    34   101   102    1
    35   101    98    1
    36   108   107    2
    37    34    35    1
    38   102   103    2
    39   102   104   am
    40   106   109    1
    41   106   105    1
    42   106   107    1
    43    99   105   am
    44    99    98    1
    45    35    38    1
    46   107   112   am
    47    98    97    1
    48    39    38    1
    49   112   113    1
    50   115   114    2
    51    11     9    1
    52   114   113    1
    53    97    95   am
    54   113   116    1
    55   171   169   am
    56    96    95    2
    57     9     8    2
    58     9    10    1
    59     8     7    1
    60    92    91    1
    61    95    94    1
    62   169   168    1
    63   169   170    2
    64   168   167    1
    65     7     6    1
    66    91    88    1
    67     6     5    1
    68     1     2    1
    69   116   117    1
    70    94    93    1
    71    90    89    2
    72    93    89   am
    73   167   164    1
    74    89    88    1
    75     5     2    1
    76    88    87    1
    77   118   117    1
    78     2     3    1
    79   117   119    1
    80   182   180    1
    81   163   164    1
    82   164   165    1
    83    87    81   am
    84   161   160   ar
    85    53    52   ar
    86   180   179    2
    87   180   181    1
    88     3     4    2
    89    85    84   ar
    90   162   160   ar
    91   160   159    1
    92   179   178    1
    93    52    54   ar
    94    52    51    1
    95    81    82    2
    96    81    80    1
    97   165   166    2
    98    83    84    1
    99    83    80    1
   100    84    86   ar
   101   159   156    1
   102    80    79    1
   103   137   139   ar
   104   137   135   ar
   105    79    73   am
   106    77    75    1
   107   178   177    1
   108    51    50    1
   109   139   138   ar
   110    66    65    2
   111    61    60   ar
   112    50    47    1
   113   158   157    2
   114   157   156    1
   115    72    73    1
   116    72    75    1
   117    72    71    1
   118    62    60   ar
   119   135   134   ar
   120    73    74    2
   121   156   155    1
   122    75    76    1
   123    47    46    1
   124    47    48    1
   125    76    78    1
   126    60    59    1
   127   177   176    1
   128   138   136   ar
   129   155   149   am
   130    65    71   am
   131    65    64    1
   132    69    67    1
   133    55    48   am
   134    55    56    1
   135   134   136   ar
   136   134   133    1
   137    48    49    2
   138    63    64    1
   139    63    57   am
   140   176   173    1
   141    59    56    1
   142   149   148    1
   143   149   150    2
   144   153   151    1
   145    64    67    1
   146   148   151    1
   147   148   147    1
   148    67    68    1
   149   123   122    2
   150   128   127    1
   151    56    57    1
   152    68    70    1
   153   133   130    1
   154    57    58    2
   155   151   152    1
   156   152   154    1
   157   172   173    1
   158   173   174    1
   159   127   126    1
   160   126   125    1
   161   122   121    1
   162   143   142    2
   163   124   125    1
   164   124   121    1
   165   130   129    1
   166   130   131    1
   167   120   121    1
   168   174   175    2
   169   140   131   am
   170   140   141    1
   171   131   132    2
   172   142   141    1
   173   146   144    1
   174   141   144    1
   175   144   145    1
