@<TRIPOS>MOLECULE
tmp/5knyB00.pdb
 166 161 0 0 0
SMALL
GASTEIGER

@<TRIPOS>ATOM
      1  N         66.9270   94.2320   23.0240 N.3    49  VAL49      -0.1231
      2  CA        67.9480   94.2000   21.9850 C.3    49  VAL49       0.1692
      3  C         69.2150   93.5200   22.4990 C.2    49  VAL49       0.2592
      4  O         69.8230   93.9710   23.4700 O.2    49  VAL49      -0.2718
      5  CB        68.2920   95.6090   21.4820 C.3    49  VAL49       0.0266
      6  CG1       69.2790   95.5260   20.3320 C.3    49  VAL49       0.0020
      7  CG2       67.0290   96.3370   21.0500 C.3    49  VAL49       0.0020
      8  N         69.6000   92.4310   21.8400 N.am   50  LEU50      -0.1966
      9  CA        70.7970   91.6740   22.2070 C.3    50  LEU50       0.1728
     10  C         72.0770   92.5040   22.1180 C.2    50  LEU50       0.2616
     11  O         72.2230   93.3420   21.2280 O.2    50  LEU50      -0.2715
     12  CB        70.9350   90.4160   21.3340 C.3    50  LEU50       0.0311
     13  CG        70.1040   89.1640   21.6410 C.3    50  LEU50       0.0022
     14  CD1       68.6580   89.4760   21.9580 C.3    50  LEU50       0.0001
     15  CD2       70.1930   88.1840   20.4840 C.3    50  LEU50       0.0001
     16  N         72.9970   92.2720   23.0530 N.am   51  LYS51      -0.1963
     17  CA        72.8050   91.2680   24.1010 C.3    51  LYS51       0.1728
     18  C         73.1670   91.7880   25.4850 C.2    51  LYS51       0.2616
     19  O         73.3250   91.0130   26.4280 O.2    51  LYS51      -0.2715
     20  CB        73.6040   90.0020   23.7800 C.3    51  LYS51       0.0311
     21  CG        75.0740   90.2200   23.4860 C.3    51  LYS51       0.0038
     22  CD        75.7430   88.8890   23.1890 C.3    51  LYS51       0.0206
     23  CE        77.1430   89.0710   22.6410 C.3    51  LYS51       0.1093
     24  NZ        77.1370   89.7730   21.3290 N.3    51  LYS51      -0.1314
     25  N         73.2870   93.1050   25.6010 N.am   52  GLY52      -0.1955
     26  CA        73.6550   93.7270   26.8570 C.3    52  GLY52       0.1869
     27  C         72.5200   93.6980   27.8630 C.2    52  GLY52       0.2309
     28  O         72.7420   93.5070   29.0570 O.2    52  GLY52      -0.2863
     29  N         66.1770   98.3240   27.5250 N.3   107  GLU107     -0.1231
     30  CA        67.5950   98.5040   27.2510 C.3   107  GLU107      0.1699
     31  C         68.3820   98.5470   28.5550 C.2   107  GLU107      0.2592
     32  O         67.8110   98.7540   29.6240 O.2   107  GLU107     -0.2718
     33  CB        67.8340   99.7680   26.4250 C.3   107  GLU107      0.0402
     34  CG        67.3680   99.6280   24.9870 C.3   107  GLU107      0.1161
     35  CD        67.9230  100.7030   24.0850 C.2   107  GLU107      0.3649
     36  OE1       68.5060  101.6720   24.6090 O.co2 107  GLU107     -0.2457
     37  OE2       67.7880  100.5710   22.8510 O.co2 107  GLU107     -0.2457
     38  N         69.6910   98.3540   28.4660 N.am  108  ASP108     -0.1960
     39  CA        70.5440   98.4260   29.6440 C.3   108  ASP108      0.1840
     40  C         71.1430   99.8240   29.7780 C.2   108  ASP108      0.2622
     41  O         71.3170  100.3290   30.8880 O.2   108  ASP108     -0.2715
     42  CB        71.6450   97.3640   29.5910 C.3   108  ASP108      0.1450
     43  CG        72.4550   97.4270   28.3170 C.2   108  ASP108      0.3671
     44  OD1       71.9950   98.0660   27.3470 O.co2 108  ASP108     -0.2456
     45  OD2       73.5510   96.8280   28.2840 O.co2 108  ASP108     -0.2456
     46  N         71.4490  100.4500   28.6460 N.am  109  VAL109     -0.1963
     47  CA        72.0050  101.7970   28.6580 C.3   109  VAL109      0.1727
     48  C         71.6030  102.5800   27.4060 C.2   109  VAL109      0.2616
     49  O         71.5860  102.0440   26.2970 O.2   109  VAL109     -0.2715
     50  CB        73.5490  101.7660   28.7740 C.3   109  VAL109      0.0290
     51  CG1       74.1610  101.0140   27.6040 C.3   109  VAL109      0.0023
     52  CG2       74.1150  103.1760   28.8520 C.3   109  VAL109      0.0023
     53  N         71.2410  103.8440   27.6040 N.am  110  VAL110     -0.1963
     54  CA        70.9240  104.7450   26.5010 C.3   110  VAL110      0.1727
     55  C         71.9240  105.8970   26.4400 C.2   110  VAL110      0.2616
     56  O         71.9640  106.7400   27.3350 O.2   110  VAL110     -0.2715
     57  CB        69.5010  105.3170   26.6260 C.3   110  VAL110      0.0290
     58  CG1       69.2240  106.2970   25.4980 C.3   110  VAL110      0.0023
     59  CG2       68.4790  104.1950   26.6300 C.3   110  VAL110      0.0023
     60  N         72.7360  105.9210   25.3870 N.am  111  ASP111     -0.1957
     61  CA        73.7740  106.9370   25.2410 C.3   111  ASP111      0.1840
     62  C         73.3520  108.0320   24.2650 C.2   111  ASP111      0.2623
     63  O         72.9160  109.1060   24.6760 O.2   111  ASP111     -0.2715
     64  CB        75.0850  106.2980   24.7750 C.3   111  ASP111      0.1450
     65  CG        76.2750  107.2290   24.9180 C.2   111  ASP111      0.3671
     66  OD1       77.3970  106.8170   24.5530 O.co2 111  ASP111     -0.2456
     67  OD2       76.0930  108.3750   25.3800 O.co2 111  ASP111     -0.2456
     68  N         73.4810  107.7540   22.9730 N.am  112  SER112     -0.1936
     69  CA        73.1300  108.7310   21.9520 C.3   112  SER112      0.2055
     70  C         71.6210  108.8080   21.7540 C.2   112  SER112      0.2644
     71  O         71.0600  109.8940   21.6050 O.2   112  SER112     -0.2714
     72  CB        73.8170  108.3870   20.6290 C.3   112  SER112      0.2130
     73  OG        73.4150  107.1080   20.1690 O.3   112  SER112     -0.2179
     74  N         70.9690  107.6500   21.7530 N.am  113  GLY113     -0.1939
     75  CA        69.5280  107.5910   21.5930 C.3   113  GLY113      0.2014
     76  C         69.0940  107.4240   20.1500 C.2   113  GLY113      0.2639
     77  O         67.9090  107.5400   19.8410 O.2   113  GLY113     -0.2714
     78  N         70.0450  107.1360   19.2670 N.am  114  LEU114     -0.1963
     79  CA        69.7510  107.0690   17.8390 C.3   114  LEU114      0.1728
     80  C         69.3300  105.6750   17.3940 C.2   114  LEU114      0.2617
     81  O         68.4270  105.5320   16.5690 O.2   114  LEU114     -0.2715
     82  CB        70.9600  107.5250   17.0190 C.3   114  LEU114      0.0311
     83  CG        71.4530  108.9500   17.2670 C.3   114  LEU114      0.0022
     84  CD1       72.6610  109.2550   16.3960 C.3   114  LEU114      0.0001
     85  CD2       70.3350  109.9500   17.0090 C.3   114  LEU114      0.0001
     86  N         69.9750  104.6480   17.9360 N.am  115  THR115     -0.1937
     87  CA        69.5550  103.2840   17.6510 C.3   115  THR115      0.2028
     88  C         68.2200  103.0270   18.3380 C.2   115  THR115      0.2642
     89  O         67.3820  102.2790   17.8340 O.2   115  THR115     -0.2714
     90  CB        70.5990  102.2470   18.1110 C.3   115  THR115      0.1808
     91  OG1       70.6440  102.2070   19.5420 O.3   115  THR115     -0.2208
     92  CG2       71.9780  102.6030   17.5740 C.3   115  THR115      0.0379
     93  N         68.0280  103.6650   19.4890 N.am  116  LEU116     -0.1977
     94  CA        66.7760  103.5690   20.2300 C.3   116  LEU116      0.1596
     95  C         65.6450  104.2980   19.5080 C.2   116  LEU116      0.2287
     96  O         64.4970  103.8540   19.5320 O.2   116  LEU116     -0.2864
     97  CB        66.9450  104.1320   21.6430 C.3   116  LEU116      0.0297
     98  CG        65.7030  104.1180   22.5400 C.3   116  LEU116      0.0022
     99  CD1       65.2150  102.6950   22.7730 C.3   116  LEU116      0.0001
    100  CD2       65.9810  104.8180   23.8640 C.3   116  LEU116      0.0001
    101  N         72.9600  108.0520   30.0550 N.3   139  LYS139     -0.1245
    102  CA        74.0900  108.9740   30.0340 C.3   139  LYS139      0.1561
    103  C         73.6660  110.3660   29.5390 C.2   139  LYS139      0.2260
    104  O         72.6220  110.5010   28.9010 O.2   139  LYS139     -0.2867
    105  CB        75.2220  108.3720   29.1930 C.3   139  LYS139      0.0271
    106  CG        75.7450  107.0710   29.7980 C.3   139  LYS139      0.0035
    107  CD        77.1740  106.7520   29.3930 C.3   139  LYS139      0.0206
    108  CE        77.2750  106.2910   27.9590 C.3   139  LYS139      0.1093
    109  NZ        78.6900  106.0240   27.5870 N.3   139  LYS139     -0.1314
    110  N         80.8270  108.4950   31.1360 N.3   159  ASP159     -0.1225
    111  CA        82.0180  107.6560   31.1560 C.3   159  ASP159      0.1805
    112  C         81.6880  106.2460   30.6910 C.2   159  ASP159      0.2598
    113  O         80.5710  105.7700   30.8870 O.2   159  ASP159     -0.2718
    114  CB        82.6160  107.6070   32.5650 C.3   159  ASP159      0.1424
    115  CG        82.9770  108.9790   33.0960 C.2   159  ASP159      0.3668
    116  OD1       83.2880  109.8740   32.2840 O.co2 159  ASP159     -0.2456
    117  OD2       82.9430  109.1630   34.3310 O.co2 159  ASP159     -0.2456
    118  N         82.6590  105.5790   30.0760 N.am  160  PHE160     -0.1962
    119  CA        82.4370  104.2310   29.5690 C.3   160  PHE160      0.1771
    120  C         82.4330  103.2320   30.7180 C.2   160  PHE160      0.2619
    121  O         83.4500  103.0450   31.3870 O.2   160  PHE160     -0.2715
    122  CB        83.4900  103.8410   28.5340 C.3   160  PHE160      0.0574
    123  CG        83.2080  102.5290   27.8600 C.ar  160  PHE160     -0.0200
    124  CD1       83.7960  101.3590   28.3140 C.ar  160  PHE160     -0.0042
    125  CD2       82.3380  102.4620   26.7850 C.ar  160  PHE160     -0.0042
    126  CE1       83.5290  100.1490   27.7000 C.ar  160  PHE160     -0.0003
    127  CE2       82.0670  101.2550   26.1670 C.ar  160  PHE160     -0.0003
    128  CZ        82.6640  100.0970   26.6250 C.ar  160  PHE160     -0.0000
    129  N         81.2900  102.5970   30.9500 N.am  161  VAL161     -0.1977
    130  CA        81.1610  101.6590   32.0590 C.3   161  VAL161      0.1596
    131  C         80.8750  100.2430   31.5690 C.2   161  VAL161      0.2287
    132  O         80.2350  100.0470   30.5360 O.2   161  VAL161     -0.2864
    133  CB        80.0470  102.0890   33.0310 C.3   161  VAL161      0.0276
    134  CG1       80.4380  103.3720   33.7430 C.3   161  VAL161      0.0022
    135  CG2       78.7320  102.2700   32.2890 C.3   161  VAL161      0.0022
    136  N         75.9400   93.0590   31.9260 N.3   165  GLY165     -0.1210
    137  CA        75.4990   93.0870   30.5450 C.3   165  GLY165      0.1956
    138  C         76.3540   93.9910   29.6800 C.2   165  GLY165      0.2612
    139  O         76.5330   93.7390   28.4900 O.2   165  GLY165     -0.2717
    140  N         76.8510   95.0710   30.2720 N.am  166  LEU166     -0.1965
    141  CA        77.7250   95.9930   29.5580 C.3   166  LEU166      0.1728
    142  C         79.0900   95.3690   29.3120 C.2   166  LEU166      0.2616
    143  O         79.6700   94.7590   30.2090 O.2   166  LEU166     -0.2715
    144  CB        77.8710   97.2950   30.3380 C.3   166  LEU166      0.0311
    145  CG        76.5710   98.0820   30.4580 C.3   166  LEU166      0.0022
    146  CD1       76.7620   99.2970   31.3410 C.3   166  LEU166      0.0001
    147  CD2       76.1230   98.4900   29.0760 C.3   166  LEU166      0.0001
    148  N         79.6070   95.5260   28.0970 N.am  167  ASP167     -0.1971
    149  CA        80.8460   94.8580   27.7280 C.3   167  ASP167      0.1709
    150  C         81.9160   95.7890   27.1800 C.2   167  ASP167      0.2293
    151  O         81.6520   96.9390   26.8320 O.2   167  ASP167     -0.2864
    152  CB        80.5750   93.7770   26.6830 C.3   167  ASP167      0.1436
    153  CG        80.4120   94.3480   25.2870 C.2   167  ASP167      0.3671
    154  OD1       79.6290   95.3060   25.1190 O.co2 167  ASP167     -0.2456
    155  OD2       81.0790   93.8460   24.3580 O.co2 167  ASP167     -0.2456
    156  N         80.7190   91.2260   30.9990 N.3   173  ARG173     -0.1245
    157  CA        79.2610   91.1590   31.0830 C.3   173  ARG173      0.1563
    158  C         78.7670   90.3790   32.2970 C.2   173  ARG173      0.2260
    159  O         77.7160   90.6920   32.8550 O.2   173  ARG173     -0.2867
    160  CB        78.6540   90.5640   29.8130 C.3   173  ARG173      0.0307
    161  CG        78.6350   91.5190   28.6410 C.3   173  ARG173      0.0489
    162  CD        77.7200   91.0050   27.5400 C.3   173  ARG173      0.2205
    163  NE        77.5970   91.9480   26.4310 N.pl3 173  ARG173     -0.0865
    164  CZ        78.1540   91.7800   25.2390 C.cat 173  ARG173      0.5346
    165  NH1       77.9830   92.6890   24.2900 N.pl3 173  ARG173      0.1354
    166  NH2       78.8800   90.7000   24.9980 N.pl3 173  ARG173      0.1354
@<TRIPOS>BOND
     1    84    83    1
     2    81    80    2
     3    85    83    1
     4    82    83    1
     5    82    79    1
     6    80    79    1
     7    80    86   am
     8    92    90    1
     9    87    86    1
    10    87    90    1
    11    87    88    1
    12    89    88    2
    13    79    78    1
    14    90    91    1
    15    88    93   am
    16    78    76   am
    17    93    94    1
    18    95    96    2
    19    95    94    1
    20    77    76    2
    21    76    75    1
    22    73    72    1
    23    94    97    1
    24     6     5    1
    25    15    13    1
    26    72    69    1
    27     7     5    1
    28    11    10    2
    29    24    23    1
    30    12    13    1
    31    12     9    1
    32     5     2    1
    33    75    74    1
    34    71    70    2
    35    13    14    1
    36    97    98    1
    37    74    70   am
    38    70    69    1
    39     8     9    1
    40     8     3   am
    41    69    68    1
    42     2     3    1
    43     2     1    1
    44    10     9    1
    45    10    16   am
    46     3     4    2
    47    98    99    1
    48    98   100    1
    49    23    22    1
    50    37    35   ar
    51    68    62   am
    52    16    17    1
    53    22    21    1
    54    21    20    1
    55    20    17    1
    56    35    36   ar
    57    35    34    1
    58    17    18    1
    59    62    63    2
    60    62    61    1
    61   165   164    1
    62   155   153   ar
    63    66    65   ar
    64    64    65    1
    65    64    61    1
    66    65    67   ar
    67    34    33    1
    68   166   164    1
    69   154   153   ar
    70   164   163    2
    71    61    60    1
    72   153   152    1
    73    60    55   am
    74    18    25   am
    75    18    19    2
    76    58    57    1
    77    25    26    1
    78   127   128   ar
    79   127   125   ar
    80    49    48    2
    81    33    30    1
    82   163   162    1
    83    55    54    1
    84    55    56    2
    85    54    57    1
    86    54    53    1
    87   128   126   ar
    88    57    59    1
    89   152   149    1
    90   125   123   ar
    91   151   150    2
    92    26    27    1
    93   150   149    1
    94    30    29    1
    95    30    31    1
    96    44    43   ar
    97    48    53   am
    98    48    47    1
    99   162   161    1
   100   109   108    1
   101    51    50    1
   102   126   124   ar
   103   149   148    1
   104   123   124   ar
   105   123   122    1
   106    27    28    2
   107   108   107    1
   108   148   142   am
   109    45    43   ar
   110    43    42    1
   111    38    31   am
   112    38    39    1
   113   139   138    2
   114   122   119    1
   115    31    32    2
   116   161   160    1
   117    46    47    1
   118    46    40   am
   119    47    50    1
   120    50    52    1
   121   104   103    2
   122   147   145    1
   123   105   106    1
   124   105   102    1
   125   142   141    1
   126   142   143    2
   127   107   106    1
   128   103   102    1
   129   141   140    1
   130   141   144    1
   131   119   118    1
   132   119   120    1
   133    42    39    1
   134    39    40    1
   135   138   140   am
   136   138   137    1
   137    40    41    2
   138   160   157    1
   139   102   101    1
   140   118   112   am
   141   144   145    1
   142   145   146    1
   143   132   131    2
   144   137   136    1
   145   112   113    2
   146   112   111    1
   147   120   129   am
   148   120   121    2
   149   129   130    1
   150   156   157    1
   151   157   158    1
   152   110   111    1
   153   111   114    1
   154   131   130    1
   155   130   133    1
   156   116   115   ar
   157   135   133    1
   158   158   159    2
   159   114   115    1
   160   133   134    1
   161   115   117   ar
