@<TRIPOS>MOLECULE
tmp/5ko6A00.pdb
 93 87 0 0 0
SMALL
GASTEIGER

@<TRIPOS>ATOM
      1  N         -0.9560  -26.9430   -0.2020 N.3   116  LEU116     -0.1231
      2  CA         0.4050  -26.4570   -0.3940 C.3   116  LEU116      0.1693
      3  C          0.3140  -25.0340   -0.9240 C.2   116  LEU116      0.2592
      4  O         -0.5150  -24.7370   -1.7900 O.2   116  LEU116     -0.2718
      5  CB         1.1580  -27.3220   -1.4090 C.3   116  LEU116      0.0284
      6  CG         1.9120  -28.5600   -0.8990 C.3   116  LEU116      0.0019
      7  CD1        3.1910  -28.1870   -0.1620 C.3   116  LEU116      0.0001
      8  CD2        1.0370  -29.4290   -0.0260 C.3   116  LEU116      0.0001
      9  N          1.1370  -24.1420   -0.3840 N.am  117  ALA117     -0.1966
     10  CA         1.0220  -22.7290   -0.7060 C.3   117  ALA117      0.1728
     11  C          2.3970  -22.0830   -0.7690 C.2   117  ALA117      0.2616
     12  O          3.3840  -22.6120   -0.2510 O.2   117  ALA117     -0.2715
     13  CB         0.1690  -21.9950    0.3400 C.3   117  ALA117      0.0334
     14  N          2.4460  -20.9160   -1.4060 N.am  118  GLY118     -0.1955
     15  CA         3.6510  -20.0990   -1.4130 C.3   118  GLY118      0.1869
     16  C          3.6460  -19.1350   -0.2370 C.2   118  GLY118      0.2309
     17  O          2.6130  -18.5770    0.1200 O.2   118  GLY118     -0.2863
     18  N         -5.1570  -17.1960   -5.3710 N.3   195  ASN195     -0.1240
     19  CA        -4.8050  -17.0000   -6.7740 C.3   195  ASN195      0.1653
     20  C         -5.4940  -18.0980   -7.5720 C.2   195  ASN195      0.2266
     21  O         -5.1940  -19.2810   -7.3920 O.2   195  ASN195     -0.2867
     22  CB        -3.2870  -17.1430   -6.9180 C.3   195  ASN195      0.1155
     23  CG        -2.8410  -17.2750   -8.3640 C.2   195  ASN195      0.2627
     24  OD1       -3.4800  -16.7510   -9.2770 O.2   195  ASN195     -0.2716
     25  ND2       -1.7260  -17.9920   -8.5780 N.am  195  ASN195     -0.0877
     26  N          1.7570  -20.1650  -11.1630 N.3   200  TYR200     -0.1227
     27  CA         2.1750  -19.6430   -9.8750 C.3   200  TYR200      0.1736
     28  C          2.1590  -18.1230   -9.9120 C.2   200  TYR200      0.2595
     29  O          2.3060  -17.5060  -10.9770 O.2   200  TYR200     -0.2718
     30  CB         3.5960  -20.1270   -9.5460 C.3   200  TYR200      0.0548
     31  CG         3.6620  -21.6240   -9.3200 C.ar  200  TYR200     -0.0200
     32  CD1        3.0780  -22.1920   -8.1940 C.ar  200  TYR200     -0.0009
     33  CD2        4.2820  -22.4640  -10.2360 C.ar  200  TYR200     -0.0009
     34  CE1        3.1240  -23.5560   -7.9780 C.ar  200  TYR200      0.0417
     35  CE2        4.3170  -23.8250  -10.0240 C.ar  200  TYR200      0.0417
     36  CZ         3.7390  -24.3500   -8.8940 C.ar  200  TYR200      0.1957
     37  OH         3.7650  -25.7080   -8.6830 O.3   200  TYR200     -0.2866
     38  N          1.9490  -17.5260   -8.7400 N.am  201  GLU201     -0.1979
     39  CA         2.0410  -16.0790   -8.6040 C.3   201  GLU201      0.1602
     40  C          3.3540  -15.6030   -9.2120 C.2   201  GLU201      0.2287
     41  O          4.4110  -16.1990   -8.9870 O.2   201  GLU201     -0.2864
     42  CB         1.9790  -15.7150   -7.1030 C.3   201  GLU201      0.0415
     43  CG         3.1530  -16.2090   -6.1860 C.3   201  GLU201      0.1163
     44  CD         3.0730  -17.6570   -5.7230 C.2   201  GLU201      0.3649
     45  OE1        2.1770  -18.3940   -6.1550 O.co2 201  GLU201     -0.2457
     46  OE2        3.9260  -18.0840   -4.9070 O.co2 201  GLU201     -0.2457
     47  N         -0.1120  -17.6960   -0.3360 N.3   217  VAL217     -0.1231
     48  CA        -0.8890  -17.6390   -1.5750 C.3   217  VAL217      0.1692
     49  C         -1.0040  -19.0470   -2.1430 C.2   217  VAL217      0.2593
     50  O         -0.0340  -19.8130   -2.1470 O.2   217  VAL217     -0.2718
     51  CB        -0.2650  -16.6610   -2.5970 C.3   217  VAL217      0.0266
     52  CG1        1.1800  -17.0430   -2.9150 C.3   217  VAL217      0.0020
     53  CG2       -1.0950  -16.6080   -3.8730 C.3   217  VAL217      0.0020
     54  N         -2.1980  -19.4000   -2.6040 N.am  218  GLY218     -0.1942
     55  CA        -2.3940  -20.7070   -3.2040 C.3   218  GLY218      0.2014
     56  C         -3.6170  -20.6990   -4.0900 C.2   218  GLY218      0.2638
     57  O         -4.3020  -19.6780   -4.2270 O.2   218  GLY218     -0.2714
     58  N         -3.9090  -21.8630   -4.6770 N.am  219  MET219     -0.1976
     59  CA        -4.9000  -21.9760   -5.7470 C.3   219  MET219      0.1605
     60  C         -6.1100  -22.8040   -5.3450 C.2   219  MET219      0.2287
     61  O         -6.8150  -23.3270   -6.2130 O.2   219  MET219     -0.2864
     62  CB        -4.2570  -22.5810   -6.9980 C.3   219  MET219      0.0413
     63  CG        -2.9590  -21.9280   -7.3880 C.3   219  MET219      0.0598
     64  SD        -2.2530  -22.7910   -8.8190 S.3   219  MET219     -0.1393
     65  CE        -0.6540  -22.0270   -8.8730 C.3   219  MET219      0.0692
     66  N          5.4900  -24.3320    0.5620 N.3   242  ALA242     -0.1231
     67  CA         6.4330  -24.9850   -0.3460 C.3   242  ALA242      0.1694
     68  C          7.7020  -24.1680   -0.5490 C.2   242  ALA242      0.2592
     69  O          8.7600  -24.7340   -0.8430 O.2   242  ALA242     -0.2718
     70  CB         5.7660  -25.2300   -1.7020 C.3   242  ALA242      0.0304
     71  N          7.6180  -22.8530   -0.3930 N.am  243  ASN243     -0.1974
     72  CA         8.6940  -21.9560   -0.7900 C.3   243  ASN243      0.1688
     73  C          8.3130  -20.5860   -0.2760 C.2   243  ASN243      0.2292
     74  O          7.1460  -20.3330    0.0330 O.2   243  ASN243     -0.2864
     75  CB         8.8250  -21.8980   -2.3120 C.3   243  ASN243      0.1181
     76  CG         7.6390  -21.2200   -2.9650 C.2   243  ASN243      0.2629
     77  OD1        6.5120  -21.7000   -2.8690 O.2   243  ASN243     -0.2716
     78  ND2        7.8860  -20.0860   -3.6150 N.am  243  ASN243     -0.0877
     79  N          9.9590  -21.7450   -9.1130 N.3   255  ILE255     -0.1245
     80  CA         9.1470  -22.7150   -8.3940 C.3   255  ILE255      0.1561
     81  C          8.5450  -23.6630   -9.4150 C.2   255  ILE255      0.2260
     82  O          8.3160  -23.2990  -10.5730 O.2   255  ILE255     -0.2867
     83  CB         8.0660  -22.0560   -7.5030 C.3   255  ILE255      0.0252
     84  CG1        7.3520  -23.0990   -6.6300 C.3   255  ILE255      0.0019
     85  CG2        7.0690  -21.2930   -8.3470 C.3   255  ILE255      0.0019
     86  CD1        8.2960  -23.9550   -5.7660 C.3   255  ILE255      0.0001
     87  N          7.3260  -28.4810   -5.0380 N.3   260  VAL260     -0.1245
     88  CA         6.1710  -28.4900   -4.1440 C.3   260  VAL260      0.1561
     89  C          5.9690  -29.8800   -3.5620 C.2   260  VAL260      0.2260
     90  O          5.8130  -30.0510   -2.3450 O.2   260  VAL260     -0.2867
     91  CB         4.9190  -27.9910   -4.8890 C.3   260  VAL260      0.0252
     92  CG1        3.6660  -28.1750   -4.0130 C.3   260  VAL260      0.0019
     93  CG2        5.0950  -26.5440   -5.2680 C.3   260  VAL260      0.0019
@<TRIPOS>BOND
     1    26    27    1
     2    29    28    2
     3    82    81    2
     4    33    35   ar
     5    33    31   ar
     6    35    36   ar
     7    28    27    1
     8    28    38   am
     9    27    30    1
    10    30    31    1
    11    81    80    1
    12    31    32   ar
    13    24    23    2
    14    40    41    2
    15    40    39    1
    16    79    80    1
    17    36    37    1
    18    36    34   ar
    19    65    64    1
    20    64    63    1
    21    38    39    1
    22    39    42    1
    23    25    23   am
    24    80    83    1
    25    23    22    1
    26    85    83    1
    27    32    34   ar
    28    20    21    2
    29    20    19    1
    30    83    84    1
    31    63    62    1
    32    42    43    1
    33    62    59    1
    34    22    19    1
    35    19    18    1
    36    84    86    1
    37    61    60    2
    38    43    44    1
    39    45    44   ar
    40    59    60    1
    41    59    58    1
    42    44    46   ar
    43    93    91    1
    44    87    88    1
    45    91    88    1
    46    91    92    1
    47    58    56   am
    48    57    56    2
    49    88    89    1
    50    56    55    1
    51    53    51    1
    52    78    76   am
    53    89    90    2
    54    55    54    1
    55    76    77    2
    56    76    75    1
    57    52    51    1
    58    54    49   am
    59    51    48    1
    60    75    72    1
    61    50    49    2
    62    49    48    1
    63     4     3    2
    64    70    67    1
    65    48    47    1
    66    15    14    1
    67    15    16    1
    68     5     6    1
    69     5     2    1
    70    14    11   am
    71     3     2    1
    72     3     9   am
    73     6     7    1
    74     6     8    1
    75    69    68    2
    76    72    71    1
    77    72    73    1
    78    11    10    1
    79    11    12    2
    80    10     9    1
    81    10    13    1
    82    68    71   am
    83    68    67    1
    84     2     1    1
    85    67    66    1
    86    73    74    2
    87    16    17    2
