@<TRIPOS>MOLECULE
tmp/5ko6A01.pdb
 118 113 0 0 0
SMALL
GASTEIGER

@<TRIPOS>ATOM
      1  N         -4.2660  -31.6700    0.6160 N.3    32  GLY32      -0.1210
      2  CA        -3.4870  -30.9700   -0.3750 C.3    32  GLY32       0.1956
      3  C         -2.6150  -31.8990   -1.2030 C.2    32  GLY32       0.2612
      4  O         -2.5510  -33.1100   -0.9890 O.2    32  GLY32      -0.2717
      5  N         -1.9190  -31.2940   -2.1670 N.am   33  SER33      -0.1952
      6  CA        -1.0500  -32.0340   -3.0810 C.3    33  SER33       0.1924
      7  C         -0.0050  -32.8390   -2.3120 C.2    33  SER33       0.2314
      8  O          0.8040  -32.2660   -1.5860 O.2    33  SER33      -0.2863
      9  CB        -0.3370  -31.0480   -4.0100 C.3    33  SER33       0.2116
     10  OG        -1.2530  -30.2640   -4.7560 O.3    33  SER33      -0.2180
     11  N         -8.9020  -33.8720   -5.0720 N.3    84  ARG84      -0.1245
     12  CA        -9.5620  -32.5980   -4.8390 C.3    84  ARG84       0.1563
     13  C         -9.9390  -31.9370   -6.1640 C.2    84  ARG84       0.2260
     14  O         -9.2540  -32.0890   -7.1760 O.2    84  ARG84      -0.2867
     15  CB        -8.5770  -31.7160   -4.0830 C.3    84  ARG84       0.0307
     16  CG        -8.9470  -30.2910   -3.9570 C.3    84  ARG84       0.0489
     17  CD        -7.8230  -29.6120   -3.2310 C.3    84  ARG84       0.2205
     18  NE        -8.3110  -28.6580   -2.2540 N.pl3  84  ARG84      -0.0865
     19  CZ        -7.5890  -28.2300   -1.2330 C.cat  84  ARG84       0.5346
     20  NH1       -6.3450  -28.6760   -1.0570 N.pl3  84  ARG84       0.1354
     21  NH2       -8.1190  -27.3610   -0.3890 N.pl3  84  ARG84       0.1354
     22  N        -10.1000  -28.6040   -8.1720 N.3    86  HIS86      -0.1241
     23  CA        -9.5370  -27.2630   -8.1960 C.3    86  HIS86       0.1621
     24  C        -10.2010  -26.4490   -9.2970 C.2    86  HIS86       0.2264
     25  O        -10.4010  -26.9380  -10.4140 O.2    86  HIS86      -0.2867
     26  CB        -8.0390  -27.3210   -8.5060 C.3    86  HIS86       0.0745
     27  CG        -7.2070  -27.9780   -7.4490 C.ar   86  HIS86       0.0817
     28  ND1       -6.9540  -29.3360   -7.4290 N.ar   86  HIS86      -0.2268
     29  CD2       -6.5240  -27.4530   -6.4080 C.ar   86  HIS86       0.1154
     30  CE1       -6.1790  -29.6190   -6.3940 C.ar   86  HIS86       0.1986
     31  NE2       -5.8960  -28.4940   -5.7650 N.ar   86  HIS86      -0.2212
     32  N         -9.0230  -24.0090  -11.0940 N.3    88  TYR88      -0.1241
     33  CA        -8.2050  -23.7940  -12.2970 C.3    88  TYR88       0.1605
     34  C         -8.3910  -24.8940  -13.3350 C.2    88  TYR88       0.2264
     35  O         -7.9660  -24.7150  -14.4730 O.2    88  TYR88      -0.2867
     36  CB        -6.7090  -23.6070  -11.9830 C.3    88  TYR88       0.0534
     37  CG        -6.0900  -24.7530  -11.2160 C.ar   88  TYR88      -0.0201
     38  CD1       -5.8720  -25.9870  -11.8120 C.ar   88  TYR88      -0.0009
     39  CD2       -5.7010  -24.5840   -9.8960 C.ar   88  TYR88      -0.0009
     40  CE1       -5.3170  -27.0360  -11.0960 C.ar   88  TYR88       0.0417
     41  CE2       -5.1500  -25.6300   -9.1730 C.ar   88  TYR88       0.0417
     42  CZ        -4.9640  -26.8480   -9.7840 C.ar   88  TYR88       0.1957
     43  OH        -4.4160  -27.8910   -9.0610 O.3    88  TYR88      -0.2866
     44  N         -3.4870  -27.6640    2.2890 N.3   115  ASN115     -0.1225
     45  CA        -3.0470  -27.2770    0.9570 C.3   115  ASN115      0.1785
     46  C         -1.5520  -27.0000    0.9910 C.2   115  ASN115      0.2597
     47  O         -0.9590  -26.8390    2.0590 O.2   115  ASN115     -0.2718
     48  CB        -3.8130  -26.0450    0.4300 C.3   115  ASN115      0.1169
     49  CG        -3.5880  -24.7940    1.2800 C.2   115  ASN115      0.2627
     50  OD1       -2.4720  -24.2770    1.3860 O.2   115  ASN115     -0.2716
     51  ND2       -4.6630  -24.2890    1.8770 N.am  115  ASN115     -0.0877
     52  N         -0.9560  -26.9430   -0.2020 N.am  116  LEU116     -0.1980
     53  CA         0.4050  -26.4570   -0.3940 C.3   116  LEU116      0.1596
     54  C          0.3140  -25.0340   -0.9240 C.2   116  LEU116      0.2287
     55  O         -0.5150  -24.7370   -1.7900 O.2   116  LEU116     -0.2864
     56  CB         1.1580  -27.3220   -1.4090 C.3   116  LEU116      0.0297
     57  CG         1.9120  -28.5600   -0.8990 C.3   116  LEU116      0.0022
     58  CD1        3.1910  -28.1870   -0.1620 C.3   116  LEU116      0.0001
     59  CD2        1.0370  -29.4290   -0.0260 C.3   116  LEU116      0.0001
     60  N         -4.6350  -16.0690    3.8590 N.3   192  TYR192     -0.1241
     61  CA        -4.4300  -16.8040    2.6110 C.3   192  TYR192      0.1605
     62  C         -4.9840  -16.0110    1.4280 C.2   192  TYR192      0.2264
     63  O         -6.1770  -15.6990    1.3900 O.2   192  TYR192     -0.2867
     64  CB        -5.1450  -18.1520    2.7120 C.3   192  TYR192      0.0534
     65  CG        -5.0330  -19.1010    1.5330 C.ar  192  TYR192     -0.0201
     66  CD1       -5.8980  -18.9890    0.4360 C.ar  192  TYR192     -0.0009
     67  CD2       -4.1200  -20.1650    1.5480 C.ar  192  TYR192     -0.0009
     68  CE1       -5.8270  -19.8820   -0.6160 C.ar  192  TYR192      0.0417
     69  CE2       -4.0410  -21.0700    0.5010 C.ar  192  TYR192      0.0417
     70  CZ        -4.9000  -20.9170   -0.5860 C.ar  192  TYR192      0.1957
     71  OH        -4.8390  -21.8110   -1.6130 O.3   192  TYR192     -0.2866
     72  N          1.7570  -20.1650  -11.1630 N.3   200  TYR200     -0.1241
     73  CA         2.1750  -19.6430   -9.8750 C.3   200  TYR200      0.1605
     74  C          2.1590  -18.1230   -9.9120 C.2   200  TYR200      0.2264
     75  O          2.3060  -17.5060  -10.9770 O.2   200  TYR200     -0.2867
     76  CB         3.5960  -20.1270   -9.5460 C.3   200  TYR200      0.0534
     77  CG         3.6620  -21.6240   -9.3200 C.ar  200  TYR200     -0.0201
     78  CD1        3.0780  -22.1920   -8.1940 C.ar  200  TYR200     -0.0009
     79  CD2        4.2820  -22.4640  -10.2360 C.ar  200  TYR200     -0.0009
     80  CE1        3.1240  -23.5560   -7.9780 C.ar  200  TYR200      0.0417
     81  CE2        4.3170  -23.8250  -10.0240 C.ar  200  TYR200      0.0417
     82  CZ         3.7390  -24.3500   -8.8940 C.ar  200  TYR200      0.1957
     83  OH         3.7650  -25.7080   -8.6830 O.3   200  TYR200     -0.2866
     84  N         -2.1980  -19.4000   -2.6040 N.3   218  GLY218     -0.1210
     85  CA        -2.3940  -20.7070   -3.2040 C.3   218  GLY218      0.1956
     86  C         -3.6170  -20.6990   -4.0900 C.2   218  GLY218      0.2612
     87  O         -4.3020  -19.6780   -4.2270 O.2   218  GLY218     -0.2717
     88  N         -3.9090  -21.8630   -4.6770 N.am  219  MET219     -0.1965
     89  CA        -4.9000  -21.9760   -5.7470 C.3   219  MET219      0.1736
     90  C         -6.1100  -22.8040   -5.3450 C.2   219  MET219      0.2617
     91  O         -6.8150  -23.3270   -6.2130 O.2   219  MET219     -0.2715
     92  CB        -4.2570  -22.5810   -6.9980 C.3   219  MET219      0.0427
     93  CG        -2.9590  -21.9280   -7.3880 C.3   219  MET219      0.0599
     94  SD        -2.2530  -22.7910   -8.8190 S.3   219  MET219     -0.1393
     95  CE        -0.6540  -22.0270   -8.8730 C.3   219  MET219      0.0692
     96  N         -6.3540  -22.9640   -4.0510 N.am  220  SER220     -0.1950
     97  CA        -7.4260  -23.8420   -3.6110 C.3   220  SER220      0.1924
     98  C         -8.0430  -23.2580   -2.3490 C.2   220  SER220      0.2314
     99  O         -7.8130  -22.0930   -1.9950 O.2   220  SER220     -0.2863
    100  CB        -6.8900  -25.2580   -3.3560 C.3   220  SER220      0.2116
    101  OG        -6.0810  -25.2710   -2.1910 O.3   220  SER220     -0.2180
    102  N          6.1800  -27.7350   -9.6060 N.3   257  HIS257     -0.1241
    103  CA         5.3650  -28.6780   -8.8550 C.3   257  HIS257      0.1621
    104  C          6.2100  -29.8020   -8.2680 C.2   257  HIS257      0.2264
    105  O          5.8510  -30.3600   -7.2320 O.2   257  HIS257     -0.2867
    106  CB         4.2280  -29.2090   -9.7340 C.3   257  HIS257      0.0745
    107  CG         3.1790  -29.9510   -8.9670 C.ar  257  HIS257      0.0817
    108  ND1        2.4860  -29.3820   -7.9250 N.ar  257  HIS257     -0.2268
    109  CD2        2.7070  -31.2150   -9.0910 C.ar  257  HIS257      0.1154
    110  CE1        1.6370  -30.2650   -7.4260 C.ar  257  HIS257      0.1986
    111  NE2        1.7460  -31.3820   -8.1220 N.ar  257  HIS257     -0.2212
    112  N          7.3260  -28.4810   -5.0380 N.3   260  VAL260     -0.1245
    113  CA         6.1710  -28.4900   -4.1440 C.3   260  VAL260      0.1561
    114  C          5.9690  -29.8800   -3.5620 C.2   260  VAL260      0.2260
    115  O          5.8130  -30.0510   -2.3450 O.2   260  VAL260     -0.2867
    116  CB         4.9190  -27.9910   -4.8890 C.3   260  VAL260      0.0252
    117  CG1        3.6660  -28.1750   -4.0130 C.3   260  VAL260      0.0019
    118  CG2        5.0950  -26.5440   -5.2680 C.3   260  VAL260      0.0019
@<TRIPOS>BOND
     1    35    34    2
     2    34    33    1
     3    33    36    1
     4    33    32    1
     5    36    37    1
     6    38    37   ar
     7    38    40   ar
     8    37    39   ar
     9    72    73    1
    10    40    42   ar
    11    75    74    2
    12    25    24    2
    13    79    81   ar
    14    79    77   ar
    15    81    82   ar
    16    74    73    1
    17    39    41   ar
    18    73    76    1
    19    42    41   ar
    20    42    43    1
    21   106   107    1
    22   106   103    1
    23   102   103    1
    24    76    77    1
    25    77    78   ar
    26    24    23    1
    27   109   107   ar
    28   109   111   ar
    29   107   108   ar
    30    82    83    1
    31    82    80   ar
    32    95    94    1
    33   103   104    1
    34    94    93    1
    35    26    23    1
    36    26    27    1
    37   104   105    2
    38    23    22    1
    39    78    80   ar
    40   111   110   ar
    41   108   110   ar
    42    27    28   ar
    43    27    29   ar
    44    28    30   ar
    45    93    92    1
    46    14    13    2
    47    92    89    1
    48    29    31   ar
    49    30    31   ar
    50    91    90    2
    51    13    12    1
    52    89    90    1
    53    89    88    1
    54    90    96   am
    55   118   116    1
    56    11    12    1
    57   112   113    1
    58   116   113    1
    59   116   117    1
    60    12    15    1
    61    10     9    1
    62    88    86   am
    63    87    86    2
    64   113   114    1
    65    86    85    1
    66    15    16    1
    67    96    97    1
    68     9     6    1
    69    16    17    1
    70    97   100    1
    71    97    98    1
    72   114   115    2
    73   100   101    1
    74    17    18    1
    75    85    84    1
    76     6     7    1
    77     6     5    1
    78    98    99    2
    79     7     8    2
    80    18    19    2
    81     5     3   am
    82    55    54    2
    83    71    70    1
    84    56    57    1
    85    56    53    1
    86    19    20    1
    87    19    21    1
    88     3     4    2
    89     3     2    1
    90    54    53    1
    91    57    58    1
    92    57    59    1
    93    68    70   ar
    94    68    66   ar
    95    70    69   ar
    96    53    52    1
    97     2     1    1
    98    52    46   am
    99    48    45    1
   100    48    49    1
   101    66    65   ar
   102    69    67   ar
   103    45    46    1
   104    45    44    1
   105    46    47    2
   106    49    50    2
   107    49    51   am
   108    63    62    2
   109    62    61    1
   110    65    67   ar
   111    65    64    1
   112    61    64    1
   113    61    60    1
