@<TRIPOS>MOLECULE
tmp/5ko7B01.pdb
 127 120 0 0 0
SMALL
GASTEIGER

@<TRIPOS>ATOM
      1  N         23.5800   25.3290   25.4440 N.3    30  ARG30      -0.1231
      2  CA        24.8200   25.0710   24.7200 C.3    30  ARG30       0.1694
      3  C         25.1160   26.2020   23.7490 C.2    30  ARG30       0.2592
      4  O         24.2360   26.6410   23.0100 O.2    30  ARG30      -0.2718
      5  CB        24.7450   23.7490   23.9550 C.3    30  ARG30       0.0321
      6  CG        26.0500   23.3570   23.2620 C.3    30  ARG30       0.0489
      7  CD        25.8040   22.5960   21.9700 C.3    30  ARG30       0.2205
      8  NE        25.1210   23.4110   20.9670 N.pl3  30  ARG30      -0.0865
      9  CZ        25.7230   24.2910   20.1700 C.cat  30  ARG30       0.5346
     10  NH1       27.0320   24.4890   20.2500 N.pl3  30  ARG30       0.1354
     11  NH2       25.0110   24.9820   19.2900 N.pl3  30  ARG30       0.1354
     12  N         26.3640   26.6570   23.7490 N.am   31  ARG31      -0.1966
     13  CA        26.8030   27.6850   22.8180 C.3    31  ARG31       0.1729
     14  C         28.2060   27.3900   22.3110 C.2    31  ARG31       0.2616
     15  O         29.0270   26.8040   23.0180 O.2    31  ARG31      -0.2715
     16  CB        26.7670   29.0640   23.4820 C.3    31  ARG31       0.0348
     17  CG        25.3750   29.5430   23.8650 C.3    31  ARG31       0.0492
     18  CD        24.4880   29.7410   22.6450 C.3    31  ARG31       0.2205
     19  NE        25.0600   30.6850   21.6900 N.pl3  31  ARG31      -0.0865
     20  CZ        24.8470   31.9970   21.7080 C.cat  31  ARG31       0.5346
     21  NH1       24.0720   32.5430   22.6360 N.pl3  31  ARG31       0.1354
     22  NH2       25.4130   32.7680   20.7910 N.pl3  31  ARG31       0.1354
     23  N         28.4630   27.7890   21.0710 N.am   32  THR32      -0.1951
     24  CA        29.8010   27.7270   20.5060 C.3    32  THR32       0.1897
     25  C         30.6940   28.7460   21.2130 C.2    32  THR32       0.2313
     26  O         30.4400   29.9500   21.1550 O.2    32  THR32      -0.2863
     27  CB        29.7820   28.0000   18.9860 C.3    32  THR32       0.1794
     28  OG1       29.0790   26.9460   18.3180 O.3    32  THR32      -0.2208
     29  CG2       31.1940   28.0850   18.4240 C.3    32  THR32       0.0378
     30  N         34.4950   30.3590   21.6350 N.3    34  ARG34      -0.1245
     31  CA        35.7210   30.5690   20.8720 C.3    34  ARG34       0.1563
     32  C         36.8670   31.0580   21.7580 C.2    34  ARG34       0.2260
     33  O         37.9750   31.2940   21.2750 O.2    34  ARG34      -0.2867
     34  CB        35.4620   31.5600   19.7370 C.3    34  ARG34       0.0307
     35  CG        34.3550   31.1030   18.7970 C.3    34  ARG34       0.0489
     36  CD        34.1540   32.0470   17.6250 C.3    34  ARG34       0.2205
     37  NE        33.2050   31.5030   16.6570 N.pl3  34  ARG34      -0.0865
     38  CZ        31.8820   31.5990   16.7600 C.cat  34  ARG34       0.5346
     39  NH1       31.3290   32.2250   17.7920 N.pl3  34  ARG34       0.1354
     40  NH2       31.1050   31.0650   15.8270 N.pl3  34  ARG34       0.1354
     41  N         42.6420   30.7780    6.0450 N.3    87  GLU87      -0.1245
     42  CA        41.5830   31.7390    6.3270 C.3    87  GLU87       0.1567
     43  C         42.0530   33.1660    6.0500 C.2    87  GLU87       0.2260
     44  O         41.2460   34.0940    5.9950 O.2    87  GLU87      -0.2867
     45  CB        41.1170   31.6070    7.7790 C.3    87  GLU87       0.0388
     46  CG        39.7410   32.2010    8.0410 C.3    87  GLU87       0.1160
     47  CD        39.1960   31.8370    9.4090 C.2    87  GLU87       0.3649
     48  OE1       38.5640   30.7660    9.5340 O.co2  87  GLU87      -0.2457
     49  OE2       39.4000   32.6210   10.3600 O.co2  87  GLU87      -0.2457
     50  N         42.4180   29.6900   19.7060 N.3    94  PHE94      -0.1241
     51  CA        41.7590   28.5560   20.3590 C.3    94  PHE94       0.1605
     52  C         42.3400   27.1910   19.9760 C.2    94  PHE94       0.2264
     53  O         42.2790   26.2500   20.7660 O.2    94  PHE94      -0.2867
     54  CB        40.2560   28.5700   20.0490 C.3    94  PHE94       0.0534
     55  CG        39.9330   28.7650   18.5940 C.ar   94  PHE94      -0.0203
     56  CD1       40.0010   27.7070   17.7050 C.ar   94  PHE94      -0.0042
     57  CD2       39.5520   30.0080   18.1190 C.ar   94  PHE94      -0.0042
     58  CE1       39.6990   27.8880   16.3660 C.ar   94  PHE94      -0.0003
     59  CE2       39.2520   30.1940   16.7830 C.ar   94  PHE94      -0.0003
     60  CZ        39.3270   29.1320   15.9060 C.ar   94  PHE94      -0.0000
     61  N         29.0730   16.5260   20.1420 N.3   135  LEU135     -0.1245
     62  CA        28.7800   17.8250   20.7380 C.3   135  LEU135      0.1561
     63  C         27.7890   17.6990   21.8920 C.2   135  LEU135      0.2260
     64  O         27.8130   18.4960   22.8300 O.2   135  LEU135     -0.2867
     65  CB        28.2350   18.7810   19.6750 C.3   135  LEU135      0.0270
     66  CG        29.2290   19.1390   18.5670 C.3   135  LEU135      0.0019
     67  CD1       28.5080   19.7590   17.3820 C.3   135  LEU135      0.0001
     68  CD2       30.3090   20.0770   19.0940 C.3   135  LEU135      0.0001
     69  N         34.1340   24.3280   19.7510 N.3   146  LEU146     -0.1231
     70  CA        34.0210   25.2230   18.6110 C.3   146  LEU146      0.1693
     71  C         33.9850   24.3910   17.3400 C.2   146  LEU146      0.2593
     72  O         35.0210   24.0550   16.7700 O.2   146  LEU146     -0.2718
     73  CB        35.1800   26.2280   18.5790 C.3   146  LEU146      0.0284
     74  CG        35.3490   27.0670   17.3060 C.3   146  LEU146      0.0019
     75  CD1       34.0490   27.7490   16.9150 C.3   146  LEU146      0.0001
     76  CD2       36.4540   28.0970   17.4880 C.3   146  LEU146      0.0001
     77  N         32.7780   24.0370   16.9190 N.am  147  THR147     -0.1939
     78  CA        32.5920   23.3420   15.6560 C.3   147  THR147      0.2028
     79  C         33.2320   24.1960   14.5740 C.2   147  THR147      0.2642
     80  O         32.8560   25.3500   14.4000 O.2   147  THR147     -0.2714
     81  CB        31.1040   23.1010   15.3520 C.3   147  THR147      0.1808
     82  OG1       30.5220   22.3300   16.4100 O.3   147  THR147     -0.2208
     83  CG2       30.9330   22.3620   14.0370 C.3   147  THR147      0.0379
     84  N         34.2140   23.6410   13.8720 N.am  148  HIS148     -0.1959
     85  CA        35.0280   24.4270   12.9520 C.3   148  HIS148      0.1787
     86  C         35.2940   23.6740   11.6530 C.2   148  HIS148      0.2620
     87  O         35.3350   22.4440   11.6320 O.2   148  HIS148     -0.2715
     88  CB        36.3520   24.8090   13.6280 C.3   148  HIS148      0.0785
     89  CG        37.1220   25.8680   12.9030 C.ar  148  HIS148      0.0821
     90  ND1       37.7610   25.6340   11.7060 N.ar  148  HIS148     -0.2267
     91  CD2       37.3650   27.1650   13.2130 C.ar  148  HIS148      0.1154
     92  CE1       38.3580   26.7410   11.3030 C.ar  148  HIS148      0.1986
     93  NE2       38.1350   27.6850   12.2000 N.ar  148  HIS148     -0.2212
     94  N         35.4610   24.4270   10.5700 N.am  149  THR149     -0.1951
     95  CA        35.7730   23.8510    9.2680 C.3   149  THR149      0.1897
     96  C         37.0580   23.0240    9.3350 C.2   149  THR149      0.2313
     97  O         38.0050   23.3980   10.0270 O.2   149  THR149     -0.2863
     98  CB        35.9330   24.9450    8.1920 C.3   149  THR149      0.1794
     99  OG1       37.0340   25.7970    8.5310 O.3   149  THR149     -0.2208
    100  CG2       34.6680   25.7810    8.0840 C.3   149  THR149      0.0378
    101  N         35.3540   17.4140   10.2130 N.3   170  LEU170     -0.1245
    102  CA        35.2590   18.5710   11.0960 C.3   170  LEU170      0.1561
    103  C         36.4350   18.6620   12.0590 C.2   170  LEU170      0.2260
    104  O         37.0140   17.6490   12.4570 O.2   170  LEU170     -0.2867
    105  CB        33.9590   18.5360   11.9010 C.3   170  LEU170      0.0270
    106  CG        32.6750   18.9960   11.2090 C.3   170  LEU170      0.0019
    107  CD1       31.5290   18.9780   12.2020 C.3   170  LEU170      0.0001
    108  CD2       32.8200   20.3820   10.6090 C.3   170  LEU170      0.0001
    109  N         23.1820   35.7270   20.0810 N.3   186  LEU186     -0.1245
    110  CA        22.3740   35.1830   18.9980 C.3   186  LEU186      0.1561
    111  C         21.0150   34.7500   19.5210 C.2   186  LEU186      0.2260
    112  O         20.8500   34.5040   20.7170 O.2   186  LEU186     -0.2867
    113  CB        23.0820   33.9970   18.3380 C.3   186  LEU186      0.0270
    114  CG        24.4670   34.2920   17.7580 C.3   186  LEU186      0.0019
    115  CD1       25.1840   33.0030   17.3680 C.3   186  LEU186      0.0001
    116  CD2       24.3720   35.2330   16.5660 C.3   186  LEU186      0.0001
    117  N         17.9510   31.9330   18.4460 N.3   188  ARG188     -0.1245
    118  CA        17.6110   30.8080   17.5880 C.3   188  ARG188      0.1563
    119  C         16.2180   30.9750   16.9940 C.2   188  ARG188      0.2260
    120  O         15.3540   31.6220   17.5860 O.2   188  ARG188     -0.2867
    121  CB        17.6990   29.4970   18.3720 C.3   188  ARG188      0.0307
    122  CG        19.0630   29.2520   18.9930 C.3   188  ARG188      0.0489
    123  CD        19.2770   27.7910   19.3320 C.3   188  ARG188      0.2205
    124  NE        20.6920   27.5020   19.5690 N.pl3 188  ARG188     -0.0865
    125  CZ        21.2450   27.3160   20.7660 C.cat 188  ARG188      0.5346
    126  NH1       20.5150   27.3700   21.8750 N.pl3 188  ARG188      0.1354
    127  NH2       22.5410   27.0630   20.8530 N.pl3 188  ARG188      0.1354
@<TRIPOS>BOND
     1    44    43    2
     2    41    42    1
     3    43    42    1
     4    42    45    1
     5    45    46    1
     6    46    47    1
     7   100    98    1
     8    98    99    1
     9    98    95    1
    10    95    96    1
    11    95    94    1
    12    96    97    2
    13    47    48   ar
    14    47    49   ar
    15   101   102    1
    16    94    86   am
    17   108   106    1
    18   102   105    1
    19   102   103    1
    20   106   105    1
    21   106   107    1
    22    92    90   ar
    23    92    93   ar
    24    87    86    2
    25    86    85    1
    26    90    89   ar
    27   103   104    2
    28    93    91   ar
    29    89    91   ar
    30    89    88    1
    31    85    88    1
    32    85    84    1
    33    84    79   am
    34    83    81    1
    35    80    79    2
    36    79    78    1
    37    81    78    1
    38    81    82    1
    39    78    77    1
    40    40    38    1
    41    60    58   ar
    42    60    59   ar
    43    58    56   ar
    44   116   114    1
    45    37    38    2
    46    37    36    1
    47    38    39    1
    48    72    71    2
    49    59    57   ar
    50    75    74    1
    51    77    71   am
    52   119   120    2
    53   119   118    1
    54    74    76    1
    55    74    73    1
    56    71    70    1
    57   115   114    1
    58    67    66    1
    59   118   121    1
    60   118   117    1
    61    36    35    1
    62    56    55   ar
    63   114   113    1
    64    57    55   ar
    65    28    27    1
    66   113   110    1
    67   121   122    1
    68    29    27    1
    69    66    68    1
    70    66    65    1
    71    73    70    1
    72    55    54    1
    73    70    69    1
    74    35    34    1
    75    27    24    1
    76   122   123    1
    77   110   111    1
    78   110   109    1
    79    11     9    1
    80   123   124    1
    81   111   112    2
    82   124   125    2
    83    65    62    1
    84    50    51    1
    85    34    31    1
    86    52    51    1
    87    52    53    2
    88    54    51    1
    89    61    62    1
    90     9    10    1
    91     9     8    2
    92    24    23    1
    93    24    25    1
    94    62    63    1
    95   125   127    1
    96   125   126    1
    97    22    20    1
    98    31    30    1
    99    31    32    1
   100     8     7    1
   101    23    14   am
   102    26    25    2
   103    33    32    2
   104    19    20    2
   105    19    18    1
   106    20    21    1
   107    63    64    2
   108     7     6    1
   109    14    13    1
   110    14    15    2
   111    18    17    1
   112    13    16    1
   113    13    12    1
   114     4     3    2
   115     6     5    1
   116    16    17    1
   117    12     3   am
   118     3     2    1
   119     5     2    1
   120     2     1    1
