@<TRIPOS>MOLECULE
tmp/5ko7A01.pdb
 79 78 0 0 0
SMALL
GASTEIGER

@<TRIPOS>ATOM
      1  N         18.8060   23.4540   18.2140 N.3    55  THR55      -0.1203
      2  CA        19.8110   24.1420   19.0220 C.3    55  THR55       0.1994
      3  C         21.2290   23.8150   18.5650 C.2    55  THR55       0.2618
      4  O         22.2000   24.3510   19.1030 O.2    55  THR55      -0.2717
      5  CB        19.6900   23.7820   20.5160 C.3    55  THR55       0.1784
      6  OG1       19.9440   22.3840   20.6970 O.3    55  THR55      -0.2211
      7  CG2       18.3060   24.1260   21.0420 C.3    55  THR55       0.0376
      8  N         21.3460   22.9340   17.5780 N.am   56  ALA56      -0.1966
      9  CA        22.6480   22.5200   17.0730 C.3    56  ALA56       0.1713
     10  C         23.3960   23.6970   16.4630 C.2    56  ALA56       0.2458
     11  O         22.7820   24.6810   16.0500 O.2    56  ALA56      -0.2730
     12  CB        22.4850   21.4060   16.0470 C.3    56  ALA56       0.0333
     13  N         24.7340   23.6080   16.4100 N.am   57  PRO57      -0.2716
     14  CA        25.4700   24.6600   15.7110 C.3    57  PRO57       0.1536
     15  C         25.1530   24.6220   14.2180 C.2    57  PRO57       0.2599
     16  O         24.7000   23.5880   13.7230 O.2    57  PRO57      -0.2715
     17  CB        26.9340   24.3100   16.0000 C.3    57  PRO57       0.0310
     18  CG        26.9290   22.8380   16.1930 C.3    57  PRO57       0.0237
     19  CD        25.6340   22.5480   16.9020 C.3    57  PRO57       0.0939
     20  N         25.3800   25.7280   13.5170 N.am   58  SER58      -0.1936
     21  CA        25.0970   25.8110   12.0870 C.3    58  SER58       0.2055
     22  C         26.0330   26.8040   11.4160 C.2    58  SER58       0.2644
     23  O         26.3900   27.8190   12.0080 O.2    58  SER58      -0.2714
     24  CB        23.6440   26.2250   11.8540 C.3    58  SER58       0.2130
     25  OG        23.3500   27.4210   12.5590 O.3    58  SER58      -0.2179
     26  N         26.4210   26.5160   10.1780 N.am   59  GLY59      -0.1939
     27  CA        27.3010   27.3980    9.4360 C.3    59  GLY59       0.2014
     28  C         26.7320   28.8010    9.3480 C.2    59  GLY59       0.2639
     29  O         25.7020   29.0200    8.7110 O.2    59  GLY59      -0.2714
     30  N         27.4000   29.7430   10.0090 N.am   60  ALA60      -0.1963
     31  CA        26.9780   31.1420   10.0330 C.3    60  ALA60       0.1728
     32  C         25.5810   31.3150   10.6370 C.2    60  ALA60       0.2616
     33  O         24.8480   32.2310   10.2690 O.2    60  ALA60      -0.2715
     34  CB        27.0240   31.7350    8.6220 C.3    60  ALA60       0.0334
     35  N         25.2230   30.4310   11.5660 N.am   61  HIS61      -0.1973
     36  CA        23.9580   30.5310   12.2960 C.3    61  HIS61       0.1656
     37  C         22.7470   30.5820   11.3540 C.2    61  HIS61       0.2291
     38  O         21.6910   31.1110   11.7020 O.2    61  HIS61      -0.2864
     39  CB        23.9780   31.7600   13.2100 C.3    61  HIS61       0.0771
     40  CG        22.8510   31.7990   14.1980 C.ar   61  HIS61       0.0820
     41  ND1       22.4510   30.6930   14.9140 N.ar   61  HIS61      -0.2267
     42  CD2       22.0370   32.8120   14.5810 C.ar   61  HIS61       0.1154
     43  CE1       21.4390   31.0210   15.6990 C.ar   61  HIS61       0.1986
     44  NE2       21.1690   32.3010   15.5170 N.ar   61  HIS61      -0.2212
     45  N         28.2290   25.0860    4.6740 N.3   124  TYR124     -0.1241
     46  CA        28.4200   23.8020    5.3420 C.3   124  TYR124      0.1605
     47  C         27.0870   23.2420    5.8210 C.2   124  TYR124      0.2264
     48  O         26.8980   22.9750    7.0080 O.2   124  TYR124     -0.2867
     49  CB        29.3920   23.9470    6.5120 C.3   124  TYR124      0.0534
     50  CG        30.8060   24.2270    6.0700 C.ar  124  TYR124     -0.0201
     51  CD1       31.2650   25.5280    5.9000 C.ar  124  TYR124     -0.0009
     52  CD2       31.6800   23.1830    5.8080 C.ar  124  TYR124     -0.0009
     53  CE1       32.5620   25.7760    5.4850 C.ar  124  TYR124      0.0417
     54  CE2       32.9700   23.4200    5.3960 C.ar  124  TYR124      0.0417
     55  CZ        33.4080   24.7130    5.2350 C.ar  124  TYR124      0.1957
     56  OH        34.6980   24.9320    4.8210 O.3   124  TYR124     -0.2866
     57  N         26.9330   19.2240    6.8220 N.3   127  GLU127     -0.1231
     58  CA        27.5010   19.0490    8.1530 C.3   127  GLU127      0.1699
     59  C         26.5350   19.5380    9.2290 C.2   127  GLU127      0.2592
     60  O         26.2590   18.8290   10.1960 O.2   127  GLU127     -0.2718
     61  CB        28.8330   19.7970    8.2790 C.3   127  GLU127      0.0402
     62  CG        29.9500   19.2640    7.3870 C.3   127  GLU127      0.1161
     63  CD        29.8330   19.7020    5.9350 C.2   127  GLU127      0.3649
     64  OE1       29.0000   20.5820    5.6310 O.co2 127  GLU127     -0.2457
     65  OE2       30.5810   19.1560    5.0950 O.co2 127  GLU127     -0.2457
     66  N         26.0280   20.7550    9.0490 N.am  128  SER128     -0.1952
     67  CA        25.1620   21.3900   10.0380 C.3   128  SER128      0.1924
     68  C         23.8970   20.5770   10.2870 C.2   128  SER128      0.2314
     69  O         23.5140   20.3430   11.4330 O.2   128  SER128     -0.2863
     70  CB        24.7840   22.8030    9.5840 C.3   128  SER128      0.2116
     71  OG        25.9360   23.5990    9.3520 O.3   128  SER128     -0.2180
     72  N         24.5740   17.2550   12.0520 N.3   131  ILE131     -0.1245
     73  CA        24.7610   17.4750   13.4810 C.3   131  ILE131      0.1561
     74  C         23.4120   17.6320   14.1710 C.2   131  ILE131      0.2260
     75  O         23.2050   17.1130   15.2680 O.2   131  ILE131     -0.2867
     76  CB        25.6460   18.7200   13.7380 C.3   131  ILE131      0.0252
     77  CG1       27.0900   18.4210   13.3390 C.3   131  ILE131      0.0019
     78  CG2       25.6120   19.1410   15.2060 C.3   131  ILE131      0.0019
     79  CD1       27.9870   19.6450   13.2800 C.3   131  ILE131      0.0001
@<TRIPOS>BOND
     1    45    46    1
     2    56    55    1
     3    65    63   ar
     4    55    54   ar
     5    55    53   ar
     6    46    47    1
     7    46    49    1
     8    54    52   ar
     9    53    51   ar
    10    64    63   ar
    11    52    50   ar
    12    47    48    2
    13    51    50   ar
    14    63    62    1
    15    50    49    1
    16    57    58    1
    17    62    61    1
    18    58    61    1
    19    58    59    1
    20    34    31    1
    21    29    28    2
    22    66    59   am
    23    66    67    1
    24    59    60    2
    25    28    27    1
    26    28    30   am
    27    71    70    1
    28    27    26    1
    29    70    67    1
    30    30    31    1
    31    31    32    1
    32    67    68    1
    33    26    22   am
    34    33    32    2
    35    68    69    2
    36    32    35   am
    37    37    38    2
    38    37    36    1
    39    22    23    2
    40    22    21    1
    41    35    36    1
    42    24    21    1
    43    24    25    1
    44    72    73    1
    45    21    20    1
    46    36    39    1
    47    39    40    1
    48    79    77    1
    49    77    76    1
    50    73    76    1
    51    73    74    1
    52    20    15   am
    53    16    15    2
    54    76    78    1
    55    74    75    2
    56    40    42   ar
    57    40    41   ar
    58    15    14    1
    59    42    44   ar
    60    41    43   ar
    61    44    43   ar
    62    14    17    1
    63    14    13    1
    64    17    18    1
    65    12     9    1
    66    11    10    2
    67    18    19    1
    68    13    10   am
    69    13    19    1
    70    10     9    1
    71     9     8    1
    72     8     3   am
    73     1     2    1
    74     3     2    1
    75     3     4    2
    76     2     5    1
    77     5     6    1
    78     5     7    1
