@<TRIPOS>MOLECULE
tmp/5ko7B00.pdb
 79 78 0 0 0
SMALL
GASTEIGER

@<TRIPOS>ATOM
      1  N         28.6310    5.6950   19.0930 N.3    55  THR55      -0.1203
      2  CA        27.3920    4.9340   19.2180 C.3    55  THR55       0.1994
      3  C         26.3460    5.3900   18.2070 C.2    55  THR55       0.2618
      4  O         25.2610    4.8160   18.1330 O.2    55  THR55      -0.2717
      5  CB        26.7720    5.0490   20.6270 C.3    55  THR55       0.1784
      6  OG1       26.3670    6.4020   20.8710 O.3    55  THR55      -0.2211
      7  CG2       27.7550    4.6040   21.6920 C.3    55  THR55       0.0376
      8  N         26.6680    6.4240   17.4360 N.am   56  ALA56      -0.1966
      9  CA        25.7380    6.9490   16.4460 C.3    56  ALA56       0.1713
     10  C         25.3610    5.8800   15.4290 C.2    56  ALA56       0.2458
     11  O         26.1380    4.9620   15.1710 O.2    56  ALA56      -0.2730
     12  CB        26.3360    8.1430   15.7430 C.3    56  ALA56       0.0333
     13  N         24.1570    5.9910   14.8480 N.am   57  PRO57      -0.2716
     14  CA        23.8200    5.0720   13.7630 C.3    57  PRO57       0.1536
     15  C         24.6780    5.3550   12.5340 C.2    57  PRO57       0.2599
     16  O         25.1960    6.4620   12.3920 O.2    57  PRO57      -0.2715
     17  CB        22.3420    5.3680   13.5030 C.3    57  PRO57       0.0310
     18  CG        22.1810    6.7930   13.8960 C.3    57  PRO57       0.0237
     19  CD        23.0880    6.9790   15.0810 C.3    57  PRO57       0.0939
     20  N         24.8310    4.3620   11.6650 N.am   58  SER58      -0.1936
     21  CA        25.5920    4.5330   10.4340 C.3    58  SER58       0.2055
     22  C         25.0440    3.6320    9.3440 C.2    58  SER58       0.2644
     23  O         24.5240    2.5540    9.6250 O.2    58  SER58      -0.2714
     24  CB        27.0740    4.2310   10.6640 C.3    58  SER58       0.2130
     25  OG        27.2470    2.9830   11.3110 O.3    58  SER58      -0.2179
     26  N         25.1640    4.0780    8.0990 N.am   59  GLY59      -0.1939
     27  CA        24.7490    3.2760    6.9670 C.3    59  GLY59       0.2014
     28  C         25.4200    1.9160    6.9990 C.2    59  GLY59       0.2639
     29  O         26.6470    1.8230    6.9690 O.2    59  GLY59      -0.2714
     30  N         24.6050    0.8680    7.0890 N.am   60  ALA60      -0.1963
     31  CA        25.0860   -0.5140    7.0700 C.3    60  ALA60       0.1728
     32  C         26.0090   -0.8450    8.2490 C.2    60  ALA60       0.2616
     33  O         26.7950   -1.7910    8.1780 O.2    60  ALA60      -0.2715
     34  CB        25.7960   -0.7970    5.7470 C.3    60  ALA60       0.0334
     35  N         25.9000   -0.0770    9.3310 N.am   61  HIS61      -0.1973
     36  CA        26.6990   -0.3030   10.5380 C.3    61  HIS61       0.1656
     37  C         28.2010   -0.2660   10.2450 C.2    61  HIS61       0.2291
     38  O         28.9980   -0.8980   10.9370 O.2    61  HIS61      -0.2864
     39  CB        26.3230   -1.6410   11.1860 C.3    61  HIS61       0.0771
     40  CG        26.8800   -1.8240   12.5640 C.ar   61  HIS61       0.0820
     41  ND1       26.7240   -0.8850   13.5610 N.ar   61  HIS61      -0.2267
     42  CD2       27.6040   -2.8310   13.1080 C.ar   61  HIS61       0.1154
     43  CE1       27.3200   -1.3090   14.6610 C.ar   61  HIS61       0.1986
     44  NE2       27.8620   -2.4880   14.4130 N.ar   61  HIS61      -0.2212
     45  N         26.0560    6.4030    2.8390 N.3   122  TYR122     -0.1241
     46  CA        25.6030    7.6340    3.4850 C.3   122  TYR122      0.1605
     47  C         26.5800    8.0880    4.5600 C.2   122  TYR122      0.2264
     48  O         26.2280    8.2150    5.7330 O.2   122  TYR122     -0.2867
     49  CB        24.2080    7.4330    4.0720 C.3   122  TYR122      0.0534
     50  CG        23.1650    7.1970    3.0080 C.ar  122  TYR122     -0.0201
     51  CD1       22.9490    5.9280    2.4880 C.ar  122  TYR122     -0.0009
     52  CD2       22.4130    8.2500    2.5060 C.ar  122  TYR122     -0.0009
     53  CE1       22.0050    5.7140    1.5040 C.ar  122  TYR122      0.0417
     54  CE2       21.4670    8.0460    1.5240 C.ar  122  TYR122      0.0417
     55  CZ        21.2660    6.7760    1.0250 C.ar  122  TYR122      0.1957
     56  OH        20.3270    6.5690    0.0420 O.3   122  TYR122     -0.2866
     57  N         26.1240   12.0320    6.2150 N.3   125  GLU125     -0.1231
     58  CA        25.0850   12.1420    7.2350 C.3   125  GLU125      0.1699
     59  C         25.4000   11.2750    8.4490 C.2   125  GLU125      0.2592
     60  O         25.1450   11.6840    9.5810 O.2   125  GLU125     -0.2718
     61  CB        23.7060   11.7700    6.6670 C.3   125  GLU125      0.0402
     62  CG        23.6990   10.6980    5.5860 C.3   125  GLU125      0.1161
     63  CD        23.9100   11.2630    4.1910 C.2   125  GLU125      0.3649
     64  OE1       23.0940   12.1000    3.7540 O.co2 125  GLU125     -0.2457
     65  OE2       24.8980   10.8710    3.5350 O.co2 125  GLU125     -0.2457
     66  N         25.9540   10.0870    8.2170 N.am  126  SER126     -0.1952
     67  CA        26.3450    9.1990    9.3090 C.3   126  SER126      0.1924
     68  C         27.3390    9.8870   10.2420 C.2   126  SER126      0.2314
     69  O         27.1410    9.9260   11.4570 O.2   126  SER126     -0.2863
     70  CB        26.9590    7.9060    8.7640 C.3   126  SER126      0.2116
     71  OG        25.9840    7.0890    8.1380 O.3   126  SER126     -0.2180
     72  N         25.8200   12.9670   12.0020 N.3   129  ILE129     -0.1245
     73  CA        25.0540   12.5290   13.1650 C.3   129  ILE129      0.1561
     74  C         25.9920   12.2390   14.3330 C.2   129  ILE129      0.2260
     75  O         25.7400   12.6590   15.4640 O.2   129  ILE129     -0.2867
     76  CB        24.2110   11.2730   12.8400 C.3   129  ILE129      0.0252
     77  CG1       23.0430   11.6460   11.9260 C.3   129  ILE129      0.0019
     78  CG2       23.6610   10.6280   14.1110 C.3   129  ILE129      0.0019
     79  CD1       22.3290   10.4510   11.3120 C.3   129  ILE129      0.0001
@<TRIPOS>BOND
     1    56    55    1
     2    55    53   ar
     3    55    54   ar
     4    53    51   ar
     5    54    52   ar
     6    51    50   ar
     7    52    50   ar
     8    45    46    1
     9    50    49    1
    10    46    49    1
    11    46    47    1
    12    65    63   ar
    13    64    63   ar
    14    63    62    1
    15    47    48    2
    16    62    61    1
    17    34    31    1
    18    57    58    1
    19    61    58    1
    20    27    28    1
    21    27    26    1
    22    29    28    2
    23    28    30   am
    24    31    30    1
    25    31    32    1
    26    58    59    1
    27    26    22   am
    28    71    70    1
    29    33    32    2
    30    66    59   am
    31    66    67    1
    32    32    35   am
    33    59    60    2
    34    70    67    1
    35    67    68    1
    36    35    36    1
    37    22    23    2
    38    22    21    1
    39    68    69    2
    40    37    36    1
    41    37    38    2
    42    21    24    1
    43    21    20    1
    44    36    39    1
    45    24    25    1
    46    39    40    1
    47    79    77    1
    48    20    15   am
    49    77    76    1
    50    72    73    1
    51    16    15    2
    52    15    14    1
    53    40    42   ar
    54    40    41   ar
    55    76    73    1
    56    76    78    1
    57    42    44   ar
    58    73    74    1
    59    17    14    1
    60    17    18    1
    61    41    43   ar
    62    14    13    1
    63    18    19    1
    64    74    75    2
    65    44    43   ar
    66    13    19    1
    67    13    10   am
    68    11    10    2
    69    10     9    1
    70    12     9    1
    71     9     8    1
    72     8     3   am
    73     4     3    2
    74     3     2    1
    75     1     2    1
    76     2     5    1
    77     5     6    1
    78     5     7    1
