@<TRIPOS>MOLECULE
tmp/5ko8B00.pdb
 153 145 0 0 0
SMALL
GASTEIGER

@<TRIPOS>ATOM
      1  N        -32.1150  -45.7840    4.2840 N.3    29  ARG29      -0.1231
      2  CA       -32.4090  -44.4980    4.9150 C.3    29  ARG29       0.1694
      3  C        -32.2210  -43.3550    3.9280 C.2    29  ARG29       0.2592
      4  O        -31.2070  -43.2800    3.2340 O.2    29  ARG29      -0.2718
      5  CB       -31.5230  -44.2670    6.1450 C.3    29  ARG29       0.0321
      6  CG       -31.8820  -43.0070    6.9530 C.3    29  ARG29       0.0489
      7  CD       -30.6490  -42.3550    7.6030 C.3    29  ARG29       0.2205
      8  NE       -29.6380  -42.0080    6.6090 N.pl3  29  ARG29      -0.0865
      9  CZ       -29.6380  -40.8900    5.8890 C.cat  29  ARG29       0.5346
     10  NH1      -30.5860  -39.9770    6.0610 N.pl3  29  ARG29       0.1354
     11  NH2      -28.6760  -40.6800    4.9990 N.pl3  29  ARG29       0.1354
     12  N        -33.2030  -42.4630    3.8780 N.am   30  ARG30      -0.1966
     13  CA       -33.0970  -41.2600    3.0600 C.3    30  ARG30       0.1729
     14  C        -33.6030  -40.0500    3.8320 C.2    30  ARG30       0.2616
     15  O        -34.5400  -40.1490    4.6240 O.2    30  ARG30      -0.2715
     16  CB       -33.8870  -41.4170    1.7550 C.3    30  ARG30       0.0348
     17  CG       -33.3820  -42.5180    0.8200 C.3    30  ARG30       0.0492
     18  CD       -31.9640  -42.2460    0.3120 C.3    30  ARG30       0.2205
     19  NE       -31.8040  -40.9000   -0.2330 N.pl3  30  ARG30      -0.0865
     20  CZ       -32.0860  -40.5520   -1.4860 C.cat  30  ARG30       0.5346
     21  NH1      -32.5570  -41.4440   -2.3510 N.pl3  30  ARG30       0.1354
     22  NH2      -31.8970  -39.3010   -1.8770 N.pl3  30  ARG30       0.1354
     23  N        -32.9680  -38.9070    3.6070 N.am   31  THR31      -0.1951
     24  CA       -33.4870  -37.6480    4.1120 C.3    31  THR31       0.1897
     25  C        -34.8280  -37.3640    3.4340 C.2    31  THR31       0.2313
     26  O        -34.9290  -37.4300    2.2130 O.2    31  THR31      -0.2863
     27  CB       -32.5070  -36.5050    3.8600 C.3    31  THR31       0.1794
     28  OG1      -31.3190  -36.7300    4.6260 O.3    31  THR31      -0.2208
     29  CG2      -33.1130  -35.1560    4.2600 C.3    31  THR31       0.0378
     30  N        -38.1380  -34.6120    3.1610 N.3    33  ARG33      -0.1245
     31  CA       -38.4660  -33.1990    3.3500 C.3    33  ARG33       0.1563
     32  C        -39.9740  -32.9260    3.3830 C.2    33  ARG33       0.2260
     33  O        -40.4020  -31.8030    3.6600 O.2    33  ARG33      -0.2867
     34  CB       -37.8110  -32.3830    2.2440 C.3    33  ARG33       0.0307
     35  CG       -36.3080  -32.5580    2.2050 C.3    33  ARG33       0.0489
     36  CD       -35.7580  -32.5430    0.7790 C.3    33  ARG33       0.2205
     37  NE       -34.3390  -32.8980    0.7560 N.pl3  33  ARG33      -0.0865
     38  CZ       -33.3910  -32.1290    1.2740 C.cat  33  ARG33       0.5346
     39  NH1      -33.7220  -30.9880    1.8410 N.pl3  33  ARG33       0.1354
     40  NH2      -32.1160  -32.4950    1.2380 N.pl3  33  ARG33       0.1354
     41  N        -33.2870  -17.6740    5.1740 N.3    86  GLU86      -0.1245
     42  CA       -33.0290  -18.4130    3.9470 C.3    86  GLU86       0.1567
     43  C        -33.4450  -17.6250    2.7160 C.2    86  GLU86       0.2260
     44  O        -32.8720  -17.7930    1.6420 O.2    86  GLU86      -0.2867
     45  CB       -33.7520  -19.7520    3.9890 C.3    86  GLU86       0.0388
     46  CG       -33.2100  -20.6690    5.0660 C.3    86  GLU86       0.1160
     47  CD       -31.9870  -21.4480    4.6200 C.2    86  GLU86       0.3649
     48  OE1      -31.3060  -21.0040    3.6690 O.co2  86  GLU86      -0.2457
     49  OE2      -31.7110  -22.5070    5.2260 O.co2  86  GLU86      -0.2457
     50  N        -31.4790  -31.0520   -5.2630 N.3   105  PHE105     -0.1241
     51  CA       -32.3810  -31.3290   -4.1460 C.3   105  PHE105      0.1605
     52  C        -33.7040  -30.5890   -4.2850 C.2   105  PHE105      0.2264
     53  O        -34.7090  -30.9780   -3.6840 O.2   105  PHE105     -0.2867
     54  CB       -31.7020  -30.9580   -2.8270 C.3   105  PHE105      0.0534
     55  CG       -30.2790  -31.4310   -2.7370 C.ar  105  PHE105     -0.0203
     56  CD1      -29.9890  -32.7770   -2.6110 C.ar  105  PHE105     -0.0042
     57  CD2      -29.2320  -30.5310   -2.7970 C.ar  105  PHE105     -0.0042
     58  CE1      -28.6820  -33.2140   -2.5380 C.ar  105  PHE105     -0.0003
     59  CE2      -27.9260  -30.9590   -2.7160 C.ar  105  PHE105     -0.0003
     60  CZ       -27.6510  -32.3050   -2.5890 C.ar  105  PHE105     -0.0000
     61  N        -34.5950  -27.2930   -3.4650 N.3   107  THR107     -0.1218
     62  CA       -34.9190  -26.6800   -2.1850 C.3   107  THR107      0.1862
     63  C        -35.1520  -25.1800   -2.3330 C.2   107  THR107      0.2287
     64  O        -34.3180  -24.4610   -2.8850 O.2   107  THR107     -0.2866
     65  CB       -33.7950  -26.9310   -1.1520 C.3   107  THR107      0.1770
     66  OG1      -32.5540  -26.4220   -1.6510 O.3   107  THR107     -0.2211
     67  CG2      -33.6440  -28.4210   -0.8760 C.3   107  THR107      0.0375
     68  N        -40.1400  -23.6760    4.1820 N.3   111  LYS111     -0.1245
     69  CA       -39.8580  -24.7580    5.1260 C.3   111  LYS111      0.1561
     70  C        -41.1300  -25.2070    5.8330 C.2   111  LYS111      0.2260
     71  O        -41.2230  -25.1290    7.0600 O.2   111  LYS111     -0.2867
     72  CB       -38.8360  -24.3150    6.1770 C.3   111  LYS111      0.0271
     73  CG       -37.6970  -23.4650    5.6630 C.3   111  LYS111      0.0035
     74  CD       -36.4910  -24.2830    5.3420 C.3   111  LYS111      0.0206
     75  CE       -35.3030  -23.3640    5.1650 C.3   111  LYS111      0.1093
     76  NZ       -34.0940  -24.0220    4.6130 N.3   111  LYS111     -0.1314
     77  N        -42.1960  -28.0800    6.4450 N.3   113  PHE113     -0.1241
     78  CA       -41.9280  -29.2370    7.2940 C.3   113  PHE113      0.1605
     79  C        -41.6120  -28.8860    8.7530 C.2   113  PHE113      0.2264
     80  O        -41.7910  -29.7150    9.6410 O.2   113  PHE113     -0.2867
     81  CB       -40.7740  -30.0560    6.7080 C.3   113  PHE113      0.0534
     82  CG       -39.5400  -29.2510    6.4170 C.ar  113  PHE113     -0.0203
     83  CD1      -38.6600  -28.9220    7.4300 C.ar  113  PHE113     -0.0042
     84  CD2      -39.2550  -28.8360    5.1260 C.ar  113  PHE113     -0.0042
     85  CE1      -37.5210  -28.1840    7.1650 C.ar  113  PHE113     -0.0003
     86  CE2      -38.1170  -28.1000    4.8530 C.ar  113  PHE113     -0.0003
     87  CZ       -37.2490  -27.7750    5.8740 C.ar  113  PHE113     -0.0000
     88  N        -35.1870  -34.9900    8.7370 N.3   165  LEU165     -0.1231
     89  CA       -34.4100  -34.0960    7.9050 C.3   165  LEU165      0.1693
     90  C        -33.3420  -33.4420    8.7730 C.2   165  LEU165      0.2593
     91  O        -33.6470  -32.7760    9.7560 O.2   165  LEU165     -0.2718
     92  CB       -35.3210  -33.0570    7.2450 C.3   165  LEU165      0.0284
     93  CG       -34.7130  -31.7690    6.6990 C.3   165  LEU165      0.0019
     94  CD1      -33.6600  -32.0650    5.6500 C.3   165  LEU165      0.0001
     95  CD2      -35.8200  -30.8990    6.1200 C.3   165  LEU165      0.0001
     96  N        -32.0840  -33.6760    8.4260 N.am  166  THR166     -0.1939
     97  CA       -30.9760  -33.0080    9.0890 C.3   166  THR166      0.2028
     98  C        -30.8740  -31.6160    8.5080 C.2   166  THR166      0.2642
     99  O        -30.6150  -31.4590    7.3260 O.2   166  THR166     -0.2714
    100  CB       -29.6510  -33.7750    8.9040 C.3   166  THR166      0.1808
    101  OG1      -29.7860  -35.0890    9.4640 O.3   166  THR166     -0.2208
    102  CG2      -28.5130  -33.0500    9.5880 C.3   166  THR166      0.0379
    103  N        -31.0950  -30.6080    9.3380 N.am  167  HIS167     -0.1959
    104  CA       -31.2130  -29.2380    8.8580 C.3   167  HIS167      0.1787
    105  C        -30.2590  -28.3210    9.6160 C.2   167  HIS167      0.2620
    106  O        -29.9870  -28.5380   10.8000 O.2   167  HIS167     -0.2715
    107  CB       -32.6600  -28.7630    9.0080 C.3   167  HIS167      0.0785
    108  CG       -32.9580  -27.4850    8.2960 C.ar  167  HIS167      0.0821
    109  ND1      -32.4800  -26.2650    8.7200 N.ar  167  HIS167     -0.2267
    110  CD2      -33.7060  -27.2310    7.1940 C.ar  167  HIS167      0.1154
    111  CE1      -32.9090  -25.3160    7.9090 C.ar  167  HIS167      0.1986
    112  NE2      -33.6600  -25.8790    6.9750 N.ar  167  HIS167     -0.2212
    113  N        -29.7470  -27.3050    8.9220 N.am  168  THR168     -0.1951
    114  CA       -28.8260  -26.3540    9.5380 C.3   168  THR168      0.1897
    115  C        -29.5290  -25.5640   10.6320 C.2   168  THR168      0.2313
    116  O        -30.7000  -25.2010   10.4920 O.2   168  THR168     -0.2863
    117  CB       -28.2440  -25.3630    8.5210 C.3   168  THR168      0.1794
    118  OG1      -29.3030  -24.5810    7.9500 O.3   168  THR168     -0.2208
    119  CG2      -27.4810  -26.1070    7.4230 C.3   168  THR168      0.0378
    120  N        -27.7040  -28.7110   15.4790 N.3   189  LEU189     -0.1245
    121  CA       -28.5440  -29.1120   14.3520 C.3   189  LEU189      0.1561
    122  C        -30.0220  -29.0210   14.6780 C.2   189  LEU189      0.2260
    123  O        -30.4180  -29.0570   15.8380 O.2   189  LEU189     -0.2867
    124  CB       -28.2430  -30.5450   13.9190 C.3   189  LEU189      0.0270
    125  CG       -26.9210  -30.8370   13.2210 C.3   189  LEU189      0.0019
    126  CD1      -26.8530  -32.3210   12.9540 C.3   189  LEU189      0.0001
    127  CD2      -26.7760  -30.0560   11.9280 C.3   189  LEU189      0.0001
    128  N        -34.8330  -36.9000   -3.9220 N.3   203  PRO203     -0.2116
    129  CA       -33.9870  -36.8020   -5.1160 C.3   203  PRO203      0.1372
    130  C        -33.2830  -38.1140   -5.4270 C.2   203  PRO203      0.2244
    131  O        -33.0380  -38.8960   -4.5100 O.2   203  PRO203     -0.2868
    132  CB       -32.9750  -35.7070   -4.7520 C.3   203  PRO203      0.0268
    133  CG       -33.0370  -35.5840   -3.2680 C.3   203  PRO203      0.0207
    134  CD       -34.4330  -35.9380   -2.8820 C.3   203  PRO203      0.0892
    135  N        -30.3040  -39.5130   -5.8190 N.3   205  LEU205     -0.1245
    136  CA       -28.8810  -39.3350   -5.5700 C.3   205  LEU205      0.1561
    137  C        -28.1520  -40.6650   -5.6330 C.2   205  LEU205      0.2260
    138  O        -28.7580  -41.7220   -5.4720 O.2   205  LEU205     -0.2867
    139  CB       -28.6550  -38.6860   -4.2060 C.3   205  LEU205      0.0270
    140  CG       -29.4310  -37.3960   -3.9570 C.3   205  LEU205      0.0019
    141  CD1      -29.2360  -36.9400   -2.5200 C.3   205  LEU205      0.0001
    142  CD2      -28.9960  -36.3210   -4.9400 C.3   205  LEU205      0.0001
    143  N        -24.9490  -42.5440   -3.8060 N.3   207  ARG207     -0.1245
    144  CA       -23.9290  -42.5470   -2.7660 C.3   207  ARG207      0.1563
    145  C        -22.6150  -43.0780   -3.3100 C.2   207  ARG207      0.2260
    146  O        -22.5960  -43.9310   -4.1980 O.2   207  ARG207     -0.2867
    147  CB       -24.3830  -43.3820   -1.5730 C.3   207  ARG207      0.0307
    148  CG       -25.4270  -42.6850   -0.7380 C.3   207  ARG207      0.0489
    149  CD       -25.8680  -43.5140    0.4450 C.3   207  ARG207      0.2205
    150  NE       -26.8490  -42.7660    1.2250 N.pl3 207  ARG207     -0.0865
    151  CZ       -27.9820  -43.2590    1.7160 C.cat 207  ARG207      0.5346
    152  NH1      -28.3110  -44.5380    1.5480 N.pl3 207  ARG207      0.1354
    153  NH2      -28.7930  -42.4570    2.3930 N.pl3 207  ARG207      0.1354
@<TRIPOS>BOND
     1   135   136    1
     2   137   136    1
     3   137   138    2
     4   136   139    1
     5   130   129    1
     6   130   131    2
     7    50    51    1
     8   129   132    1
     9   129   128    1
    10   142   140    1
    11   132   133    1
    12    52    51    1
    13    52    53    2
    14   139   140    1
    15   146   145    2
    16    51    54    1
    17   140   141    1
    18   128   134    1
    19   143   144    1
    20    61    62    1
    21   145   144    1
    22   133   134    1
    23    64    63    2
    24    54    55    1
    25    57    55   ar
    26    57    59   ar
    27   144   147    1
    28    55    56   ar
    29    59    60   ar
    30    56    58   ar
    31    60    58   ar
    32    21    20    1
    33    63    62    1
    34    62    65    1
    35    22    20    1
    36    66    65    1
    37   147   148    1
    38    20    19    2
    39    65    67    1
    40   148   149    1
    41    19    18    1
    42    18    17    1
    43   149   150    1
    44    37    36    1
    45    37    38    2
    46    36    35    1
    47    17    16    1
    48   150   151    2
    49    40    38    1
    50    38    39    1
    51   152   151    1
    52    44    43    2
    53   151   153    1
    54    16    13    1
    55    35    34    1
    56    26    25    2
    57    34    31    1
    58    43    42    1
    59    13    14    1
    60    13    12    1
    61    30    31    1
    62     4     3    2
    63    31    32    1
    64    32    33    2
    65    25    24    1
    66    23    14   am
    67    23    24    1
    68    48    47   ar
    69    14    15    2
    70    27    24    1
    71    27    29    1
    72    27    28    1
    73    12     3   am
    74     3     2    1
    75    42    45    1
    76    42    41    1
    77    45    46    1
    78    68    69    1
    79     1     2    1
    80    76    75    1
    81    47    46    1
    82    47    49   ar
    83    86    84   ar
    84    86    87   ar
    85     2     5    1
    86    11     9    1
    87    69    70    1
    88    69    72    1
    89    84    82   ar
    90    75    74    1
    91    74    73    1
    92    94    93    1
    93    73    72    1
    94    70    71    2
    95    87    85   ar
    96     9    10    1
    97     9     8    2
    98    95    93    1
    99     5     6    1
   100    82    81    1
   101    82    83   ar
   102    77    78    1
   103     8     7    1
   104    93    92    1
   105    81    78    1
   106     6     7    1
   107   112   110   ar
   108   112   111   ar
   109    85    83   ar
   110   110   108   ar
   111    92    89    1
   112    78    79    1
   113    99    98    2
   114   119   117    1
   115    89    88    1
   116    89    90    1
   117   111   109   ar
   118   118   117    1
   119   108   109   ar
   120   108   107    1
   121    96    90   am
   122    96    97    1
   123    98    97    1
   124    98   103   am
   125   117   114    1
   126    79    80    2
   127    90    91    2
   128   104   107    1
   129   104   103    1
   130   104   105    1
   131   100    97    1
   132   100   101    1
   133   100   102    1
   134   113   114    1
   135   113   105   am
   136   114   115    1
   137   105   106    2
   138   116   115    2
   139   127   125    1
   140   126   125    1
   141   125   124    1
   142   124   121    1
   143   121   122    1
   144   121   120    1
   145   122   123    2
