@<TRIPOS>MOLECULE
tmp/5ko8B01.pdb
 96 90 0 0 0
SMALL
GASTEIGER

@<TRIPOS>ATOM
      1  N        -38.1380  -34.6120    3.1610 N.3    33  ARG33      -0.1245
      2  CA       -38.4660  -33.1990    3.3500 C.3    33  ARG33       0.1563
      3  C        -39.9740  -32.9260    3.3830 C.2    33  ARG33       0.2260
      4  O        -40.4020  -31.8030    3.6600 O.2    33  ARG33      -0.2867
      5  CB       -37.8110  -32.3830    2.2440 C.3    33  ARG33       0.0307
      6  CG       -36.3080  -32.5580    2.2050 C.3    33  ARG33       0.0489
      7  CD       -35.7580  -32.5430    0.7790 C.3    33  ARG33       0.2205
      8  NE       -34.3390  -32.8980    0.7560 N.pl3  33  ARG33      -0.0865
      9  CZ       -33.3910  -32.1290    1.2740 C.cat  33  ARG33       0.5346
     10  NH1      -33.7220  -30.9880    1.8410 N.pl3  33  ARG33       0.1354
     11  NH2      -32.1160  -32.4950    1.2380 N.pl3  33  ARG33       0.1354
     12  N        -33.2870  -17.6740    5.1740 N.3    86  GLU86      -0.1245
     13  CA       -33.0290  -18.4130    3.9470 C.3    86  GLU86       0.1567
     14  C        -33.4450  -17.6250    2.7160 C.2    86  GLU86       0.2260
     15  O        -32.8720  -17.7930    1.6420 O.2    86  GLU86      -0.2867
     16  CB       -33.7520  -19.7520    3.9890 C.3    86  GLU86       0.0388
     17  CG       -33.2100  -20.6690    5.0660 C.3    86  GLU86       0.1160
     18  CD       -31.9870  -21.4480    4.6200 C.2    86  GLU86       0.3649
     19  OE1      -31.3060  -21.0040    3.6690 O.co2  86  GLU86      -0.2457
     20  OE2      -31.7110  -22.5070    5.2260 O.co2  86  GLU86      -0.2457
     21  N        -30.7840  -17.0740   -0.1040 N.3    90  TYR90      -0.1241
     22  CA       -31.0320  -17.4400   -1.5000 C.3    90  TYR90       0.1605
     23  C        -31.0150  -16.2060   -2.4070 C.2    90  TYR90       0.2264
     24  O        -31.0740  -16.3300   -3.6320 O.2    90  TYR90      -0.2867
     25  CB       -32.3750  -18.1680   -1.6460 C.3    90  TYR90       0.0534
     26  CG       -32.2890  -19.6760   -1.5260 C.ar   90  TYR90      -0.0201
     27  CD1      -31.9900  -20.4630   -2.6310 C.ar   90  TYR90      -0.0009
     28  CD2      -32.5180  -20.3130   -0.3120 C.ar   90  TYR90      -0.0009
     29  CE1      -31.9130  -21.8390   -2.5280 C.ar   90  TYR90       0.0417
     30  CE2      -32.4440  -21.6870   -0.1990 C.ar   90  TYR90       0.0417
     31  CZ       -32.1410  -22.4460   -1.3090 C.ar   90  TYR90       0.1957
     32  OH       -32.0650  -23.8160   -1.1970 O.3    90  TYR90      -0.2866
     33  N        -25.7250  -16.3280    0.0550 N.3    94  MET94      -0.1245
     34  CA       -25.1740  -17.6400   -0.2710 C.3    94  MET94       0.1570
     35  C        -24.2380  -17.5420   -1.4620 C.2    94  MET94       0.2261
     36  O        -24.5240  -16.8410   -2.4360 O.2    94  MET94      -0.2867
     37  CB       -26.2760  -18.6520   -0.5770 C.3    94  MET94       0.0387
     38  CG       -26.9140  -19.2600    0.6570 C.3    94  MET94       0.0595
     39  SD       -28.1860  -20.4790    0.2770 S.3    94  MET94      -0.1393
     40  CE       -27.2200  -21.6840   -0.6230 C.3    94  MET94       0.0692
     41  N        -22.4600  -22.2800   -4.1180 N.3    98  TRP98      -0.1241
     42  CA       -23.3390  -22.9460   -3.1640 C.3    98  TRP98       0.1605
     43  C        -24.6570  -23.3140   -3.8430 C.2    98  TRP98       0.2264
     44  O        -25.0420  -24.4830   -3.8720 O.2    98  TRP98      -0.2867
     45  CB       -23.5850  -22.0420   -1.9480 C.3    98  TRP98       0.0550
     46  CG       -24.0080  -22.7600   -0.6950 C.ar   98  TRP98       0.0003
     47  CD1      -24.6640  -23.9540   -0.6090 C.ar   98  TRP98       0.0946
     48  CD2      -23.7960  -22.3230    0.6570 C.ar   98  TRP98       0.0152
     49  NE1      -24.8770  -24.2870    0.7080 N.ar   98  TRP98      -0.2442
     50  CE2      -24.3510  -23.3010    1.5070 C.ar   98  TRP98       0.0810
     51  CE3      -23.1880  -21.1990    1.2320 C.ar   98  TRP98       0.0012
     52  CZ2      -24.3200  -23.1920    2.8980 C.ar   98  TRP98       0.0191
     53  CZ3      -23.1580  -21.0900    2.6140 C.ar   98  TRP98       0.0001
     54  CH2      -23.7200  -22.0820    3.4310 C.ar   98  TRP98       0.0015
     55  N        -27.0630  -27.1330   -4.9590 N.3   102  LEU102     -0.1245
     56  CA       -28.3410  -27.4260   -4.3140 C.3   102  LEU102      0.1561
     57  C        -29.4650  -27.6840   -5.3100 C.2   102  LEU102      0.2260
     58  O        -30.5860  -28.0190   -4.9210 O.2   102  LEU102     -0.2867
     59  CB       -28.7380  -26.2780   -3.3950 C.3   102  LEU102      0.0270
     60  CG       -27.6980  -25.9220   -2.3370 C.3   102  LEU102      0.0019
     61  CD1      -28.2050  -24.7600   -1.5290 C.3   102  LEU102      0.0001
     62  CD2      -27.3720  -27.1060   -1.4410 C.3   102  LEU102      0.0001
     63  N        -31.4790  -31.0520   -5.2630 N.3   105  PHE105     -0.1241
     64  CA       -32.3810  -31.3290   -4.1460 C.3   105  PHE105      0.1605
     65  C        -33.7040  -30.5890   -4.2850 C.2   105  PHE105      0.2264
     66  O        -34.7090  -30.9780   -3.6840 O.2   105  PHE105     -0.2867
     67  CB       -31.7020  -30.9580   -2.8270 C.3   105  PHE105      0.0534
     68  CG       -30.2790  -31.4310   -2.7370 C.ar  105  PHE105     -0.0203
     69  CD1      -29.9890  -32.7770   -2.6110 C.ar  105  PHE105     -0.0042
     70  CD2      -29.2320  -30.5310   -2.7970 C.ar  105  PHE105     -0.0042
     71  CE1      -28.6820  -33.2140   -2.5380 C.ar  105  PHE105     -0.0003
     72  CE2      -27.9260  -30.9590   -2.7160 C.ar  105  PHE105     -0.0003
     73  CZ       -27.6510  -32.3050   -2.5890 C.ar  105  PHE105     -0.0000
     74  N        -34.5950  -27.2930   -3.4650 N.3   107  THR107     -0.1218
     75  CA       -34.9190  -26.6800   -2.1850 C.3   107  THR107      0.1862
     76  C        -35.1520  -25.1800   -2.3330 C.2   107  THR107      0.2287
     77  O        -34.3180  -24.4610   -2.8850 O.2   107  THR107     -0.2866
     78  CB       -33.7950  -26.9310   -1.1520 C.3   107  THR107      0.1770
     79  OG1      -32.5540  -26.4220   -1.6510 O.3   107  THR107     -0.2211
     80  CG2      -33.6440  -28.4210   -0.8760 C.3   107  THR107      0.0375
     81  N        -40.1400  -23.6760    4.1820 N.3   111  LYS111     -0.1245
     82  CA       -39.8580  -24.7580    5.1260 C.3   111  LYS111      0.1561
     83  C        -41.1300  -25.2070    5.8330 C.2   111  LYS111      0.2260
     84  O        -41.2230  -25.1290    7.0600 O.2   111  LYS111     -0.2867
     85  CB       -38.8360  -24.3150    6.1770 C.3   111  LYS111      0.0271
     86  CG       -37.6970  -23.4650    5.6630 C.3   111  LYS111      0.0035
     87  CD       -36.4910  -24.2830    5.3420 C.3   111  LYS111      0.0206
     88  CE       -35.3030  -23.3640    5.1650 C.3   111  LYS111      0.1093
     89  NZ       -34.0940  -24.0220    4.6130 N.3   111  LYS111     -0.1314
     90  N        -29.7470  -27.3050    8.9220 N.3   168  THR168     -0.1218
     91  CA       -28.8260  -26.3540    9.5380 C.3   168  THR168      0.1862
     92  C        -29.5290  -25.5640   10.6320 C.2   168  THR168      0.2287
     93  O        -30.7000  -25.2010   10.4920 O.2   168  THR168     -0.2866
     94  CB       -28.2440  -25.3630    8.5210 C.3   168  THR168      0.1770
     95  OG1      -29.3030  -24.5810    7.9500 O.3   168  THR168     -0.2211
     96  CG2      -27.4810  -26.1070    7.4230 C.3   168  THR168      0.0375
@<TRIPOS>BOND
     1    57    58    2
     2    57    56    1
     3    63    64    1
     4    55    56    1
     5    56    59    1
     6    65    64    1
     7    65    66    2
     8    64    67    1
     9    41    42    1
    10    44    43    2
    11    43    42    1
    12    24    23    2
    13    74    75    1
    14    59    60    1
    15    42    45    1
    16    77    76    2
    17    67    68    1
    18    70    68   ar
    19    70    72   ar
    20    68    69   ar
    21    72    73   ar
    22    27    29   ar
    23    27    26   ar
    24    69    71   ar
    25    73    71   ar
    26    29    31   ar
    27    36    35    2
    28    23    22    1
    29    60    61    1
    30    60    62    1
    31    76    75    1
    32    75    78    1
    33    45    46    1
    34    79    78    1
    35    25    26    1
    36    25    22    1
    37    26    28   ar
    38    22    21    1
    39    35    34    1
    40    31    32    1
    41    31    30   ar
    42    78    80    1
    43    46    47   ar
    44    46    48   ar
    45    40    39    1
    46    47    49   ar
    47    37    34    1
    48    37    38    1
    49    28    30   ar
    50    34    33    1
    51    39    38    1
    52    48    51   ar
    53    48    50   ar
    54    49    50   ar
    55     8     7    1
    56     8     9    2
    57     7     6    1
    58    51    53   ar
    59    11     9    1
    60     9    10    1
    61    50    52   ar
    62    15    14    2
    63     6     5    1
    64     5     2    1
    65    53    54   ar
    66    14    13    1
    67    52    54   ar
    68     1     2    1
    69     2     3    1
    70     3     4    2
    71    19    18   ar
    72    13    16    1
    73    13    12    1
    74    16    17    1
    75    81    82    1
    76    89    88    1
    77    18    17    1
    78    18    20   ar
    79    82    83    1
    80    82    85    1
    81    88    87    1
    82    87    86    1
    83    86    85    1
    84    83    84    2
    85    96    94    1
    86    95    94    1
    87    94    91    1
    88    90    91    1
    89    91    92    1
    90    93    92    2
