@<TRIPOS>MOLECULE
tmp/5kodA01.pdb
 154 146 0 0 0
SMALL
GASTEIGER

@<TRIPOS>ATOM
      1  N         35.7550   91.4990   64.1660 N.3    91  THR91      -0.1218
      2  CA        36.4790   90.9380   63.0400 C.3    91  THR91       0.1862
      3  C         35.7530   91.2190   61.7390 C.2    91  THR91       0.2287
      4  O         34.6890   90.6760   61.4790 O.2    91  THR91      -0.2866
      5  CB        36.6640   89.4110   63.2090 C.3    91  THR91       0.1770
      6  OG1       35.3720   88.7890   63.3300 O.3    91  THR91      -0.2211
      7  CG2       37.5090   89.1000   64.4550 C.3    91  THR91       0.0375
      8  N         34.8180   91.5300   57.6340 N.3    93  SER93      -0.1217
      9  CA        34.8850   90.6560   56.4600 C.3    93  SER93       0.1889
     10  C         36.0330   91.0760   55.5320 C.2    93  SER93       0.2288
     11  O         36.5060   90.2920   54.7030 O.2    93  SER93      -0.2866
     12  CB        33.5620   90.6670   55.7080 C.3    93  SER93       0.2089
     13  OG        33.1880   91.9980   55.4310 O.3    93  SER93      -0.2183
     14  N         41.0930   88.1860   58.8360 N.3   100  ARG100     -0.1245
     15  CA        40.1430   89.2500   59.1280 C.3   100  ARG100      0.1563
     16  C         40.8270   90.4240   59.8320 C.2   100  ARG100      0.2260
     17  O         41.6950   90.2350   60.6850 O.2   100  ARG100     -0.2867
     18  CB        38.9780   88.7350   59.9880 C.3   100  ARG100      0.0307
     19  CG        38.0730   87.7000   59.3270 C.3   100  ARG100      0.0489
     20  CD        36.9320   87.4000   60.2690 C.3   100  ARG100      0.2205
     21  NE        35.8760   86.5400   59.7540 N.pl3 100  ARG100     -0.0865
     22  CZ        34.7170   86.9820   59.2620 C.cat 100  ARG100      0.5346
     23  NH1       34.4700   88.2890   59.1860 N.pl3 100  ARG100      0.1354
     24  NH2       33.8030   86.1180   58.8470 N.pl3 100  ARG100      0.1354
     25  N         19.7080  101.3780   65.1400 N.3   117  TYR117     -0.1241
     26  CA        18.5980  100.4550   64.9350 C.3   117  TYR117      0.1605
     27  C         17.2590  101.1000   65.3540 C.2   117  TYR117      0.2264
     28  O         16.2200  100.8360   64.7520 O.2   117  TYR117     -0.2867
     29  CB        18.8080   99.1550   65.7160 C.3   117  TYR117      0.0534
     30  CG        19.8530   98.2130   65.1620 C.ar  117  TYR117     -0.0201
     31  CD1       19.7480   97.7100   63.8770 C.ar  117  TYR117     -0.0009
     32  CD2       20.9270   97.8020   65.9390 C.ar  117  TYR117     -0.0009
     33  CE1       20.7010   96.8590   63.3620 C.ar  117  TYR117      0.0417
     34  CE2       21.8760   96.9380   65.4430 C.ar  117  TYR117      0.0417
     35  CZ        21.7620   96.4720   64.1480 C.ar  117  TYR117      0.1957
     36  OH        22.7070   95.6150   63.6380 O.3   117  TYR117     -0.2866
     37  N         21.7350   85.2400   62.4830 N.3   141  PHE141     -0.1241
     38  CA        22.6710   84.1870   62.8700 C.3   141  PHE141      0.1605
     39  C         23.9250   84.7430   63.5230 C.2   141  PHE141      0.2264
     40  O         24.4160   85.8110   63.1590 O.2   141  PHE141     -0.2867
     41  CB        23.0580   83.3400   61.6550 C.3   141  PHE141      0.0534
     42  CG        21.8770   82.7920   60.8790 C.ar  141  PHE141     -0.0203
     43  CD1       21.2320   81.6380   61.2860 C.ar  141  PHE141     -0.0042
     44  CD2       21.4290   83.4270   59.7290 C.ar  141  PHE141     -0.0042
     45  CE1       20.1520   81.1250   60.5660 C.ar  141  PHE141     -0.0003
     46  CE2       20.3390   82.9310   59.0050 C.ar  141  PHE141     -0.0003
     47  CZ        19.7080   81.7820   59.4170 C.ar  141  PHE141     -0.0000
     48  N         28.0190   83.8450   64.5440 N.3   143  LYS143     -0.1245
     49  CA        29.0990   83.1800   63.8370 C.3   143  LYS143      0.1561
     50  C         30.1440   82.7250   64.8220 C.2   143  LYS143      0.2260
     51  O         30.0190   82.9700   66.0110 O.2   143  LYS143     -0.2867
     52  CB        29.7180   84.1090   62.8050 C.3   143  LYS143      0.0271
     53  CG        28.8140   84.3610   61.6140 C.3   143  LYS143      0.0035
     54  CD        29.1930   85.6430   60.9050 C.3   143  LYS143      0.0206
     55  CE        28.4670   85.7880   59.5820 C.3   143  LYS143      0.1093
     56  NZ        29.3890   86.3840   58.5680 N.3   143  LYS143     -0.1314
     57  N         32.5900   88.6630   64.9710 N.3   156  PRO156     -0.2102
     58  CA        31.8900   89.5700   64.0510 C.3   156  PRO156      0.1504
     59  C         30.9540   90.5200   64.7870 C.2   156  PRO156      0.2576
     60  O         30.4090   90.1420   65.8380 O.2   156  PRO156     -0.2718
     61  CB        31.1110   88.6180   63.1410 C.3   156  PRO156      0.0282
     62  CG        31.8580   87.3090   63.2500 C.3   156  PRO156      0.0208
     63  CD        32.3110   87.2500   64.6680 C.3   156  PRO156      0.0893
     64  N         30.7800   91.7260   64.2460 N.am  157  VAL157     -0.1966
     65  CA        30.0410   92.7810   64.9380 C.3   157  VAL157      0.1727
     66  C         28.6010   92.3630   65.3120 C.2   157  VAL157      0.2616
     67  O         28.1490   92.6820   66.4110 O.2   157  VAL157     -0.2715
     68  CB        30.0030   94.0930   64.1000 C.3   157  VAL157      0.0290
     69  CG1       29.3660   93.8640   62.7450 C.3   157  VAL157      0.0023
     70  CG2       29.2670   95.2020   64.8710 C.3   157  VAL157      0.0023
     71  N         27.9040   91.6290   64.4390 N.am  158  LEU158     -0.1963
     72  CA        26.5470   91.1730   64.7520 C.3   158  LEU158      0.1728
     73  C         26.5310   90.0570   65.7900 C.2   158  LEU158      0.2616
     74  O         25.5820   89.9570   66.5520 O.2   158  LEU158     -0.2715
     75  CB        25.8010   90.6900   63.5090 C.3   158  LEU158      0.0311
     76  CG        25.4660   91.8030   62.5150 C.3   158  LEU158      0.0022
     77  CD1       24.5740   91.3290   61.3840 C.3   158  LEU158      0.0001
     78  CD2       24.8750   92.9770   63.2600 C.3   158  LEU158      0.0001
     79  N         27.5720   89.2260   65.8200 N.am  159  THR159     -0.1951
     80  CA        27.6590   88.1790   66.8400 C.3   159  THR159      0.1897
     81  C         27.8200   88.8370   68.2080 C.2   159  THR159      0.2313
     82  O         27.1720   88.4550   69.1890 O.2   159  THR159     -0.2863
     83  CB        28.8330   87.2000   66.5850 C.3   159  THR159      0.1794
     84  OG1       28.5740   86.4240   65.4080 O.3   159  THR159     -0.2208
     85  CG2       29.0340   86.2640   67.7950 C.3   159  THR159      0.0378
     86  N         19.7940   90.0340   57.3440 N.3   214  VAL214     -0.1231
     87  CA        20.7650   91.1010   57.1570 C.3   214  VAL214      0.1692
     88  C         21.1290   91.2320   55.6800 C.2   214  VAL214      0.2592
     89  O         21.0210   92.3250   55.1180 O.2   214  VAL214     -0.2718
     90  CB        22.0320   90.8670   58.0010 C.3   214  VAL214      0.0266
     91  CG1       23.0560   91.9260   57.6910 C.3   214  VAL214      0.0020
     92  CG2       21.6720   90.8990   59.5000 C.3   214  VAL214      0.0020
     93  N         21.5390   90.1120   55.0640 N.am  215  PHE215     -0.1976
     94  CA        21.8840   90.0580   53.6270 C.3   215  PHE215      0.1639
     95  C         20.8640   89.2800   52.7810 C.2   215  PHE215      0.2290
     96  O         20.2440   88.3270   53.2660 O.2   215  PHE215     -0.2864
     97  CB        23.2370   89.3900   53.4230 C.3   215  PHE215      0.0560
     98  CG        24.3950   90.1510   53.9670 C.ar  215  PHE215     -0.0200
     99  CD1       24.5940   91.4740   53.6390 C.ar  215  PHE215     -0.0042
    100  CD2       25.3160   89.5200   54.7880 C.ar  215  PHE215     -0.0042
    101  CE1       25.6760   92.1630   54.1340 C.ar  215  PHE215     -0.0003
    102  CE2       26.4050   90.2090   55.2870 C.ar  215  PHE215     -0.0003
    103  CZ        26.5820   91.5310   54.9590 C.ar  215  PHE215     -0.0000
    104  N         19.6140   93.5530   52.5820 N.3   295  ILE295     -0.1245
    105  CA        20.5250   94.4200   51.8410 C.3   295  ILE295      0.1561
    106  C         20.6330   93.9230   50.3970 C.2   295  ILE295      0.2260
    107  O         20.9900   92.7710   50.1600 O.2   295  ILE295     -0.2867
    108  CB        21.9370   94.5130   52.5150 C.3   295  ILE295      0.0252
    109  CG1       21.8580   95.4500   53.7300 C.3   295  ILE295      0.0019
    110  CG2       22.9830   95.0670   51.5470 C.3   295  ILE295      0.0019
    111  CD1       23.0270   95.3780   54.6680 C.3   295  ILE295      0.0001
    112  N         19.8530  100.0370   56.0810 N.3   320  MET320     -0.1245
    113  CA        21.0170  100.6210   56.7300 C.3   320  MET320      0.1570
    114  C         22.3630  100.2510   56.1080 C.2   320  MET320      0.2261
    115  O         22.4850   99.3040   55.3340 O.2   320  MET320     -0.2867
    116  CB        21.0420  100.2330   58.2220 C.3   320  MET320      0.0387
    117  CG        21.0200   98.7280   58.4710 C.3   320  MET320      0.0595
    118  SD        21.2880   98.2620   60.1980 S.3   320  MET320     -0.1393
    119  CE        23.0590   98.4520   60.3250 C.3   320  MET320      0.0692
    120  N         26.4120   99.9570   57.4350 N.3   322  ALA322     -0.1231
    121  CA        27.2320   99.8370   58.6330 C.3   322  ALA322      0.1694
    122  C         28.3570   98.8230   58.4730 C.2   322  ALA322      0.2593
    123  O         28.3620   98.0370   57.5270 O.2   322  ALA322     -0.2718
    124  CB        26.3740   99.4630   59.8110 C.3   322  ALA322      0.0304
    125  N         29.2980   98.8410   59.4160 N.am  323  SER323     -0.1938
    126  CA        30.4460   97.9480   59.3670 C.3   323  SER323      0.2055
    127  C         30.9600   97.5920   60.7620 C.2   323  SER323      0.2643
    128  O         30.4330   98.0750   61.7630 O.2   323  SER323     -0.2714
    129  CB        31.5740   98.5840   58.5630 C.3   323  SER323      0.2130
    130  OG        32.1160   99.6940   59.2510 O.3   323  SER323     -0.2179
    131  N         31.9940   96.7500   60.8020 N.am  324  SER324     -0.1949
    132  CA        32.6520   96.3390   62.0440 C.3   324  SER324      0.1924
    133  C         33.2780   97.5090   62.7850 C.2   324  SER324      0.2314
    134  O         33.1580   97.6220   64.0030 O.2   324  SER324     -0.2863
    135  CB        33.7430   95.3100   61.7560 C.3   324  SER324      0.2116
    136  OG        33.2390   94.2300   60.9990 O.3   324  SER324     -0.2180
    137  N         29.2570  102.0010   62.6420 N.3   327  TYR327     -0.1241
    138  CA        27.9260  102.0530   62.0230 C.3   327  TYR327      0.1605
    139  C         27.7740  103.4360   61.3780 C.2   327  TYR327      0.2264
    140  O         28.1830  104.4370   61.9670 O.2   327  TYR327     -0.2867
    141  CB        26.8200  101.7760   63.0560 C.3   327  TYR327      0.0534
    142  CG        26.4590  100.3060   63.2420 C.ar  327  TYR327     -0.0201
    143  CD1       27.4410   99.3230   63.3070 C.ar  327  TYR327     -0.0009
    144  CD2       25.1280   99.9090   63.3790 C.ar  327  TYR327     -0.0009
    145  CE1       27.1120   97.9840   63.4780 C.ar  327  TYR327      0.0417
    146  CE2       24.7870   98.5810   63.5550 C.ar  327  TYR327      0.0417
    147  CZ        25.7820   97.6180   63.5940 C.ar  327  TYR327      0.1957
    148  OH        25.4330   96.2950   63.7690 O.3   327  TYR327     -0.2866
    149  N         29.3300   87.4580   52.7070 N.3   420  SER420     -0.1217
    150  CA        30.2130   88.5290   53.1800 C.3   420  SER420      0.1889
    151  C         31.6430   88.3950   52.6200 C.2   420  SER420      0.2288
    152  O         32.4420   89.3360   52.6980 O.2   420  SER420     -0.2866
    153  CB        30.2480   88.5680   54.7100 C.3   420  SER420      0.2089
    154  OG        30.6080   87.3060   55.2550 O.3   420  SER420     -0.2183
@<TRIPOS>BOND
     1   107   106    2
     2   106   105    1
     3   110   108    1
     4   105   108    1
     5   105   104    1
     6   108   109    1
     7   151   152    2
     8   151   150    1
     9   149   150    1
    10    95    96    2
    11    95    94    1
    12   150   153    1
    13    97    94    1
    14    97    98    1
    15    94    93    1
    16    99    98   ar
    17    99   101   ar
    18   109   111    1
    19    98   100   ar
    20   101   103   ar
    21    11    10    2
    22   153   154    1
    23   100   102   ar
    24   103   102   ar
    25    93    88   am
    26    89    88    2
    27   115   114    2
    28    13    12    1
    29    10     9    1
    30    88    87    1
    31    12     9    1
    32   112   113    1
    33   114   113    1
    34     9     8    1
    35   113   116    1
    36    87    86    1
    37    87    90    1
    38   120   121    1
    39   123   122    2
    40    91    90    1
    41    90    92    1
    42   116   117    1
    43   117   118    1
    44   122   121    1
    45   122   125   am
    46   129   130    1
    47   129   126    1
    48    56    55    1
    49   121   124    1
    50    14    15    1
    51    24    22    1
    52    46    47   ar
    53    46    44   ar
    54    15    16    1
    55    15    18    1
    56    23    22    1
    57    22    21    2
    58    19    18    1
    59    19    20    1
    60   126   125    1
    61   126   127    1
    62    47    45   ar
    63    55    54    1
    64    44    42   ar
    65    21    20    1
    66    16    17    2
    67   118   119    1
    68    45    43   ar
    69   127   131   am
    70   127   128    2
    71   131   132    1
    72    42    43   ar
    73    42    41    1
    74    54    53    1
    75   136   135    1
    76   139   140    2
    77   139   138    1
    78    77    76    1
    79     4     3    2
    80    53    52    1
    81    41    38    1
    82     3     2    1
    83   135   132    1
    84   138   137    1
    85   138   141    1
    86   132   133    1
    87    37    38    1
    88    76    78    1
    89    76    75    1
    90    69    68    1
    91   133   134    2
    92    52    49    1
    93    38    39    1
    94     2     5    1
    95     2     1    1
    96   141   142    1
    97    61    62    1
    98    61    58    1
    99    40    39    2
   100     5     6    1
   101     5     7    1
   102   142   143   ar
   103   142   144   ar
   104    62    63    1
   105   143   145   ar
   106    33    31   ar
   107    33    35   ar
   108   144   146   ar
   109   145   147   ar
   110    75    72    1
   111   146   147   ar
   112   147   148    1
   113    36    35    1
   114    49    48    1
   115    49    50    1
   116    31    30   ar
   117    58    59    1
   118    58    57    1
   119    68    70    1
   120    68    65    1
   121    35    34   ar
   122    64    59   am
   123    64    65    1
   124    71    72    1
   125    71    66   am
   126    63    57    1
   127    28    27    2
   128    72    73    1
   129    59    60    2
   130    50    51    2
   131    26    25    1
   132    26    27    1
   133    26    29    1
   134    65    66    1
   135    30    29    1
   136    30    32   ar
   137    66    67    2
   138    84    83    1
   139    34    32   ar
   140    73    79   am
   141    73    74    2
   142    79    80    1
   143    83    80    1
   144    83    85    1
   145    80    81    1
   146    81    82    2
