@<TRIPOS>MOLECULE
tmp/5kodA00.pdb
 188 178 0 0 0
SMALL
GASTEIGER

@<TRIPOS>ATOM
      1  N         35.7550   91.4990   64.1660 N.3    91  THR91      -0.1203
      2  CA        36.4790   90.9380   63.0400 C.3    91  THR91       0.1994
      3  C         35.7530   91.2190   61.7390 C.2    91  THR91       0.2619
      4  O         34.6890   90.6760   61.4790 O.2    91  THR91      -0.2717
      5  CB        36.6640   89.4110   63.2090 C.3    91  THR91       0.1784
      6  OG1       35.3720   88.7890   63.3300 O.3    91  THR91      -0.2211
      7  CG2       37.5090   89.1000   64.4550 C.3    91  THR91       0.0376
      8  N         36.3420   92.0650   60.9100 N.am   92  SER92      -0.1937
      9  CA        35.6870   92.5080   59.6850 C.3    92  SER92       0.2055
     10  C         35.7130   91.4270   58.6110 C.2    92  SER92       0.2643
     11  O         36.5380   90.5150   58.6640 O.2    92  SER92      -0.2714
     12  CB        36.3640   93.7760   59.1690 C.3    92  SER92       0.2130
     13  OG        35.9250   94.0820   57.8670 O.3    92  SER92      -0.2179
     14  N         34.8180   91.5300   57.6340 N.am   93  SER93      -0.1949
     15  CA        34.8850   90.6560   56.4600 C.3    93  SER93       0.1924
     16  C         36.0330   91.0760   55.5320 C.2    93  SER93       0.2314
     17  O         36.5060   90.2920   54.7030 O.2    93  SER93      -0.2863
     18  CB        33.5620   90.6670   55.7080 C.3    93  SER93       0.2116
     19  OG        33.1880   91.9980   55.4310 O.3    93  SER93      -0.2180
     20  N         41.0930   88.1860   58.8360 N.3   100  ARG100     -0.1245
     21  CA        40.1430   89.2500   59.1280 C.3   100  ARG100      0.1563
     22  C         40.8270   90.4240   59.8320 C.2   100  ARG100      0.2260
     23  O         41.6950   90.2350   60.6850 O.2   100  ARG100     -0.2867
     24  CB        38.9780   88.7350   59.9880 C.3   100  ARG100      0.0307
     25  CG        38.0730   87.7000   59.3270 C.3   100  ARG100      0.0489
     26  CD        36.9320   87.4000   60.2690 C.3   100  ARG100      0.2205
     27  NE        35.8760   86.5400   59.7540 N.pl3 100  ARG100     -0.0865
     28  CZ        34.7170   86.9820   59.2620 C.cat 100  ARG100      0.5346
     29  NH1       34.4700   88.2890   59.1860 N.pl3 100  ARG100      0.1354
     30  NH2       33.8030   86.1180   58.8470 N.pl3 100  ARG100      0.1354
     31  N         30.7800   91.7260   64.2460 N.3   157  VAL157     -0.1245
     32  CA        30.0410   92.7810   64.9380 C.3   157  VAL157      0.1561
     33  C         28.6010   92.3630   65.3120 C.2   157  VAL157      0.2260
     34  O         28.1490   92.6820   66.4110 O.2   157  VAL157     -0.2867
     35  CB        30.0030   94.0930   64.1000 C.3   157  VAL157      0.0252
     36  CG1       29.3660   93.8640   62.7450 C.3   157  VAL157      0.0019
     37  CG2       29.2670   95.2020   64.8710 C.3   157  VAL157      0.0019
     38  N         21.5390   90.1120   55.0640 N.3   215  PHE215     -0.1241
     39  CA        21.8840   90.0580   53.6270 C.3   215  PHE215      0.1605
     40  C         20.8640   89.2800   52.7810 C.2   215  PHE215      0.2264
     41  O         20.2440   88.3270   53.2660 O.2   215  PHE215     -0.2867
     42  CB        23.2370   89.3900   53.4230 C.3   215  PHE215      0.0534
     43  CG        24.3950   90.1510   53.9670 C.ar  215  PHE215     -0.0203
     44  CD1       24.5940   91.4740   53.6390 C.ar  215  PHE215     -0.0042
     45  CD2       25.3160   89.5200   54.7880 C.ar  215  PHE215     -0.0042
     46  CE1       25.6760   92.1630   54.1340 C.ar  215  PHE215     -0.0003
     47  CE2       26.4050   90.2090   55.2870 C.ar  215  PHE215     -0.0003
     48  CZ        26.5820   91.5310   54.9590 C.ar  215  PHE215     -0.0000
     49  N         19.6140   93.5530   52.5820 N.3   295  ILE295     -0.1245
     50  CA        20.5250   94.4200   51.8410 C.3   295  ILE295      0.1561
     51  C         20.6330   93.9230   50.3970 C.2   295  ILE295      0.2260
     52  O         20.9900   92.7710   50.1600 O.2   295  ILE295     -0.2867
     53  CB        21.9370   94.5130   52.5150 C.3   295  ILE295      0.0252
     54  CG1       21.8580   95.4500   53.7300 C.3   295  ILE295      0.0019
     55  CG2       22.9830   95.0670   51.5470 C.3   295  ILE295      0.0019
     56  CD1       23.0270   95.3780   54.6680 C.3   295  ILE295      0.0001
     57  N         21.9970   96.3520   48.0530 N.3   297  THR297     -0.1203
     58  CA        22.9410   97.3210   47.5210 C.3   297  THR297      0.1994
     59  C         24.3270   96.6870   47.5490 C.2   297  THR297      0.2618
     60  O         24.5480   95.7060   48.2560 O.2   297  THR297     -0.2717
     61  CB        22.9240   98.6470   48.3260 C.3   297  THR297      0.1784
     62  OG1       22.9410   98.3640   49.7340 O.3   297  THR297     -0.2211
     63  CG2       21.6760   99.4550   48.0090 C.3   297  THR297      0.0376
     64  N         25.2540   97.2120   46.7580 N.am  298  GLY298     -0.1956
     65  CA        26.5620   96.5960   46.6420 C.3   298  GLY298      0.1869
     66  C         26.4990   95.2990   45.8560 C.2   298  GLY298      0.2309
     67  O         25.6240   95.1320   45.0100 O.2   298  GLY298     -0.2863
     68  N         19.8530  100.0370   56.0810 N.3   320  MET320     -0.1230
     69  CA        21.0170  100.6210   56.7300 C.3   320  MET320      0.1702
     70  C         22.3630  100.2510   56.1080 C.2   320  MET320      0.2592
     71  O         22.4850   99.3040   55.3340 O.2   320  MET320     -0.2718
     72  CB        21.0420  100.2330   58.2220 C.3   320  MET320      0.0401
     73  CG        21.0200   98.7280   58.4710 C.3   320  MET320      0.0596
     74  SD        21.2880   98.2620   60.1980 S.3   320  MET320     -0.1393
     75  CE        23.0590   98.4520   60.3250 C.3   320  MET320      0.0692
     76  N         23.3650  101.0230   56.5130 N.am  321  TYR321     -0.1962
     77  CA        24.7190  100.9520   56.0110 C.3   321  TYR321      0.1771
     78  C         25.6470  101.0240   57.2230 C.2   321  TYR321      0.2619
     79  O         25.6380  102.0200   57.9710 O.2   321  TYR321     -0.2715
     80  CB        24.9600  102.0910   55.0190 C.3   321  TYR321      0.0574
     81  CG        26.3880  102.3220   54.5900 C.ar  321  TYR321     -0.0198
     82  CD1       27.2250  101.2650   54.2600 C.ar  321  TYR321     -0.0009
     83  CD2       26.8900  103.6190   54.4730 C.ar  321  TYR321     -0.0009
     84  CE1       28.5350  101.5020   53.8410 C.ar  321  TYR321      0.0417
     85  CE2       28.1650  103.8580   54.0590 C.ar  321  TYR321      0.0417
     86  CZ        28.9930  102.8010   53.7450 C.ar  321  TYR321      0.1957
     87  OH        30.2800  103.0550   53.3290 O.3   321  TYR321     -0.2866
     88  N         26.4120   99.9570   57.4350 N.am  322  ALA322     -0.1963
     89  CA        27.2320   99.8370   58.6330 C.3   322  ALA322      0.1728
     90  C         28.3570   98.8230   58.4730 C.2   322  ALA322      0.2617
     91  O         28.3620   98.0370   57.5270 O.2   322  ALA322     -0.2715
     92  CB        26.3740   99.4630   59.8110 C.3   322  ALA322      0.0334
     93  N         29.2980   98.8410   59.4160 N.am  323  SER323     -0.1936
     94  CA        30.4460   97.9480   59.3670 C.3   323  SER323      0.2055
     95  C         30.9600   97.5920   60.7620 C.2   323  SER323      0.2644
     96  O         30.4330   98.0750   61.7630 O.2   323  SER323     -0.2714
     97  CB        31.5740   98.5840   58.5630 C.3   323  SER323      0.2130
     98  OG        32.1160   99.6940   59.2510 O.3   323  SER323     -0.2179
     99  N         31.9940   96.7500   60.8020 N.am  324  SER324     -0.1935
    100  CA        32.6520   96.3390   62.0440 C.3   324  SER324      0.2055
    101  C         33.2780   97.5090   62.7850 C.2   324  SER324      0.2642
    102  O         33.1580   97.6220   64.0030 O.2   324  SER324     -0.2714
    103  CB        33.7430   95.3100   61.7560 C.3   324  SER324      0.2130
    104  OG        33.2390   94.2300   60.9990 O.3   324  SER324     -0.2179
    105  N         33.9660   98.3710   62.0420 N.am  325  GLU325     -0.1976
    106  CA        34.6990   99.4540   62.6600 C.3   325  GLU325      0.1602
    107  C         33.7640  100.5850   63.0710 C.2   325  GLU325      0.2287
    108  O         34.0670  101.3280   64.0120 O.2   325  GLU325     -0.2864
    109  CB        35.8040   99.9780   61.7220 C.3   325  GLU325      0.0415
    110  CG        35.3340  100.5150   60.3620 C.3   325  GLU325      0.1163
    111  CD        35.4330   99.4630   59.2630 C.2   325  GLU325      0.3649
    112  OE1       35.0240   98.3120   59.5060 O.co2 325  GLU325     -0.2457
    113  OE2       35.9320   99.7870   58.1610 O.co2 325  GLU325     -0.2457
    114  N         27.2140  103.4940   60.1680 N.3   328  PHE328     -0.1241
    115  CA        27.3430  104.7020   59.3340 C.3   328  PHE328      0.1605
    116  C         26.0470  105.4780   59.1700 C.2   328  PHE328      0.2264
    117  O         25.9650  106.6630   59.5020 O.2   328  PHE328     -0.2867
    118  CB        27.8770  104.3520   57.9250 C.3   328  PHE328      0.0534
    119  CG        29.2300  103.6670   57.9140 C.ar  328  PHE328     -0.0203
    120  CD1       30.3160  104.2180   58.5790 C.ar  328  PHE328     -0.0042
    121  CD2       29.4110  102.4770   57.2160 C.ar  328  PHE328     -0.0042
    122  CE1       31.5610  103.5890   58.5600 C.ar  328  PHE328     -0.0003
    123  CE2       30.6450  101.8430   57.1960 C.ar  328  PHE328     -0.0003
    124  CZ        31.7260  102.4030   57.8780 C.ar  328  PHE328     -0.0000
    125  N         22.0230  106.3690   51.3350 N.3   343  TYR343     -0.1241
    126  CA        22.1120  106.2870   52.7870 C.3   343  TYR343      0.1605
    127  C         22.5390  107.6110   53.3940 C.2   343  TYR343      0.2264
    128  O         23.5550  108.2000   52.9860 O.2   343  TYR343     -0.2867
    129  CB        23.0900  105.1970   53.2120 C.3   343  TYR343      0.0534
    130  CG        22.7170  103.8170   52.7280 C.ar  343  TYR343     -0.0201
    131  CD1       21.8030  103.0300   53.4330 C.ar  343  TYR343     -0.0009
    132  CD2       23.2970  103.2910   51.5720 C.ar  343  TYR343     -0.0009
    133  CE1       21.4690  101.7440   52.9870 C.ar  343  TYR343      0.0417
    134  CE2       22.9770  102.0280   51.1220 C.ar  343  TYR343      0.0417
    135  CZ        22.0640  101.2630   51.8240 C.ar  343  TYR343      0.1957
    136  OH        21.7590  100.0190   51.3490 O.3   343  TYR343     -0.2866
    137  N         37.9940  103.3040   55.0050 N.3   390  VAL390     -0.1245
    138  CA        37.1230  102.1410   55.0600 C.3   390  VAL390      0.1561
    139  C         37.3280  101.2620   53.8300 C.2   390  VAL390      0.2260
    140  O         37.3070  100.0380   53.9230 O.2   390  VAL390     -0.2867
    141  CB        35.6470  102.5630   55.1710 C.3   390  VAL390      0.0252
    142  CG1       34.7140  101.3610   55.0600 C.3   390  VAL390      0.0019
    143  CG2       35.4200  103.2980   56.4790 C.3   390  VAL390      0.0019
    144  N         35.3440  101.8180   51.2290 N.3   392  ASP392     -0.1239
    145  CA        34.0600  102.0630   50.5700 C.3   392  ASP392      0.1674
    146  C         34.0600  103.3360   49.7130 C.2   392  ASP392      0.2266
    147  O         34.4420  104.4100   50.1890 O.2   392  ASP392     -0.2867
    148  CB        32.9190  102.1790   51.5980 C.3   392  ASP392      0.1410
    149  CG        32.5570  100.8580   52.2490 C.2   392  ASP392      0.3668
    150  OD1       33.0290   99.7990   51.7740 O.co2 392  ASP392     -0.2456
    151  OD2       31.7740  100.8900   53.2340 O.co2 392  ASP392     -0.2456
    152  N         25.7690  103.7850   47.5870 N.3   408  PHE408     -0.1241
    153  CA        26.9300  102.9280   47.7850 C.3   408  PHE408      0.1605
    154  C         27.3850  102.4360   46.4370 C.2   408  PHE408      0.2264
    155  O         26.6050  101.8350   45.7090 O.2   408  PHE408     -0.2867
    156  CB        26.5930  101.7450   48.7050 C.3   408  PHE408      0.0534
    157  CG        27.7330  100.7910   48.9230 C.ar  408  PHE408     -0.0203
    158  CD1       28.6940  101.0400   49.8870 C.ar  408  PHE408     -0.0042
    159  CD2       27.8290   99.6260   48.1810 C.ar  408  PHE408     -0.0042
    160  CE1       29.7460  100.1340   50.1060 C.ar  408  PHE408     -0.0003
    161  CE2       28.8660   98.7250   48.3930 C.ar  408  PHE408     -0.0003
    162  CZ        29.8220   98.9800   49.3490 C.ar  408  PHE408     -0.0000
    163  N         32.8800   98.3330   47.6640 N.3   411  ARG411     -0.1245
    164  CA        34.0550   98.1710   48.5040 C.3   411  ARG411      0.1563
    165  C         35.2130   97.9270   47.5330 C.2   411  ARG411      0.2260
    166  O         35.1180   97.0300   46.7060 O.2   411  ARG411     -0.2867
    167  CB        33.8850   97.0090   49.4980 C.3   411  ARG411      0.0307
    168  CG        35.1740   96.5560   50.1920 C.3   411  ARG411      0.0489
    169  CD        35.7800   97.6290   51.1110 C.3   411  ARG411      0.2205
    170  NE        35.0230   97.8280   52.3350 N.pl3 411  ARG411     -0.0865
    171  CZ        35.2690   97.2150   53.5000 C.cat 411  ARG411      0.5346
    172  NH1       36.2850   96.3500   53.6210 N.pl3 411  ARG411      0.1354
    173  NH2       34.5120   97.4770   54.5570 N.pl3 411  ARG411      0.1354
    174  N         29.3300   87.4580   52.7070 N.3   420  SER420     -0.1217
    175  CA        30.2130   88.5290   53.1800 C.3   420  SER420      0.1889
    176  C         31.6430   88.3950   52.6200 C.2   420  SER420      0.2288
    177  O         32.4420   89.3360   52.6980 O.2   420  SER420     -0.2866
    178  CB        30.2480   88.5680   54.7100 C.3   420  SER420      0.2089
    179  OG        30.6080   87.3060   55.2550 O.3   420  SER420     -0.2183
    180  N         34.8480   88.3850   50.3030 N.3   422  LYS422     -0.1245
    181  CA        35.3610   89.2980   49.2820 C.3   422  LYS422      0.1561
    182  C         36.7040   88.8060   48.7620 C.2   422  LYS422      0.2260
    183  O         37.6610   88.7100   49.5270 O.2   422  LYS422     -0.2867
    184  CB        35.5030   90.7160   49.8390 C.3   422  LYS422      0.0271
    185  CG        34.1760   91.4170   50.1060 C.3   422  LYS422      0.0035
    186  CD        34.3910   92.7060   50.8750 C.3   422  LYS422      0.0206
    187  CE        34.1250   92.5370   52.3660 C.3   422  LYS422      0.1093
    188  NZ        32.6540   92.4370   52.6530 N.3   422  LYS422     -0.1314
@<TRIPOS>BOND
     1    67    66    2
     2   155   154    2
     3    66    65    1
     4   154   153    1
     5    65    64    1
     6   166   165    2
     7    64    59   am
     8    58    59    1
     9    58    57    1
    10    58    61    1
    11   165   164    1
    12    59    60    2
    13   152   153    1
    14   163   164    1
    15   153   156    1
    16    63    61    1
    17   159   161   ar
    18   159   157   ar
    19    61    62    1
    20   161   162   ar
    21   164   167    1
    22   156   157    1
    23   182   181    1
    24   182   183    2
    25   157   158   ar
    26   181   184    1
    27   181   180    1
    28   162   160   ar
    29   167   168    1
    30   146   147    2
    31   146   145    1
    32   184   185    1
    33   158   160   ar
    34   185   186    1
    35    52    51    2
    36   168   169    1
    37    51    50    1
    38   145   144    1
    39   145   148    1
    40   186   187    1
    41   169   170    1
    42   134   132   ar
    43   134   135   ar
    44   125   126    1
    45   136   135    1
    46    55    53    1
    47   132   130   ar
    48   148   149    1
    49   150   149   ar
    50   135   133   ar
    51    50    53    1
    52    50    49    1
    53   149   151   ar
    54   170   171    2
    55   187   188    1
    56    53    54    1
    57   176   177    2
    58   176   175    1
    59   174   175    1
    60   130   129    1
    61   130   131   ar
    62    40    41    2
    63    40    39    1
    64   126   129    1
    65   126   127    1
    66   128   127    2
    67   133   131   ar
    68   175   178    1
    69    87    86    1
    70    42    39    1
    71    42    43    1
    72   171   172    1
    73   171   173    1
    74    39    38    1
    75    44    43   ar
    76    44    46   ar
    77    54    56    1
    78    86    84   ar
    79    86    85   ar
    80   139   140    2
    81   139   138    1
    82    84    82   ar
    83    43    45   ar
    84    85    83   ar
    85    46    48   ar
    86    82    81   ar
    87    83    81   ar
    88    81    80    1
    89    17    16    2
    90   178   179    1
    91    45    47   ar
    92    48    47   ar
    93   137   138    1
    94    80    77    1
    95   142   141    1
    96   138   141    1
    97   141   143    1
    98    71    70    2
    99    19    18    1
   100    16    15    1
   101    18    15    1
   102    77    76    1
   103    77    78    1
   104    68    69    1
   105    70    76   am
   106    70    69    1
   107    15    14    1
   108    69    72    1
   109   123   121   ar
   110   123   124   ar
   111   121   119   ar
   112    78    88   am
   113    78    79    2
   114    88    89    1
   115    91    90    2
   116    14    10   am
   117    13    12    1
   118   124   122   ar
   119   119   118    1
   120   119   120   ar
   121   118   115    1
   122   113   111   ar
   123    72    73    1
   124    73    74    1
   125    90    89    1
   126    90    93   am
   127   122   120   ar
   128    97    98    1
   129    97    94    1
   130    10    11    2
   131    10     9    1
   132    89    92    1
   133    20    21    1
   134    30    28    1
   135    21    22    1
   136    21    24    1
   137    12     9    1
   138   116   115    1
   139   116   117    2
   140    29    28    1
   141    28    27    2
   142   111   112   ar
   143   111   110    1
   144    25    24    1
   145    25    26    1
   146   115   114    1
   147    94    93    1
   148    94    95    1
   149     9     8    1
   150    27    26    1
   151    22    23    2
   152    74    75    1
   153   110   109    1
   154    95    99   am
   155    95    96    2
   156    99   100    1
   157     8     3   am
   158   104   103    1
   159     4     3    2
   160   109   106    1
   161     3     2    1
   162   103   100    1
   163   105   106    1
   164   105   101   am
   165   100   101    1
   166   106   107    1
   167    36    35    1
   168   101   102    2
   169     2     5    1
   170     2     1    1
   171   107   108    2
   172     5     6    1
   173     5     7    1
   174    35    37    1
   175    35    32    1
   176    31    32    1
   177    32    33    1
   178    33    34    2
