@<TRIPOS>MOLECULE
tmp/5kofC00.pdb
 155 152 0 0 0
SMALL
GASTEIGER

@<TRIPOS>ATOM
      1  N         -6.5470  -12.0710    9.3290 N.3   163  ALA163     -0.1231
      2  CA        -7.3560  -11.7870    8.1450 C.3   163  ALA163      0.1694
      3  C         -8.6640  -12.5680    8.2490 C.2   163  ALA163      0.2592
      4  O         -9.3220  -12.5620    9.2900 O.2   163  ALA163     -0.2718
      5  CB        -6.6270  -12.1530    6.8530 C.3   163  ALA163      0.0304
      6  N         -9.0290  -13.2490    7.1700 N.am  164  CYS164     -0.1970
      7  CA       -10.3010  -13.9600    7.1080 C.3   164  CYS164      0.1712
      8  C        -10.3750  -15.2170    7.9840 C.2   164  CYS164      0.2296
      9  O        -11.3770  -15.9310    7.9720 O.2   164  CYS164     -0.2864
     10  CB       -10.6040  -14.3210    5.6520 C.3   164  CYS164      0.0983
     11  SG       -10.4780  -12.9420    4.4780 S.3   164  CYS164     -0.0798
     12  N        -10.1580   -4.0590   -1.1910 N.3   202  PHE202     -0.1241
     13  CA       -10.3020   -5.4120   -1.7150 C.3   202  PHE202      0.1605
     14  C        -10.6460   -5.3580   -3.1940 C.2   202  PHE202      0.2264
     15  O        -10.2400   -6.2220   -3.9720 O.2   202  PHE202     -0.2867
     16  CB       -11.3840   -6.1850   -0.9570 C.3   202  PHE202      0.0534
     17  CG       -10.9120   -6.7850    0.3370 C.ar  202  PHE202     -0.0203
     18  CD1      -10.2690   -8.0130    0.3540 C.ar  202  PHE202     -0.0042
     19  CD2      -11.1310   -6.1300    1.5390 C.ar  202  PHE202     -0.0042
     20  CE1       -9.8390   -8.5690    1.5470 C.ar  202  PHE202     -0.0003
     21  CE2      -10.7060   -6.6820    2.7330 C.ar  202  PHE202     -0.0003
     22  CZ       -10.0590   -7.9040    2.7360 C.ar  202  PHE202     -0.0000
     23  N         -7.8710   -4.9750   -5.5820 N.3   205  MET205     -0.1230
     24  CA        -7.1620   -6.2390   -5.7540 C.3   205  MET205      0.1702
     25  C         -7.8030   -7.1010   -6.8320 C.2   205  MET205      0.2593
     26  O         -7.1530   -7.9710   -7.4100 O.2   205  MET205     -0.2718
     27  CB        -7.1340   -7.0260   -4.4430 C.3   205  MET205      0.0401
     28  CG        -6.0690   -6.6030   -3.4600 C.3   205  MET205      0.0596
     29  SD        -6.2050   -7.5820   -1.9570 S.3   205  MET205     -0.1393
     30  CE        -4.9000   -8.7680   -2.2410 C.3   205  MET205      0.0692
     31  N         -9.0820   -6.8540   -7.0970 N.am  206  GLY206     -0.1942
     32  CA        -9.8420   -7.6800   -8.0150 C.3   206  GLY206      0.2014
     33  C        -10.4370   -8.8680   -7.2860 C.2   206  GLY206      0.2638
     34  O        -10.7540   -9.8880   -7.8960 O.2   206  GLY206     -0.2714
     35  N        -10.5820   -8.7360   -5.9700 N.am  207  ALA207     -0.1977
     36  CA       -11.0590   -9.8340   -5.1330 C.3   207  ALA207      0.1597
     37  C        -12.5820   -9.8840   -5.0120 C.2   207  ALA207      0.2287
     38  O        -13.1410  -10.9020   -4.6060 O.2   207  ALA207     -0.2864
     39  CB       -10.4310   -9.7420   -3.7470 C.3   207  ALA207      0.0319
     40  N        -15.5480  -12.6060   -4.0950 N.3   230  PHE230     -0.1241
     41  CA       -16.4310  -12.6940   -2.9370 C.3   230  PHE230      0.1605
     42  C        -17.2090  -11.4080   -2.6930 C.2   230  PHE230      0.2264
     43  O        -16.8280  -10.3340   -3.1580 O.2   230  PHE230     -0.2867
     44  CB       -15.6380  -13.1010   -1.6780 C.3   230  PHE230      0.0534
     45  CG       -14.7470  -12.0260   -1.1030 C.ar  230  PHE230     -0.0203
     46  CD1      -15.2430  -11.0880   -0.2090 C.ar  230  PHE230     -0.0042
     47  CD2      -13.3980  -11.9900   -1.4210 C.ar  230  PHE230     -0.0042
     48  CE1      -14.4140  -10.1240    0.3400 C.ar  230  PHE230     -0.0003
     49  CE2      -12.5650  -11.0240   -0.8810 C.ar  230  PHE230     -0.0003
     50  CZ       -13.0750  -10.0900    0.0000 C.ar  230  PHE230     -0.0000
     51  N         -1.3610  -14.1050   -1.3100 N.3   271  VAL271     -0.1231
     52  CA        -2.7990  -13.9720   -1.4990 C.3   271  VAL271      0.1692
     53  C         -3.4550  -15.2040   -2.1210 C.2   271  VAL271      0.2592
     54  O         -4.6800  -15.3400   -2.0990 O.2   271  VAL271     -0.2718
     55  CB        -3.1030  -12.7460   -2.3660 C.3   271  VAL271      0.0266
     56  CG1       -2.7200  -11.4790   -1.6270 C.3   271  VAL271      0.0020
     57  CG2       -2.3440  -12.8440   -3.6770 C.3   271  VAL271      0.0020
     58  N         -2.6420  -16.1010   -2.6690 N.am  272  ALA272     -0.1966
     59  CA        -3.1620  -17.3310   -3.2480 C.3   272  ALA272      0.1713
     60  C         -2.8030  -18.5110   -2.3550 C.2   272  ALA272      0.2458
     61  O         -1.6440  -18.6840   -1.9820 O.2   272  ALA272     -0.2730
     62  CB        -2.6160  -17.5340   -4.6500 C.3   272  ALA272      0.0333
     63  N         -3.8040  -19.3290   -2.0070 N.am  273  PRO273     -0.2727
     64  CA        -3.5720  -20.4720   -1.1200 C.3   273  PRO273      0.1402
     65  C         -2.8030  -21.6100   -1.7780 C.2   273  PRO273      0.2269
     66  O         -2.8400  -21.7670   -2.9990 O.2   273  PRO273     -0.2865
     67  CB        -4.9920  -20.9280   -0.7680 C.3   273  PRO273      0.0296
     68  CG        -5.8110  -20.4900   -1.9360 C.3   273  PRO273      0.0237
     69  CD        -5.2280  -19.1730   -2.3430 C.3   273  PRO273      0.0939
     70  N        -14.6040  -22.9710    3.5240 N.3   299  HIS299     -0.1241
     71  CA       -14.3040  -21.5510    3.4840 C.3   299  HIS299      0.1621
     72  C        -14.9580  -20.9530    2.2460 C.2   299  HIS299      0.2264
     73  O        -15.7110  -19.9930    2.3580 O.2   299  HIS299     -0.2867
     74  CB       -12.7950  -21.3050    3.4890 C.3   299  HIS299      0.0745
     75  CG       -12.4190  -19.8650    3.6550 C.ar  299  HIS299      0.0817
     76  ND1      -12.7560  -19.1340    4.7740 N.ar  299  HIS299     -0.2268
     77  CD2      -11.7250  -19.0250    2.8520 C.ar  299  HIS299      0.1154
     78  CE1      -12.2950  -17.9020    4.6480 C.ar  299  HIS299      0.1986
     79  NE2      -11.6650  -17.8100    3.4910 N.ar  299  HIS299     -0.2212
     80  N        -14.9980  -18.8910   -0.5500 N.3   301  THR301     -0.1218
     81  CA       -15.4080  -17.5070   -0.7600 C.3   301  THR301      0.1862
     82  C        -16.0620  -17.0420   -2.0570 C.2   301  THR301      0.2287
     83  O        -16.4910  -15.8970   -2.1470 O.2   301  THR301     -0.2866
     84  CB       -14.1590  -16.6390   -0.5040 C.3   301  THR301      0.1770
     85  OG1      -13.1920  -16.8810   -1.5310 O.3   301  THR301     -0.2211
     86  CG2      -13.5450  -16.9700    0.8410 C.3   301  THR301      0.0375
     87  N        -14.3400  -17.1240   -5.0330 N.3   303  THR303     -0.1204
     88  CA       -13.3050  -16.6210   -5.9300 C.3   303  THR303      0.1979
     89  C        -12.9060  -17.7250   -6.9030 C.2   303  THR303      0.2460
     90  O        -12.9840  -18.9050   -6.5600 O.2   303  THR303     -0.2732
     91  CB       -12.0530  -16.1350   -5.1600 C.3   303  THR303      0.1783
     92  OG1      -11.4750  -17.2280   -4.4380 O.3   303  THR303     -0.2211
     93  CG2      -12.4060  -15.0180   -4.1920 C.3   303  THR303      0.0376
     94  N        -12.4880  -17.3500   -8.1210 N.am  304  PRO304     -0.2717
     95  CA       -12.0590  -18.3530   -9.1010 C.3   304  PRO304      0.1535
     96  C        -10.8680  -19.1560   -8.5870 C.2   304  PRO304      0.2598
     97  O        -10.8290  -20.3800   -8.7230 O.2   304  PRO304     -0.2715
     98  CB       -11.6690  -17.5100  -10.3170 C.3   304  PRO304      0.0310
     99  CG       -12.4770  -16.2650  -10.1790 C.3   304  PRO304      0.0237
    100  CD       -12.5290  -15.9970   -8.7030 C.3   304  PRO304      0.0939
    101  N         -9.9080  -18.4550   -7.9950 N.am  305  VAL305     -0.1964
    102  CA        -8.6710  -19.0650   -7.5270 C.3   305  VAL305      0.1727
    103  C         -8.8750  -19.9070   -6.2650 C.2   305  VAL305      0.2616
    104  O         -8.3360  -21.0080   -6.1510 O.2   305  VAL305     -0.2715
    105  CB        -7.6010  -17.9820   -7.2510 C.3   305  VAL305      0.0290
    106  CG1       -6.4220  -18.5590   -6.4770 C.3   305  VAL305      0.0023
    107  CG2       -7.1420  -17.3400   -8.5570 C.3   305  VAL305      0.0023
    108  N         -9.6670  -19.3920   -5.3280 N.am  306  GLY306     -0.1955
    109  CA        -9.7760  -19.9870   -4.0060 C.3   306  GLY306      0.1869
    110  C        -10.6150  -21.2450   -3.8520 C.2   306  GLY306      0.2309
    111  O        -10.2420  -22.1440   -3.0980 O.2   306  GLY306     -0.2863
    112  N        -18.9950  -12.5580    2.6330 N.3   334  HIS334     -0.1241
    113  CA       -17.7570  -12.8130    3.3590 C.3   334  HIS334      0.1621
    114  C        -17.5520  -11.8020    4.4860 C.2   334  HIS334      0.2264
    115  O        -17.2960  -10.6230    4.2420 O.2   334  HIS334     -0.2867
    116  CB       -16.5690  -12.7880    2.3960 C.3   334  HIS334      0.0745
    117  CG       -15.3230  -13.4080    2.9490 C.ar  334  HIS334      0.0817
    118  ND1      -15.1610  -13.6930    4.2870 N.ar  334  HIS334     -0.2268
    119  CD2      -14.1780  -13.7970    2.3400 C.ar  334  HIS334      0.1154
    120  CE1      -13.9700  -14.2310    4.4800 C.ar  334  HIS334      0.1986
    121  NE2      -13.3530  -14.3050    3.3140 N.ar  334  HIS334     -0.2212
    122  N        -15.1960  -11.5900    6.5820 N.3   336  LEU336     -0.1245
    123  CA       -13.7850  -11.3530    6.8850 C.3   336  LEU336      0.1561
    124  C        -13.4730  -11.9140    8.2720 C.2   336  LEU336      0.2260
    125  O        -13.6280  -13.1090    8.5100 O.2   336  LEU336     -0.2867
    126  CB       -13.4540   -9.8570    6.8170 C.3   336  LEU336      0.0270
    127  CG       -13.7290   -9.1800    5.4700 C.3   336  LEU336      0.0019
    128  CD1      -13.2560   -7.7340    5.4780 C.3   336  LEU336      0.0001
    129  CD2      -13.0830   -9.9500    4.3270 C.3   336  LEU336      0.0001
    130  N         -9.5240  -19.5670    6.0600 N.3   391  PHE391     -0.1227
    131  CA        -8.2150  -19.2360    5.5160 C.3   391  PHE391      0.1736
    132  C         -8.1080  -17.7290    5.3450 C.2   391  PHE391      0.2596
    133  O         -9.1140  -17.0490    5.1600 O.2   391  PHE391     -0.2718
    134  CB        -7.9910  -19.9380    4.1750 C.3   391  PHE391      0.0547
    135  CG        -8.3360  -21.4000    4.1890 C.ar  391  PHE391     -0.0202
    136  CD1       -7.8840  -22.2300    5.2040 C.ar  391  PHE391     -0.0042
    137  CD2       -9.1180  -21.9460    3.1830 C.ar  391  PHE391     -0.0042
    138  CE1       -8.2050  -23.5780    5.2140 C.ar  391  PHE391     -0.0003
    139  CE2       -9.4420  -23.2910    3.1890 C.ar  391  PHE391     -0.0003
    140  CZ        -8.9840  -24.1070    4.2050 C.ar  391  PHE391     -0.0000
    141  N         -6.8900  -17.2060    5.4090 N.am  392  GLY392     -0.1942
    142  CA        -6.6810  -15.7750    5.3070 C.3   392  GLY392      0.2014
    143  C         -5.4700  -15.4360    4.4660 C.2   392  GLY392      0.2638
    144  O         -4.6770  -16.3150    4.1260 O.2   392  GLY392     -0.2714
    145  N         -5.3360  -14.1590    4.1200 N.am  393  PHE393     -0.1973
    146  CA        -4.1760  -13.6870    3.3790 C.3   393  PHE393      0.1639
    147  C         -2.9150  -13.9330    4.1970 C.2   393  PHE393      0.2290
    148  O         -2.9690  -14.0050    5.4240 O.2   393  PHE393     -0.2864
    149  CB        -4.3240  -12.2030    3.0390 C.3   393  PHE393      0.0560
    150  CG        -5.3400  -11.9280    1.9640 C.ar  393  PHE393     -0.0200
    151  CD1       -5.6800  -12.9100    1.0450 C.ar  393  PHE393     -0.0042
    152  CD2       -5.9630  -10.6940    1.8790 C.ar  393  PHE393     -0.0042
    153  CE1       -6.6160  -12.6610    0.0530 C.ar  393  PHE393     -0.0003
    154  CE2       -6.9010  -10.4400    0.8900 C.ar  393  PHE393     -0.0003
    155  CZ        -7.2280  -11.4240   -0.0230 C.ar  393  PHE393     -0.0000
@<TRIPOS>BOND
     1    98    99    1
     2    98    95    1
     3    99   100    1
     4    95    96    1
     5    95    94    1
     6    97    96    2
     7   100    94    1
     8    96   101   am
     9   107   105    1
    10    94    89   am
    11    32    33    1
    12    32    31    1
    13   101   102    1
    14    34    33    2
    15   102   105    1
    16   102   103    1
    17    26    25    2
    18    33    35   am
    19   105   106    1
    20    31    25   am
    21    89    90    2
    22    89    88    1
    23    25    24    1
    24   103   104    2
    25   103   108   am
    26    35    36    1
    27    88    91    1
    28    88    87    1
    29    24    23    1
    30    24    27    1
    31   108   109    1
    32    91    92    1
    33    91    93    1
    34    36    37    1
    35    36    39    1
    36    37    38    2
    37    62    59    1
    38    27    28    1
    39    40    41    1
    40   109   110    1
    41    15    14    2
    42   110   111    2
    43    57    55    1
    44    28    29    1
    45    59    58    1
    46    59    60    1
    47    14    13    1
    48    43    42    2
    49    66    65    2
    50    41    42    1
    51    41    44    1
    52    58    53   am
    53    55    56    1
    54    55    52    1
    55    60    63   am
    56    60    61    2
    57    69    63    1
    58    69    68    1
    59    30    29    1
    60    83    82    2
    61    53    54    2
    62    53    52    1
    63    82    81    1
    64    63    64    1
    65    68    67    1
    66    65    64    1
    67    13    12    1
    68    13    16    1
    69    44    45    1
    70    85    84    1
    71    52    51    1
    72    47    45   ar
    73    47    49   ar
    74    64    67    1
    75    45    46   ar
    76    16    17    1
    77    49    50   ar
    78    81    80    1
    79    81    84    1
    80    84    86    1
    81    46    48   ar
    82   155   153   ar
    83   155   154   ar
    84    50    48   ar
    85   153   151   ar
    86    17    18   ar
    87    17    19   ar
    88    18    20   ar
    89   154   152   ar
    90   151   150   ar
    91    19    21   ar
    92    20    22   ar
    93   152   150   ar
    94   150   149    1
    95    72    73    2
    96    72    71    1
    97   119   117   ar
    98   119   121   ar
    99   116   117    1
   100   116   113    1
   101   112   113    1
   102    21    22   ar
   103    77    79   ar
   104    77    75   ar
   105   117   118   ar
   106   149   146    1
   107   137   139   ar
   108   137   135   ar
   109   139   140   ar
   110   121   120   ar
   111   113   114    1
   112   146   145    1
   113   146   147    1
   114    71    74    1
   115    71    70    1
   116    74    75    1
   117    79    78   ar
   118    75    76   ar
   119   145   143   am
   120   144   143    2
   121   134   135    1
   122   134   131    1
   123   135   136   ar
   124   147   148    2
   125   140   138   ar
   126   115   114    2
   127   118   120   ar
   128   129   127    1
   129   143   142    1
   130    11    10    1
   131    78    76   ar
   132   133   132    2
   133   136   138   ar
   134   142   141    1
   135   132   141   am
   136   132   131    1
   137   127   128    1
   138   127   126    1
   139   131   130    1
   140    10     7    1
   141   122   123    1
   142   126   123    1
   143     5     2    1
   144   123   124    1
   145     7     6    1
   146     7     8    1
   147     6     3   am
   148     9     8    2
   149     2     3    1
   150     2     1    1
   151     3     4    2
   152   124   125    2
