@<TRIPOS>MOLECULE
tmp/5kohA00.pdb
 132 124 0 0 0
SMALL
GASTEIGER

@<TRIPOS>ATOM
      1  N        100.0920  159.5470   79.0840 N.3    62  ILE62      -0.1245
      2  CA       100.4250  158.6170   78.0150 C.3    62  ILE62       0.1561
      3  C         99.6520  157.3100   78.2140 C.2    62  ILE62       0.2260
      4  O         99.5470  156.4850   77.3200 O.2    62  ILE62      -0.2867
      5  CB       101.9510  158.4710   78.0220 C.3    62  ILE62       0.0252
      6  CG1      102.5470  159.8320   77.6340 C.3    62  ILE62       0.0019
      7  CG2      102.4600  157.3580   77.1210 C.3    62  ILE62       0.0019
      8  CD1      104.0450  160.0690   77.8800 C.3    62  ILE62       0.0001
      9  N         96.9490  154.2740   78.8670 N.3    64  GLY64      -0.1225
     10  CA        95.7790  153.6980   78.2600 C.3    64  GLY64       0.1811
     11  C         94.8140  153.2200   79.4000 C.2    64  GLY64       0.2280
     12  O         94.7680  153.7960   80.5000 O.2    64  GLY64      -0.2866
     13  N         92.6830  148.0970   77.0640 N.3    68  ALA68      -0.1245
     14  CA        93.9910  147.8540   76.4450 C.3    68  ALA68       0.1562
     15  C         94.7820  146.7830   77.1730 C.2    68  ALA68       0.2260
     16  O         95.3930  145.9200   76.5820 O.2    68  ALA68      -0.2867
     17  CB        94.7810  149.1500   76.4010 C.3    68  ALA68       0.0290
     18  N         93.9950  144.2490   74.5390 N.3    72  GLY72      -0.1210
     19  CA        95.2230  144.6090   73.7920 C.3    72  GLY72       0.1956
     20  C         96.4360  143.7940   74.1830 C.2    72  GLY72       0.2611
     21  O         97.1970  143.4040   73.3300 O.2    72  GLY72      -0.2717
     22  N         96.5780  143.5000   75.4750 N.am   73  VAL73      -0.1979
     23  CA        97.7470  142.8790   76.0320 C.3    73  VAL73       0.1595
     24  C         97.6400  141.3790   76.2880 C.2    73  VAL73       0.2287
     25  O         98.4040  140.5830   75.7190 O.2    73  VAL73      -0.2864
     26  CB        98.1850  143.6760   77.2600 C.3    73  VAL73       0.0276
     27  CG1       99.3000  142.9750   78.0370 C.3    73  VAL73       0.0022
     28  CG2       98.5860  145.0590   76.8400 C.3    73  VAL73       0.0022
     29  N         97.7990  146.6000   66.1440 N.3    98  GLN98      -0.1231
     30  CA        98.8250  147.6250   66.3840 C.3    98  GLN98       0.1698
     31  C         99.9000  147.1090   67.3560 C.2    98  GLN98       0.2592
     32  O        101.0190  147.6540   67.3840 O.2    98  GLN98      -0.2718
     33  CB        98.2100  148.8800   66.9060 C.3    98  GLN98       0.0381
     34  CG        97.2870  149.5290   65.8780 C.3    98  GLN98       0.0905
     35  CD        98.0290  150.1220   64.6840 C.2    98  GLN98       0.2608
     36  OE1       99.2650  150.1260   64.6080 O.2    98  GLN98      -0.2717
     37  NE2       97.2800  150.6480   63.7540 N.am   98  GLN98      -0.0878
     38  N         99.5590  146.1290   68.1500 N.am   99  ARG99      -0.1980
     39  CA       100.5200  145.4670   68.9980 C.3    99  ARG99       0.1597
     40  C        101.0610  144.2230   68.2860 C.2    99  ARG99       0.2287
     41  O        100.2540  143.3530   67.8340 O.2    99  ARG99      -0.2864
     42  CB        99.8960  145.0800   70.3350 C.3    99  ARG99       0.0334
     43  CG       100.9900  144.3730   71.1860 C.3    99  ARG99       0.0492
     44  CD       100.5420  144.4720   72.5270 C.3    99  ARG99       0.2205
     45  NE       101.2730  143.7990   73.5890 N.pl3  99  ARG99      -0.0865
     46  CZ       100.9030  142.6960   74.2040 C.cat  99  ARG99       0.5346
     47  NH1      100.0900  141.8140   73.6310 N.pl3  99  ARG99       0.1354
     48  NH2      101.4460  142.4720   75.3850 N.pl3  99  ARG99       0.1354
     49  N         96.2880  150.6620   82.0840 N.3   194  GLN194     -0.1245
     50  CA        96.2840  149.2830   81.5810 C.3   194  GLN194      0.1566
     51  C         96.3840  148.2470   82.7080 C.2   194  GLN194      0.2260
     52  O         95.9660  147.1200   82.5300 O.2   194  GLN194     -0.2867
     53  CB        97.4520  149.0510   80.6460 C.3   194  GLN194      0.0367
     54  CG        97.4160  149.8830   79.3520 C.3   194  GLN194      0.0905
     55  CD        98.1520  151.1940   79.4370 C.2   194  GLN194      0.2608
     56  OE1       97.9530  151.9800   80.3450 O.2   194  GLN194     -0.2717
     57  NE2       98.9690  151.5020   78.3890 N.am  194  GLN194     -0.0878
     58  N        104.5200  154.0630   82.8220 N.3   383  GLU383     -0.1231
     59  CA       103.1240  154.5040   82.7220 C.3   383  GLU383      0.1699
     60  C        102.2800  154.0110   83.8990 C.2   383  GLU383      0.2592
     61  O        101.4850  154.7720   84.4460 O.2   383  GLU383     -0.2718
     62  CB       102.5060  153.9720   81.4720 C.3   383  GLU383      0.0402
     63  CG       103.0050  154.5630   80.1840 C.3   383  GLU383      0.1161
     64  CD       102.3090  153.9770   78.9500 C.2   383  GLU383      0.3649
     65  OE1      101.0660  153.6940   79.0110 O.co2 383  GLU383     -0.2457
     66  OE2      103.0130  153.8590   77.8700 O.co2 383  GLU383     -0.2457
     67  N        102.4610  152.7430   84.2640 N.am  384  PHE384     -0.1976
     68  CA       101.5320  152.0260   85.1580 C.3   384  PHE384      0.1639
     69  C        102.1660  151.0370   86.0990 C.2   384  PHE384      0.2290
     70  O        101.4980  150.1780   86.6520 O.2   384  PHE384     -0.2864
     71  CB       100.3430  151.4220   84.3730 C.3   384  PHE384      0.0560
     72  CG       100.7560  150.5520   83.2620 C.ar  384  PHE384     -0.0200
     73  CD1      100.7230  151.0230   81.9490 C.ar  384  PHE384     -0.0042
     74  CD2      101.3020  149.2970   83.5120 C.ar  384  PHE384     -0.0042
     75  CE1      101.1710  150.2360   80.9130 C.ar  384  PHE384     -0.0003
     76  CE2      101.8070  148.5430   82.4750 C.ar  384  PHE384     -0.0003
     77  CZ       101.7060  148.9920   81.1780 C.ar  384  PHE384     -0.0000
     78  N        107.2340  155.3900   73.4060 N.3   427  GLY427     -0.1210
     79  CA       106.1700  154.9260   72.5090 C.3   427  GLY427      0.1956
     80  C        105.8730  155.8240   71.3250 C.2   427  GLY427      0.2612
     81  O        106.4940  156.8650   71.1080 O.2   427  GLY427     -0.2717
     82  N        104.8430  155.4250   70.6100 N.am  428  ILE428     -0.1965
     83  CA       104.4610  156.1010   69.3480 C.3   428  ILE428      0.1727
     84  C        103.9920  157.5230   69.5460 C.2   428  ILE428      0.2616
     85  O        104.2270  158.3720   68.6810 O.2   428  ILE428     -0.2715
     86  CB       103.3990  155.2440   68.5970 C.3   428  ILE428      0.0290
     87  CG1      103.1860  155.7230   67.1800 C.3   428  ILE428      0.0022
     88  CG2      102.0630  155.2210   69.3380 C.3   428  ILE428      0.0023
     89  CD1      104.4070  155.6270   66.3130 C.3   428  ILE428      0.0001
     90  N        103.3790  157.8210   70.6920 N.am  429  LYS429     -0.1963
     91  CA       102.9010  159.1640   70.9890 C.3   429  LYS429      0.1728
     92  C        104.0620  160.0810   71.3420 C.2   429  LYS429      0.2616
     93  O        103.9040  161.3210   71.2910 O.2   429  LYS429     -0.2715
     94  CB       101.8200  159.1930   72.0730 C.3   429  LYS429      0.0311
     95  CG       100.6050  158.3340   71.6950 C.3   429  LYS429      0.0038
     96  CD        99.4870  158.4980   72.6850 C.3   429  LYS429      0.0206
     97  CE        99.8080  158.0930   74.0990 C.3   429  LYS429      0.1093
     98  NZ       100.3500  156.7340   74.3270 N.3   429  LYS429     -0.1314
     99  N        105.2040  159.5040   71.6970 N.am  430  GLU430     -0.1977
    100  CA       106.3960  160.2490   72.0680 C.3   430  GLU430      0.1602
    101  C        107.4080  160.4350   70.9200 C.2   430  GLU430      0.2287
    102  O        108.2480  161.3820   70.9590 O.2   430  GLU430     -0.2864
    103  CB       107.0640  159.5680   73.2460 C.3   430  GLU430      0.0415
    104  CG       106.2470  159.4360   74.5600 C.3   430  GLU430      0.1163
    105  CD       105.0320  158.5010   74.4470 C.2   430  GLU430      0.3649
    106  OE1      105.1750  157.2490   74.2250 O.co2 430  GLU430     -0.2457
    107  OE2      103.8650  159.0400   74.6040 O.co2 430  GLU430     -0.2457
    108  N        111.3520  153.2510   69.2460 N.3   443  GLN443     -0.1245
    109  CA       110.1630  152.7250   69.9360 C.3   443  GLN443      0.1566
    110  C        110.5050  151.5100   70.7780 C.2   443  GLN443      0.2260
    111  O        111.0820  150.5310   70.2790 O.2   443  GLN443     -0.2867
    112  CB       109.0740  152.3670   68.9610 C.3   443  GLN443      0.0367
    113  CG       108.4460  153.5850   68.3060 C.3   443  GLN443      0.0905
    114  CD       107.2540  153.1900   67.4300 C.2   443  GLN443      0.2608
    115  OE1      106.2200  152.7240   67.9300 O.2   443  GLN443     -0.2717
    116  NE2      107.3970  153.3480   66.1360 N.am  443  GLN443     -0.0878
    117  N        108.0890  149.9090   72.6090 N.3   445  HIS445     -0.1226
    118  CA       106.9710  148.9850   72.6370 C.3   445  HIS445      0.1752
    119  C        106.9400  148.1190   71.3730 C.2   445  HIS445      0.2596
    120  O        107.1070  146.9170   71.4410 O.2   445  HIS445     -0.2718
    121  CB       105.5980  149.7020   72.7430 C.3   445  HIS445      0.0759
    122  CG       105.4140  150.6280   73.8950 C.ar  445  HIS445      0.0818
    123  ND1      104.4970  150.4130   74.9110 N.ar  445  HIS445     -0.2268
    124  CD2      105.9100  151.8440   74.1220 C.ar  445  HIS445      0.1154
    125  CE1      104.4520  151.4700   75.7020 C.ar  445  HIS445      0.1986
    126  NE2      105.2660  152.3710   75.2000 N.ar  445  HIS445     -0.2212
    127  N        106.7590  148.7350   70.2160 N.am  446  SER446     -0.1952
    128  CA       106.6990  148.0400   68.9320 C.3   446  SER446      0.1924
    129  C        108.0450  147.6540   68.3750 C.2   446  SER446      0.2314
    130  O        108.1060  147.1200   67.2690 O.2   446  SER446     -0.2863
    131  CB       106.0550  148.9670   67.9150 C.3   446  SER446      0.2116
    132  OG       106.8720  150.1030   67.6600 O.3   446  SER446     -0.2180
@<TRIPOS>BOND
     1    37    35   am
     2    36    35    2
     3    35    34    1
     4    34    33    1
     5   116   114   am
     6    29    30    1
     7    89    87    1
     8    30    33    1
     9    30    31    1
    10    87    86    1
    11   130   129    2
    12    31    32    2
    13    31    38   am
    14   114   115    2
    15   114   113    1
    16   132   131    1
    17    41    40    2
    18   131   128    1
    19    38    39    1
    20    40    39    1
    21   113   112    1
    22   129   128    1
    23    86    88    1
    24    86    83    1
    25    85    84    2
    26   128   127    1
    27   112   109    1
    28    39    42    1
    29   108   109    1
    30    83    84    1
    31    83    82    1
    32    84    90   am
    33   109   110    1
    34   127   119   am
    35   111   110    2
    36    42    43    1
    37    82    80   am
    38    90    91    1
    39   101   102    2
    40   101   100    1
    41    91    92    1
    42    91    94    1
    43    81    80    2
    44    43    44    1
    45    93    92    2
    46    80    79    1
    47    92    99   am
    48   119   120    2
    49   119   118    1
    50    95    94    1
    51    95    96    1
    52    99   100    1
    53   100   103    1
    54    79    78    1
    55    44    45    1
    56   117   118    1
    57   118   121    1
    58    96    97    1
    59   121   122    1
    60   103   104    1
    61    21    20    2
    62    45    46    2
    63    47    46    1
    64    19    20    1
    65    19    18    1
    66   122   124   ar
    67   122   123   ar
    68    97    98    1
    69   124   126   ar
    70    20    22   am
    71    46    48    1
    72   106   105   ar
    73   105   104    1
    74   105   107   ar
    75   123   125   ar
    76   126   125   ar
    77    22    23    1
    78    25    24    2
    79    23    24    1
    80    23    26    1
    81    17    14    1
    82    14    13    1
    83    14    15    1
    84    16    15    2
    85    28    26    1
    86     7     5    1
    87    26    27    1
    88     4     3    2
    89     6     8    1
    90     6     5    1
    91    66    64   ar
    92     2     5    1
    93     2     3    1
    94     2     1    1
    95    10     9    1
    96    10    11    1
    97    57    55   am
    98    64    65   ar
    99    64    63    1
   100    54    55    1
   101    54    53    1
   102    11    12    2
   103    55    56    2
   104    63    62    1
   105    53    50    1
   106    75    77   ar
   107    75    73   ar
   108    77    76   ar
   109    62    59    1
   110    50    49    1
   111    50    51    1
   112    73    72   ar
   113    76    74   ar
   114    52    51    2
   115    59    58    1
   116    59    60    1
   117    72    74   ar
   118    72    71    1
   119    60    67   am
   120    60    61    2
   121    67    68    1
   122    71    68    1
   123    68    69    1
   124    69    70    2
