@<TRIPOS>MOLECULE
tmp/5kohA01.pdb
 85 78 0 0 0
SMALL
GASTEIGER

@<TRIPOS>ATOM
      1  N         97.6300  165.4150   79.7710 N.3    60  MET60      -0.1245
      2  CA        98.2640  164.6520   78.6800 C.3    60  MET60       0.1570
      3  C         99.0840  163.4810   79.1710 C.2    60  MET60       0.2261
      4  O        100.2610  163.3350   78.8230 O.2    60  MET60      -0.2867
      5  CB        99.0370  165.5550   77.6920 C.3    60  MET60       0.0387
      6  CG        98.9260  165.0410   76.2800 C.3    60  MET60       0.0595
      7  SD        99.8450  166.0130   75.0340 S.3    60  MET60      -0.1393
      8  CE        98.9920  167.5720   75.0500 C.3    60  MET60       0.0692
      9  N        100.0920  159.5470   79.0840 N.3    62  ILE62      -0.1245
     10  CA       100.4250  158.6170   78.0150 C.3    62  ILE62       0.1561
     11  C         99.6520  157.3100   78.2140 C.2    62  ILE62       0.2260
     12  O         99.5470  156.4850   77.3200 O.2    62  ILE62      -0.2867
     13  CB       101.9510  158.4710   78.0220 C.3    62  ILE62       0.0252
     14  CG1      102.5470  159.8320   77.6340 C.3    62  ILE62       0.0019
     15  CG2      102.4600  157.3580   77.1210 C.3    62  ILE62       0.0019
     16  CD1      104.0450  160.0690   77.8800 C.3    62  ILE62       0.0001
     17  N        102.8580  164.8850   79.3000 N.3   409  GLY409     -0.1225
     18  CA       103.5020  165.2930   78.0360 C.3   409  GLY409      0.1811
     19  C        104.4120  166.4980   78.3090 C.2   409  GLY409      0.2280
     20  O        105.5450  166.5520   77.8440 O.2   409  GLY409     -0.2866
     21  N        107.6510  165.3760   80.2590 N.3   412  LEU412     -0.1231
     22  CA       108.5860  164.5890   79.5390 C.3   412  LEU412      0.1693
     23  C        109.2570  165.4430   78.4630 C.2   412  LEU412      0.2591
     24  O        110.4540  165.2620   78.2110 O.2   412  LEU412     -0.2718
     25  CB       107.9110  163.3320   78.9690 C.3   412  LEU412      0.0284
     26  CG       108.8850  162.3220   78.2920 C.3   412  LEU412      0.0019
     27  CD1      109.9930  161.8990   79.2340 C.3   412  LEU412      0.0001
     28  CD2      108.0540  161.1250   77.8000 C.3   412  LEU412      0.0001
     29  N        108.5150  166.3370   77.8270 N.am  413  GLU413     -0.1979
     30  CA       109.0940  167.2610   76.8470 C.3   413  GLU413      0.1602
     31  C        110.1770  168.0810   77.4760 C.2   413  GLU413      0.2287
     32  O        111.2730  168.2270   76.9370 O.2   413  GLU413     -0.2864
     33  CB       108.0250  168.1800   76.2450 C.3   413  GLU413      0.0415
     34  CG       108.6660  169.1480   75.2400 C.3   413  GLU413      0.1163
     35  CD       107.7260  170.1510   74.5830 C.2   413  GLU413      0.3649
     36  OE1      106.4920  170.0040   74.6940 O.co2 413  GLU413     -0.2457
     37  OE2      108.2610  171.0710   73.9060 O.co2 413  GLU413     -0.2457
     38  N        113.2980  165.9420   78.4230 N.3   416  ILE416     -0.1245
     39  CA       114.0750  165.6320   77.2240 C.3   416  ILE416      0.1561
     40  C        114.8150  166.8460   76.6800 C.2   416  ILE416      0.2260
     41  O        115.9900  166.7220   76.3360 O.2   416  ILE416     -0.2867
     42  CB       113.2020  164.9740   76.1530 C.3   416  ILE416      0.0252
     43  CG1      112.7490  163.6120   76.6480 C.3   416  ILE416      0.0019
     44  CG2      113.9820  164.7740   74.8680 C.3   416  ILE416      0.0019
     45  CD1      111.6570  162.9480   75.8120 C.3   416  ILE416      0.0001
     46  N        103.3790  157.8210   70.6920 N.3   429  LYS429     -0.1231
     47  CA       102.9010  159.1640   70.9890 C.3   429  LYS429      0.1693
     48  C        104.0620  160.0810   71.3420 C.2   429  LYS429      0.2591
     49  O        103.9040  161.3210   71.2910 O.2   429  LYS429     -0.2718
     50  CB       101.8200  159.1930   72.0730 C.3   429  LYS429      0.0285
     51  CG       100.6050  158.3340   71.6950 C.3   429  LYS429      0.0035
     52  CD        99.4870  158.4980   72.6850 C.3   429  LYS429      0.0206
     53  CE        99.8080  158.0930   74.0990 C.3   429  LYS429      0.1093
     54  NZ       100.3500  156.7340   74.3270 N.3   429  LYS429     -0.1314
     55  N        105.2040  159.5040   71.6970 N.am  430  GLU430     -0.1979
     56  CA       106.3960  160.2490   72.0680 C.3   430  GLU430      0.1602
     57  C        107.4080  160.4350   70.9200 C.2   430  GLU430      0.2287
     58  O        108.2480  161.3820   70.9590 O.2   430  GLU430     -0.2864
     59  CB       107.0640  159.5680   73.2460 C.3   430  GLU430      0.0415
     60  CG       106.2470  159.4360   74.5600 C.3   430  GLU430      0.1163
     61  CD       105.0320  158.5010   74.4470 C.2   430  GLU430      0.3649
     62  OE1      105.1750  157.2490   74.2250 O.co2 430  GLU430     -0.2457
     63  OE2      103.8650  159.0400   74.6040 O.co2 430  GLU430     -0.2457
     64  N        107.6440  164.0730   68.2470 N.3   433  PRO433     -0.2102
     65  CA       108.1780  165.3040   68.8710 C.3   433  PRO433      0.1504
     66  C        109.6680  165.2260   69.1980 C.2   433  PRO433      0.2575
     67  O        110.4110  166.2090   68.9910 O.2   433  PRO433     -0.2718
     68  CB       107.3270  165.4470   70.1390 C.3   433  PRO433      0.0282
     69  CG       106.0360  164.7840   69.7500 C.3   433  PRO433      0.0208
     70  CD       106.4680  163.5650   68.9830 C.3   433  PRO433      0.0893
     71  N        110.1190  164.0760   69.7020 N.am  434  VAL434     -0.1980
     72  CA       111.5220  163.9000   70.0440 C.3   434  VAL434      0.1595
     73  C        112.3980  164.0100   68.8280 C.2   434  VAL434      0.2287
     74  O        113.4030  164.7290   68.8470 O.2   434  VAL434     -0.2864
     75  CB       111.7470  162.5700   70.8070 C.3   434  VAL434      0.0276
     76  CG1      113.2150  162.3500   71.0220 C.3   434  VAL434      0.0022
     77  CG2      111.0110  162.6350   72.1420 C.3   434  VAL434      0.0022
     78  N        112.9710  167.5300   67.6400 N.3   437  MET437     -0.1245
     79  CA       113.9880  168.1810   68.4810 C.3   437  MET437      0.1570
     80  C        115.4140  167.8470   68.0580 C.2   437  MET437      0.2261
     81  O        116.3600  168.3980   68.6290 O.2   437  MET437     -0.2867
     82  CB       113.8110  167.7540   69.9140 C.3   437  MET437      0.0387
     83  CG       112.5020  168.1510   70.5440 C.3   437  MET437      0.0595
     84  SD       112.3850  167.3280   72.2160 S.3   437  MET437     -0.1393
     85  CE       110.6920  167.5570   72.5130 C.3   437  MET437      0.0692
@<TRIPOS>BOND
     1    78    79    1
     2    80    79    1
     3    80    81    2
     4    64    65    1
     5    64    70    1
     6    79    82    1
     7    73    74    2
     8    73    72    1
     9    65    66    1
    10    65    68    1
    11    70    69    1
    12    67    66    2
    13    66    71   am
    14    71    72    1
    15    69    68    1
    16    82    83    1
    17    72    75    1
    18    83    84    1
    19    46    47    1
    20    75    76    1
    21    75    77    1
    22    57    58    2
    23    57    56    1
    24    47    48    1
    25    47    50    1
    26    49    48    2
    27    48    55   am
    28    51    50    1
    29    51    52    1
    30    55    56    1
    31    56    59    1
    32    84    85    1
    33    52    53    1
    34    59    60    1
    35    37    35   ar
    36    53    54    1
    37    62    61   ar
    38    61    60    1
    39    61    63   ar
    40    35    36   ar
    41    35    34    1
    42    44    42    1
    43     7     8    1
    44     7     6    1
    45    34    33    1
    46    45    43    1
    47    42    43    1
    48    42    39    1
    49    33    30    1
    50     6     5    1
    51    41    40    2
    52    40    39    1
    53    30    31    1
    54    30    29    1
    55    32    31    2
    56    15    13    1
    57    39    38    1
    58    12    11    2
    59    14    16    1
    60    14    13    1
    61     5     2    1
    62    28    26    1
    63    29    23   am
    64    20    19    2
    65    10    13    1
    66    10    11    1
    67    10     9    1
    68    18    19    1
    69    18    17    1
    70    24    23    2
    71    26    25    1
    72    26    27    1
    73    23    22    1
    74     2     3    1
    75     2     1    1
    76     4     3    2
    77    25    22    1
    78    22    21    1
