@<TRIPOS>MOLECULE
tmp/5kohA02.pdb
 90 88 0 0 0
SMALL
GASTEIGER

@<TRIPOS>ATOM
      1  N        111.3140  134.9480   88.3170 N.3   299  GLU299     -0.1231
      2  CA       111.4590  136.0570   87.3630 C.3   299  GLU299      0.1699
      3  C        112.7860  135.9080   86.6100 C.2   299  GLU299      0.2592
      4  O        113.8300  135.5190   87.2080 O.2   299  GLU299     -0.2718
      5  CB       111.4830  137.3570   88.1320 C.3   299  GLU299      0.0402
      6  CG       110.1630  137.7430   88.7410 C.3   299  GLU299      0.1161
      7  CD       110.2820  138.8620   89.7840 C.2   299  GLU299      0.3649
      8  OE1      110.6380  139.9960   89.4230 O.co2 299  GLU299     -0.2457
      9  OE2      109.9120  138.6760   90.9710 O.co2 299  GLU299     -0.2457
     10  N        112.7870  136.2230   85.3190 N.am  300  TYR300     -0.1962
     11  CA       113.9980  136.2230   84.5560 C.3   300  TYR300      0.1771
     12  C        113.9510  137.4520   83.5800 C.2   300  TYR300      0.2619
     13  O        113.0090  138.2750   83.5760 O.2   300  TYR300     -0.2715
     14  CB       114.1800  134.9130   83.8400 C.3   300  TYR300      0.0574
     15  CG       113.2740  134.7140   82.6300 C.ar  300  TYR300     -0.0198
     16  CD1      111.9390  134.3860   82.7790 C.ar  300  TYR300     -0.0009
     17  CD2      113.7700  134.8310   81.3330 C.ar  300  TYR300     -0.0009
     18  CE1      111.0860  134.2340   81.6990 C.ar  300  TYR300      0.0417
     19  CE2      112.9420  134.6490   80.2500 C.ar  300  TYR300      0.0417
     20  CZ       111.5850  134.3940   80.4320 C.ar  300  TYR300      0.1957
     21  OH       110.7710  134.2450   79.3510 O.3   300  TYR300     -0.2866
     22  N        115.0400  137.5950   82.8540 N.am  301  ASN301     -0.1972
     23  CA       115.2420  138.7790   82.0010 C.3   301  ASN301      0.1688
     24  C        116.0860  138.2710   80.8260 C.2   301  ASN301      0.2292
     25  O        117.2480  137.9060   80.9840 O.2   301  ASN301     -0.2864
     26  CB       115.9340  139.8910   82.7870 C.3   301  ASN301      0.1181
     27  CG       116.1590  141.1750   81.9700 C.2   301  ASN301      0.2629
     28  OD1      116.2530  141.1280   80.7590 O.2   301  ASN301     -0.2716
     29  ND2      116.1810  142.2940   82.6320 N.am  301  ASN301     -0.0877
     30  N        122.0790  139.6910   81.2300 N.3   307  GLN307     -0.1245
     31  CA       120.8280  139.1790   81.7680 C.3   307  GLN307      0.1566
     32  C        120.4980  137.7760   81.2700 C.2   307  GLN307      0.2260
     33  O        120.0130  136.9460   82.0610 O.2   307  GLN307     -0.2867
     34  CB       119.6570  140.1770   81.5640 C.3   307  GLN307      0.0367
     35  CG       119.7680  141.4420   82.4240 C.3   307  GLN307      0.0905
     36  CD       119.5120  141.1770   83.9070 C.2   307  GLN307      0.2608
     37  OE1      118.8630  140.2250   84.2620 O.2   307  GLN307     -0.2717
     38  NE2      120.1320  141.9160   84.7270 N.am  307  GLN307     -0.0878
     39  N        122.7740  135.3500   83.1030 N.3   310  ALA310     -0.1231
     40  CA       122.3530  135.2200   84.5020 C.3   310  ALA310      0.1694
     41  C        121.0140  134.4670   84.6430 C.2   310  ALA310      0.2592
     42  O        120.8180  133.6470   85.5830 O.2   310  ALA310     -0.2718
     43  CB       122.2720  136.5800   85.1570 C.3   310  ALA310      0.0304
     44  N        120.0680  134.7360   83.7120 N.am  311  SER311     -0.1952
     45  CA       118.7920  134.0880   83.6960 C.3   311  SER311      0.1924
     46  C        118.8720  132.5930   83.4380 C.2   311  SER311      0.2314
     47  O        118.2400  131.7950   84.1540 O.2   311  SER311     -0.2863
     48  CB       117.8590  134.7390   82.6750 C.3   311  SER311      0.2116
     49  OG       117.5160  136.0600   83.1080 O.3   311  SER311     -0.2180
     50  N        120.3580  130.9480   86.5570 N.3   314  LYS314     -0.1245
     51  CA       119.3870  130.9960   87.6590 C.3   314  LYS314      0.1561
     52  C        118.3310  129.9430   87.4710 C.2   314  LYS314      0.2260
     53  O        117.9950  129.2300   88.4250 O.2   314  LYS314     -0.2867
     54  CB       118.7190  132.3710   87.7420 C.3   314  LYS314      0.0271
     55  CG       117.6290  132.5020   88.7770 C.3   314  LYS314      0.0035
     56  CD       116.8970  133.8380   88.6420 C.3   314  LYS314      0.0206
     57  CE       115.8430  133.9090   89.7200 C.3   314  LYS314      0.1093
     58  NZ       115.1290  135.2110   89.6670 N.3   314  LYS314     -0.1314
     59  N        113.7090  146.6820   82.5130 N.3   365  HIS365     -0.1241
     60  CA       114.1920  145.4100   81.9940 C.3   365  HIS365      0.1621
     61  C        115.2360  145.4990   80.9060 C.2   365  HIS365      0.2264
     62  O        116.0830  144.6120   80.8110 O.2   365  HIS365     -0.2867
     63  CB       113.0420  144.5370   81.4950 C.3   365  HIS365      0.0745
     64  CG       112.9270  143.2200   82.1690 C.ar  365  HIS365      0.0817
     65  ND1      112.9890  143.0840   83.5320 N.ar  365  HIS365     -0.2268
     66  CD2      112.7020  141.9840   81.6830 C.ar  365  HIS365      0.1154
     67  CE1      112.8070  141.8210   83.8610 C.ar  365  HIS365      0.1986
     68  NE2      112.6250  141.1380   82.7660 N.ar  365  HIS365     -0.2212
     69  N        117.5610  147.7670   91.2200 N.3   395  HIS395     -0.1226
     70  CA       118.5790  146.7730   90.8490 C.3   395  HIS395      0.1752
     71  C        119.2290  147.2000   89.5210 C.2   395  HIS395      0.2596
     72  O        120.2640  146.6190   89.1450 O.2   395  HIS395     -0.2718
     73  CB       118.0200  145.3680   90.6400 C.3   395  HIS395      0.0759
     74  CG       117.3730  144.7860   91.8680 C.ar  395  HIS395      0.0818
     75  ND1      118.0760  144.5080   93.0300 N.ar  395  HIS395     -0.2268
     76  CD2      116.0950  144.4200   92.1140 C.ar  395  HIS395      0.1154
     77  CE1      117.2530  144.0180   93.9430 C.ar  395  HIS395      0.1986
     78  NE2      116.0440  143.9630   93.4170 N.ar  395  HIS395     -0.2212
     79  N        118.6080  148.1160   88.7680 N.am  396  TYR396     -0.1976
     80  CA       119.1200  148.3580   87.3820 C.3   396  TYR396      0.1639
     81  C        119.6610  149.7570   87.1410 C.2   396  TYR396      0.2290
     82  O        120.5380  149.8920   86.3150 O.2   396  TYR396     -0.2864
     83  CB       118.0240  148.1480   86.3730 C.3   396  TYR396      0.0560
     84  CG       117.4880  146.7090   86.2680 C.ar  396  TYR396     -0.0198
     85  CD1      116.4990  146.2550   87.0950 C.ar  396  TYR396     -0.0009
     86  CD2      117.9410  145.8790   85.2770 C.ar  396  TYR396     -0.0009
     87  CE1      115.9750  144.9810   86.9500 C.ar  396  TYR396      0.0417
     88  CE2      117.4110  144.5930   85.0970 C.ar  396  TYR396      0.0417
     89  CZ       116.4190  144.1450   85.9360 C.ar  396  TYR396      0.1957
     90  OH       115.8700  142.8810   85.7450 O.3   396  TYR396     -0.2866
@<TRIPOS>BOND
     1    21    20    1
     2    19    20   ar
     3    19    17   ar
     4    20    18   ar
     5    28    27    2
     6    62    61    2
     7    24    25    2
     8    24    23    1
     9    61    60    1
    10    30    31    1
    11    32    31    1
    12    32    33    2
    13    17    15   ar
    14    63    60    1
    15    63    64    1
    16    34    31    1
    17    34    35    1
    18    66    64   ar
    19    66    68   ar
    20    18    16   ar
    21    27    29   am
    22    27    26    1
    23    60    59    1
    24    23    26    1
    25    23    22    1
    26    64    65   ar
    27    35    36    1
    28    15    16   ar
    29    15    14    1
    30    48    49    1
    31    48    45    1
    32    68    67   ar
    33    22    12   am
    34    39    40    1
    35    46    45    1
    36    46    47    2
    37    65    67   ar
    38    13    12    2
    39    12    11    1
    40    45    44    1
    41    44    41   am
    42    14    11    1
    43    36    37    2
    44    36    38   am
    45    40    41    1
    46    40    43    1
    47    11    10    1
    48    41    42    2
    49    88    86   ar
    50    88    89   ar
    51    86    84   ar
    52    10     3   am
    53    90    89    1
    54    89    87   ar
    55    84    83    1
    56    84    85   ar
    57    82    81    2
    58    83    80    1
    59    50    51    1
    60     3     4    2
    61     3     2    1
    62    87    85   ar
    63    81    80    1
    64     2     5    1
    65     2     1    1
    66    80    79    1
    67    52    51    1
    68    52    53    2
    69    51    54    1
    70    54    55    1
    71     5     6    1
    72    56    55    1
    73    56    57    1
    74     6     7    1
    75    79    71   am
    76    72    71    2
    77     8     7   ar
    78    71    70    1
    79    58    57    1
    80     7     9   ar
    81    73    70    1
    82    73    74    1
    83    70    69    1
    84    74    76   ar
    85    74    75   ar
    86    76    78   ar
    87    75    77   ar
    88    78    77   ar
