@<TRIPOS>MOLECULE
tmp/5koiD00.pdb
 217 210 0 0 0
SMALL
GASTEIGER

@<TRIPOS>ATOM
      1  N         -8.5400   44.1530   32.8260 N.3    13  GLY13      -0.1210
      2  CA        -7.2620   43.5020   32.5940 C.3    13  GLY13       0.1956
      3  C         -6.0150   44.3290   32.8690 C.2    13  GLY13       0.2612
      4  O         -4.9060   43.8580   32.5940 O.2    13  GLY13      -0.2717
      5  N         -6.1410   45.5510   33.3840 N.am   14  VAL14      -0.1965
      6  CA        -4.9340   46.2620   33.8060 C.3    14  VAL14       0.1727
      7  C         -4.3660   45.6000   35.0480 C.2    14  VAL14       0.2616
      8  O         -5.0710   45.4290   36.0520 O.2    14  VAL14      -0.2715
      9  CB        -5.2150   47.7450   34.0830 C.3    14  VAL14       0.0290
     10  CG1       -3.9630   48.4080   34.6250 C.3    14  VAL14       0.0023
     11  CG2       -5.6980   48.4440   32.8120 C.3    14  VAL14       0.0023
     12  N         -3.0800   45.2440   34.9960 N.am   15  ALA15      -0.1963
     13  CA        -2.3290   44.7890   36.1640 C.3    15  ALA15       0.1728
     14  C         -1.2070   45.7350   36.5490 C.2    15  ALA15       0.2616
     15  O         -0.9410   45.9160   37.7390 O.2    15  ALA15      -0.2715
     16  CB        -1.7290   43.3990   35.9230 C.3    15  ALA15       0.0334
     17  N         -0.5380   46.3410   35.5700 N.am   16  ASN16      -0.1972
     18  CA         0.4820   47.3510   35.8380 C.3    16  ASN16       0.1688
     19  C          0.6650   48.1670   34.5640 C.2    16  ASN16       0.2292
     20  O         -0.0690   47.9820   33.5920 O.2    16  ASN16      -0.2864
     21  CB         1.7820   46.7070   36.3350 C.3    16  ASN16       0.1181
     22  CG         2.3610   45.6960   35.3470 C.2    16  ASN16       0.2629
     23  OD1        2.2240   45.8420   34.1310 O.2    16  ASN16      -0.2716
     24  ND2        3.0400   44.6790   35.8770 N.am   16  ASN16      -0.0877
     25  N          0.8030   46.3790   31.0700 N.3    19  SER19      -0.1202
     26  CA        -0.3310   45.6180   30.5520 C.3    19  SER19       0.2020
     27  C         -0.7880   46.1610   29.2060 C.2    19  SER19       0.2619
     28  O         -0.8520   47.3760   29.0030 O.2    19  SER19      -0.2717
     29  CB        -1.5190   45.6910   31.5190 C.3    19  SER19       0.2103
     30  OG        -1.2530   45.0660   32.7560 O.3    19  SER19      -0.2182
     31  N         -1.1400   45.2490   28.2980 N.am   20  LEU20      -0.1965
     32  CA        -1.7860   45.6520   27.0500 C.3    20  LEU20       0.1728
     33  C         -3.0210   46.5020   27.3240 C.2    20  LEU20       0.2616
     34  O         -3.2640   47.4940   26.6300 O.2    20  LEU20      -0.2715
     35  CB        -2.1460   44.4100   26.2230 C.3    20  LEU20       0.0311
     36  CG        -1.0510   43.8620   25.2970 C.3    20  LEU20       0.0022
     37  CD1        0.1800   43.4350   26.0770 C.3    20  LEU20       0.0001
     38  CD2       -1.5860   42.6890   24.5060 C.3    20  LEU20       0.0001
     39  N         -3.7810   46.1690   28.3710 N.am   21  ALA21      -0.1977
     40  CA        -4.9740   46.9490   28.7020 C.3    21  ALA21       0.1597
     41  C         -4.6220   48.3630   29.1160 C.2    21  ALA21       0.2287
     42  O         -5.4400   49.2720   28.9510 O.2    21  ALA21      -0.2864
     43  CB        -5.7680   46.2880   29.8260 C.3    21  ALA21       0.0319
     44  N        -10.0990   45.3930   38.6070 N.3    39  TYR39      -0.1227
     45  CA        -8.8210   44.9060   39.0950 C.3    39  TYR39       0.1736
     46  C         -9.0550   43.5900   39.8120 C.2    39  TYR39       0.2595
     47  O        -10.0860   43.3940   40.4580 O.2    39  TYR39      -0.2718
     48  CB        -8.1400   45.9080   40.0360 C.3    39  TYR39       0.0548
     49  CG        -8.9300   46.2430   41.2780 C.ar   39  TYR39      -0.0200
     50  CD1       -8.8290   45.4660   42.4350 C.ar   39  TYR39      -0.0009
     51  CD2       -9.7640   47.3450   41.3060 C.ar   39  TYR39      -0.0009
     52  CE1       -9.5480   45.7880   43.5790 C.ar   39  TYR39       0.0417
     53  CE2      -10.4830   47.6720   42.4340 C.ar   39  TYR39       0.0417
     54  CZ       -10.3730   46.8910   43.5700 C.ar   39  TYR39       0.1957
     55  OH       -11.0890   47.2260   44.6900 O.3    39  TYR39      -0.2866
     56  N         -8.0810   42.6930   39.7120 N.am   40  GLN40      -0.1979
     57  CA        -8.1780   41.3750   40.3360 C.3    40  GLN40       0.1601
     58  C         -7.3850   41.3720   41.6440 C.2    40  GLN40       0.2287
     59  O         -6.1580   41.2500   41.6370 O.2    40  GLN40      -0.2864
     60  CB        -7.6720   40.3020   39.3800 C.3    40  GLN40       0.0394
     61  CG        -7.8010   38.8960   39.9300 C.3    40  GLN40       0.0908
     62  CD        -7.0200   37.8790   39.1140 C.2    40  GLN40       0.2608
     63  OE1       -6.1640   38.2380   38.2920 O.2    40  GLN40      -0.2717
     64  NE2       -7.3040   36.6070   39.3400 N.am   40  GLN40      -0.0878
     65  N         -3.5860   44.2990   43.4050 N.3    44  LEU44      -0.1245
     66  CA        -3.6110   44.9620   42.1040 C.3    44  LEU44       0.1561
     67  C         -4.4530   46.2290   42.1350 C.2    44  LEU44       0.2260
     68  O         -4.1670   47.1750   41.3930 O.2    44  LEU44      -0.2867
     69  CB        -4.1370   44.0140   41.0230 C.3    44  LEU44       0.0270
     70  CG        -3.1800   42.9090   40.5870 C.3    44  LEU44       0.0019
     71  CD1       -3.7350   42.1580   39.3830 C.3    44  LEU44       0.0001
     72  CD2       -1.8120   43.4950   40.2800 C.3    44  LEU44       0.0001
     73  N        -12.8550   42.7650   40.5370 N.3    63  CYS63      -0.1221
     74  CA       -13.5080   41.7020   39.7850 C.3    63  CYS63       0.1808
     75  C        -12.5660   40.5180   39.6210 C.2    63  CYS63       0.2601
     76  O        -11.4130   40.6880   39.2150 O.2    63  CYS63      -0.2717
     77  CB       -13.9670   42.2060   38.4140 C.3    63  CYS63       0.0970
     78  SG       -14.8850   40.9710   37.4840 S.3    63  CYS63      -0.0800
     79  N        -13.0650   39.3250   39.9390 N.am   64  ASP64      -0.1959
     80  CA       -12.4290   38.0570   39.5900 C.3    64  ASP64       0.1840
     81  C        -13.4290   37.3280   38.7030 C.2    64  ASP64       0.2622
     82  O        -14.5000   36.9380   39.1760 O.2    64  ASP64      -0.2715
     83  CB       -12.0750   37.2560   40.8480 C.3    64  ASP64       0.1450
     84  CG       -11.8180   35.7660   40.5770 C.2    64  ASP64       0.3671
     85  OD1      -11.6140   35.3570   39.4160 O.co2  64  ASP64      -0.2456
     86  OD2      -11.8180   34.9900   41.5600 O.co2  64  ASP64      -0.2456
     87  N        -13.0970   37.1750   37.4140 N.am   65  VAL65      -0.1963
     88  CA       -14.0940   36.6670   36.4670 C.3    65  VAL65       0.1727
     89  C        -14.4710   35.2290   36.7780 C.2    65  VAL65       0.2616
     90  O        -15.5120   34.7510   36.3200 O.2    65  VAL65      -0.2715
     91  CB       -13.6320   36.7870   34.9980 C.3    65  VAL65       0.0290
     92  CG1      -13.3850   38.2400   34.6300 C.3    65  VAL65       0.0023
     93  CG2      -12.3970   35.9150   34.7170 C.3    65  VAL65       0.0023
     94  N        -13.6690   34.5220   37.5710 N.am   66  GLU66      -0.1977
     95  CA       -14.0720   33.1800   37.9580 C.3    66  GLU66       0.1602
     96  C        -15.2280   33.2110   38.9510 C.2    66  GLU66       0.2287
     97  O        -15.9920   32.2450   39.0250 O.2    66  GLU66      -0.2864
     98  CB       -12.8680   32.4250   38.5250 C.3    66  GLU66       0.0415
     99  CG       -12.9580   30.9230   38.3900 C.3    66  GLU66       0.1163
    100  CD       -11.7000   30.2220   38.8720 C.2    66  GLU66       0.3649
    101  OE1      -10.8430   30.8880   39.4980 O.co2  66  GLU66      -0.2457
    102  OE2      -11.5750   29.0070   38.6170 O.co2  66  GLU66      -0.2457
    103  N         -9.3280   42.0730   28.3590 N.3    91  ALA91      -0.1231
    104  CA        -7.8970   41.8260   28.1540 C.3    91  ALA91       0.1694
    105  C         -7.3920   40.9620   29.3000 C.2    91  ALA91       0.2592
    106  O         -6.4880   41.3320   30.0480 O.2    91  ALA91      -0.2718
    107  CB        -7.1100   43.1300   28.0620 C.3    91  ALA91       0.0304
    108  N         -8.0180   39.7980   29.4340 N.am   92  ILE92      -0.1966
    109  CA        -7.8810   38.9200   30.5860 C.3    92  ILE92       0.1727
    110  C         -7.5430   37.5250   30.0830 C.2    92  ILE92       0.2617
    111  O         -8.1450   37.0420   29.1190 O.2    92  ILE92      -0.2715
    112  CB        -9.1830   38.9070   31.4200 C.3    92  ILE92       0.0290
    113  CG1       -9.2280   40.1410   32.3270 C.3    92  ILE92       0.0022
    114  CG2       -9.3430   37.6020   32.2150 C.3    92  ILE92       0.0023
    115  CD1      -10.5640   40.3120   33.0500 C.3    92  ILE92       0.0001
    116  N         -6.5740   36.8850   30.7240 N.am   93  GLY93      -0.1940
    117  CA        -6.2300   35.5230   30.3620 C.3    93  GLY93       0.2014
    118  C         -5.4600   34.8630   31.4780 C.2    93  GLY93       0.2638
    119  O         -4.8030   35.5340   32.2790 O.2    93  GLY93      -0.2714
    120  N         -5.5380   33.5360   31.5310 N.am   94  PHE94      -0.1973
    121  CA        -4.8180   32.8090   32.5650 C.3    94  PHE94       0.1639
    122  C         -4.7130   31.3480   32.1700 C.2    94  PHE94       0.2290
    123  O         -5.6540   30.7840   31.6120 O.2    94  PHE94      -0.2864
    124  CB        -5.5070   32.8960   33.9320 C.3    94  PHE94       0.0560
    125  CG        -4.9040   31.9600   34.9500 C.ar   94  PHE94      -0.0200
    126  CD1       -3.7790   32.3360   35.6640 C.ar   94  PHE94      -0.0042
    127  CD2       -5.4280   30.6890   35.1480 C.ar   94  PHE94      -0.0042
    128  CE1       -3.2000   31.4700   36.5790 C.ar   94  PHE94      -0.0003
    129  CE2       -4.8530   29.8160   36.0560 C.ar   94  PHE94      -0.0003
    130  CZ        -3.7410   30.2070   36.7740 C.ar   94  PHE94      -0.0000
    131  N        -11.6270   31.2940   32.3720 N.3   119  ILE119     -0.1245
    132  CA       -11.0480   32.6150   32.6170 C.3   119  ILE119      0.1561
    133  C        -10.6590   33.2910   31.3020 C.2   119  ILE119      0.2260
    134  O        -10.9290   34.4810   31.0980 O.2   119  ILE119     -0.2867
    135  CB        -9.8430   32.5000   33.5630 C.3   119  ILE119      0.0252
    136  CG1      -10.2950   32.0240   34.9520 C.3   119  ILE119      0.0019
    137  CG2       -9.0700   33.8550   33.6250 C.3   119  ILE119      0.0019
    138  CD1       -9.1430   31.6090   35.8600 C.3   119  ILE119      0.0001
    139  N         -8.7360   40.5580   23.3660 N.3   144  LEU144     -0.1231
    140  CA        -7.3740   40.3820   22.8830 C.3   144  LEU144      0.1693
    141  C         -7.0980   38.8990   22.6790 C.2   144  LEU144      0.2593
    142  O         -7.4050   38.0800   23.5560 O.2   144  LEU144     -0.2718
    143  CB        -6.3630   40.9830   23.8680 C.3   144  LEU144      0.0284
    144  CG        -6.4840   42.4940   24.1000 C.3   144  LEU144      0.0019
    145  CD1       -5.3090   42.9700   24.9410 C.3   144  LEU144      0.0001
    146  CD2       -6.5870   43.2920   22.8100 C.3   144  LEU144      0.0001
    147  N         -6.5200   38.5570   21.5240 N.am  145  THR145     -0.1939
    148  CA        -6.1910   37.1680   21.2410 C.3   145  THR145      0.2028
    149  C         -4.7630   37.0920   20.7160 C.2   145  THR145      0.2642
    150  O         -4.0310   38.0920   20.7380 O.2   145  THR145     -0.2714
    151  CB        -7.2230   36.5610   20.2710 C.3   145  THR145      0.1808
    152  OG1       -7.0070   35.1470   20.1290 O.3   145  THR145     -0.2208
    153  CG2       -7.1540   37.2160   18.8850 C.3   145  THR145      0.0379
    154  N         -4.3390   35.8990   20.2980 N.am  146  TYR146     -0.1973
    155  CA        -2.9760   35.6720   19.8430 C.3   146  TYR146      0.1639
    156  C         -3.0060   34.5770   18.7900 C.2   146  TYR146      0.2290
    157  O         -3.8270   33.6620   18.8680 O.2   146  TYR146     -0.2864
    158  CB        -2.0850   35.2840   21.0250 C.3   146  TYR146      0.0560
    159  CG        -0.6170   35.0510   20.7090 C.ar  146  TYR146     -0.0198
    160  CD1        0.1770   36.0720   20.1950 C.ar  146  TYR146     -0.0009
    161  CD2       -0.0190   33.8280   20.9790 C.ar  146  TYR146     -0.0009
    162  CE1        1.5370   35.8640   19.9350 C.ar  146  TYR146      0.0417
    163  CE2        1.3380   33.6110   20.7370 C.ar  146  TYR146      0.0417
    164  CZ         2.1070   34.6310   20.2030 C.ar  146  TYR146      0.1957
    165  OH         3.4510   34.4230   19.9550 O.3   146  TYR146     -0.2866
    166  N          2.8460   27.5380   23.8670 N.3   156  TYR156     -0.1241
    167  CA         1.5920   28.2580   24.0730 C.3   156  TYR156      0.1605
    168  C          0.4620   27.2980   24.4260 C.2   156  TYR156      0.2264
    169  O         -0.4390   27.6590   25.1950 O.2   156  TYR156     -0.2867
    170  CB         1.2430   29.1070   22.8500 C.3   156  TYR156      0.0534
    171  CG         0.2550   30.2210   23.1500 C.ar  156  TYR156     -0.0201
    172  CD1        0.5650   31.2350   24.0480 C.ar  156  TYR156     -0.0009
    173  CD2       -0.9750   30.2790   22.4980 C.ar  156  TYR156     -0.0009
    174  CE1       -0.3320   32.2560   24.3100 C.ar  156  TYR156      0.0417
    175  CE2       -1.8670   31.2930   22.7500 C.ar  156  TYR156      0.0417
    176  CZ        -1.5470   32.2740   23.6540 C.ar  156  TYR156      0.1957
    177  OH        -2.4540   33.2760   23.9070 O.3   156  TYR156     -0.2866
    178  N         -3.2580   27.4990   26.0160 N.3   159  MET159     -0.1245
    179  CA        -3.7090   28.8590   25.7180 C.3   159  MET159      0.1570
    180  C         -4.0900   29.0100   24.2480 C.2   159  MET159      0.2261
    181  O         -4.9890   29.8000   23.9180 O.2   159  MET159     -0.2867
    182  CB        -2.6400   29.8940   26.1020 C.3   159  MET159      0.0387
    183  CG        -2.6490   30.3080   27.5690 C.3   159  MET159      0.0595
    184  SD        -4.2110   31.0260   28.1900 S.3   159  MET159     -0.1393
    185  CE        -4.6020   32.2260   26.9510 C.3   159  MET159      0.0692
    186  N         -7.6120   30.4280   23.0670 N.3   163  LYS163     -0.1245
    187  CA        -7.7690   31.5470   22.1350 C.3   163  LYS163      0.1561
    188  C         -8.5990   31.1500   20.9170 C.2   163  LYS163      0.2260
    189  O         -9.3590   31.9700   20.3790 O.2   163  LYS163     -0.2867
    190  CB        -6.3960   32.0690   21.6970 C.3   163  LYS163      0.0271
    191  CG        -5.5950   32.7260   22.8390 C.3   163  LYS163      0.0035
    192  CD        -6.3880   33.9120   23.4720 C.3   163  LYS163      0.0206
    193  CE        -5.4570   34.8310   24.2780 C.3   163  LYS163      0.1093
    194  NZ        -6.1450   35.9620   25.0010 N.3   163  LYS163     -0.1314
    195  N         -2.8200   40.3350   18.9330 N.3   189  ALA189     -0.1231
    196  CA        -1.5970   41.1010   19.1160 C.3   189  ALA189      0.1694
    197  C         -0.3740   40.2200   18.9100 C.2   189  ALA189      0.2593
    198  O         -0.3950   39.0100   19.1610 O.2   189  ALA189     -0.2718
    199  CB        -1.5600   41.7230   20.5130 C.3   189  ALA189      0.0304
    200  N          0.6890   40.8240   18.4090 N.am  190  GLY190     -0.1943
    201  CA         1.9740   40.1630   18.4350 C.3   190  GLY190      0.1998
    202  C          2.4570   40.0730   19.8660 C.2   190  GLY190      0.2481
    203  O          1.8460   40.6330   20.7820 O.2   190  GLY190     -0.2729
    204  N          3.5510   39.3510   20.0990 N.am  191  PRO191     -0.2715
    205  CA         4.1490   39.3570   21.4330 C.3   191  PRO191      0.1536
    206  C          4.6000   40.7610   21.7860 C.2   191  PRO191      0.2598
    207  O          5.1280   41.4960   20.9450 O.2   191  PRO191     -0.2715
    208  CB         5.3410   38.4030   21.2920 C.3   191  PRO191      0.0310
    209  CG         5.7160   38.5100   19.8550 C.3   191  PRO191      0.0237
    210  CD         4.4100   38.6750   19.1120 C.3   191  PRO191      0.0939
    211  N          4.4030   41.1300   23.0430 N.am  192  VAL192     -0.1978
    212  CA         4.7760   42.4500   23.5280 C.3   192  VAL192      0.1596
    213  C          5.7760   42.2780   24.6560 C.2   192  VAL192      0.2287
    214  O          5.5890   41.4270   25.5340 O.2   192  VAL192     -0.2864
    215  CB         3.5450   43.2470   23.9990 C.3   192  VAL192      0.0276
    216  CG1        3.9680   44.6140   24.5270 C.3   192  VAL192      0.0022
    217  CG2        2.5610   43.3880   22.8630 C.3   192  VAL192      0.0022
@<TRIPOS>BOND
     1   200   201    1
     2   200   197   am
     3   201   202    1
     4   156   157    2
     5   156   155    1
     6   153   151    1
     7   197   196    1
     8   197   198    2
     9   195   196    1
    10   210   209    1
    11   210   204    1
    12   196   199    1
    13   155   154    1
    14   155   158    1
    15   209   208    1
    16   202   204   am
    17   202   203    2
    18   162   160   ar
    19   162   164   ar
    20   165   164    1
    21   204   205    1
    22   152   151    1
    23   160   159   ar
    24   164   163   ar
    25   151   148    1
    26   154   149   am
    27   189   188    2
    28   159   161   ar
    29   159   158    1
    30   149   150    2
    31   149   148    1
    32   163   161   ar
    33   188   187    1
    34   207   206    2
    35   148   147    1
    36   208   205    1
    37   205   206    1
    38   147   141   am
    39   190   187    1
    40   190   191    1
    41   206   211   am
    42   187   186    1
    43   173   175   ar
    44   173   171   ar
    45   141   140    1
    46   141   142    2
    47   175   176   ar
    48   146   144    1
    49   191   192    1
    50   170   171    1
    51   170   167    1
    52   217   215    1
    53   140   139    1
    54   140   143    1
    55   211   212    1
    56   171   172   ar
    57   192   193    1
    58   212   215    1
    59   212   213    1
    60   176   177    1
    61   176   174   ar
    62   166   167    1
    63   143   144    1
    64   181   180    2
    65   215   216    1
    66   172   174   ar
    67   167   168    1
    68   144   145    1
    69   180   179    1
    70   193   194    1
    71   168   169    2
    72    38    36    1
    73   213   214    2
    74    36    37    1
    75    36    35    1
    76   179   178    1
    77   179   182    1
    78   182   183    1
    79    35    32    1
    80    34    33    2
    81   185   184    1
    82    32    33    1
    83    32    31    1
    84    33    39   am
    85   183   184    1
    86   107   104    1
    87   104   103    1
    88   104   105    1
    89    31    27   am
    90    39    40    1
    91    40    41    1
    92    40    43    1
    93    42    41    2
    94    28    27    2
    95   111   110    2
    96    27    26    1
    97   105   108   am
    98   105   106    2
    99   108   109    1
   100   110   109    1
   101   110   116   am
   102   117   116    1
   103   117   118    1
   104    26    25    1
   105    26    29    1
   106   109   112    1
   107   134   133    2
   108   133   132    1
   109   112   114    1
   110   112   113    1
   111   118   120   am
   112   118   119    2
   113    29    30    1
   114   120   121    1
   115   123   122    2
   116   122   121    1
   117   113   115    1
   118   131   132    1
   119   121   124    1
   120     4     3    2
   121     2     1    1
   122     2     3    1
   123   132   135    1
   124    11     9    1
   125     3     5   am
   126     5     6    1
   127   135   137    1
   128   135   136    1
   129    20    19    2
   130     6     9    1
   131     6     7    1
   132   124   125    1
   133     9    10    1
   134    23    22    2
   135    19    18    1
   136    92    91    1
   137    93    91    1
   138   125   127   ar
   139   125   126   ar
   140   136   138    1
   141    12     7   am
   142    12    13    1
   143    91    88    1
   144     7     8    2
   145   127   129   ar
   146    22    24   am
   147    22    21    1
   148    17    18    1
   149    17    14   am
   150   126   128   ar
   151    18    21    1
   152    16    13    1
   153   129   130   ar
   154    13    14    1
   155    90    89    2
   156    88    89    1
   157    88    87    1
   158    14    15    2
   159   128   130   ar
   160    89    94   am
   161    87    81   am
   162    78    77    1
   163    94    95    1
   164    95    98    1
   165    95    96    1
   166    63    62    2
   167    99    98    1
   168    99   100    1
   169    77    74    1
   170    44    45    1
   171   102   100   ar
   172    81    82    2
   173    81    80    1
   174   100   101   ar
   175    96    97    2
   176    45    46    1
   177    45    48    1
   178    62    64   am
   179    62    61    1
   180    76    75    2
   181    60    61    1
   182    60    57    1
   183    71    70    1
   184    85    84   ar
   185    80    79    1
   186    80    83    1
   187    75    74    1
   188    75    79   am
   189    56    46   am
   190    56    57    1
   191    74    73    1
   192    46    47    2
   193    48    49    1
   194    72    70    1
   195    57    58    1
   196    84    83    1
   197    84    86   ar
   198    70    69    1
   199    69    66    1
   200    49    51   ar
   201    49    50   ar
   202    51    53   ar
   203    68    67    2
   204    59    58    2
   205    66    67    1
   206    66    65    1
   207    53    54   ar
   208    50    52   ar
   209    54    52   ar
   210    54    55    1
