@<TRIPOS>MOLECULE
tmp/5kokA00.pdb
 204 199 0 0 0
SMALL
GASTEIGER

@<TRIPOS>ATOM
      1  N         -2.7320   15.1260  -10.8590 N.3    86  LEU86      -0.1231
      2  CA        -3.0680   16.0700   -9.8010 C.3    86  LEU86       0.1693
      3  C         -2.8210   17.5030  -10.2510 C.2    86  LEU86       0.2592
      4  O         -2.3400   18.3340   -9.4860 O.2    86  LEU86      -0.2718
      5  CB        -2.3040   15.7850   -8.5060 C.3    86  LEU86       0.0284
      6  CG        -2.4740   14.3810   -7.9170 C.3    86  LEU86       0.0019
      7  CD1       -1.7780   14.3220   -6.5630 C.3    86  LEU86       0.0001
      8  CD2       -3.9580   14.0840   -7.7680 C.3    86  LEU86       0.0001
      9  N         -3.1380   17.7900  -11.5060 N.am   87  LYS87      -0.1966
     10  CA        -2.9830   19.1480  -12.0130 C.3    87  LYS87       0.1728
     11  C         -4.0030   20.0650  -11.3450 C.2    87  LYS87       0.2616
     12  O         -5.2090   19.7910  -11.3740 O.2    87  LYS87      -0.2715
     13  CB        -3.1480   19.1350  -13.5320 C.3    87  LYS87       0.0311
     14  CG        -2.7420   20.4640  -14.2220 C.3    87  LYS87       0.0038
     15  CD        -2.8220   20.2860  -15.7330 C.3    87  LYS87       0.0206
     16  CE        -2.0770   21.3850  -16.4780 C.3    87  LYS87       0.1093
     17  NZ        -2.6510   22.7540  -16.2310 N.3    87  LYS87      -0.1314
     18  N         -3.5270   21.1490  -10.7270 N.am   88  PHE88      -0.1960
     19  CA        -4.4330   22.0450  -10.0260 C.3    88  PHE88       0.1771
     20  C         -4.5840   23.3160  -10.8360 C.2    88  PHE88       0.2620
     21  O         -4.3060   24.4150  -10.3580 O.2    88  PHE88      -0.2715
     22  CB        -3.9340   22.3570   -8.6180 C.3    88  PHE88       0.0574
     23  CG        -5.0440   22.5380   -7.6360 C.ar   88  PHE88      -0.0200
     24  CD1       -5.8650   21.4760   -7.3090 C.ar   88  PHE88      -0.0042
     25  CD2       -5.2710   23.7590   -7.0360 C.ar   88  PHE88      -0.0042
     26  CE1       -6.8910   21.6240   -6.4210 C.ar   88  PHE88      -0.0003
     27  CE2       -6.3070   23.9100   -6.1380 C.ar   88  PHE88      -0.0003
     28  CZ        -7.1110   22.8480   -5.8310 C.ar   88  PHE88      -0.0000
     29  N         -5.0040   23.1520  -12.0710 N.am   89  SER89      -0.1950
     30  CA        -5.0370   24.2070  -13.0740 C.3    89  SER89       0.1924
     31  C         -5.6820   23.5620  -14.2950 C.2    89  SER89       0.2314
     32  O         -5.7880   22.3310  -14.3410 O.2    89  SER89      -0.2863
     33  CB        -3.6260   24.7350  -13.3550 C.3    89  SER89       0.2116
     34  OG        -2.7400   23.6620  -13.6400 O.3    89  SER89      -0.2180
     35  N         10.0940   25.1600  -12.1990 N.3   125  ASP125     -0.1225
     36  CA         8.6290   25.1320  -12.1170 C.3   125  ASP125      0.1805
     37  C          8.2330   25.8460  -10.8260 C.2   125  ASP125      0.2598
     38  O          8.3350   25.2740   -9.7350 O.2   125  ASP125     -0.2718
     39  CB         8.1400   23.6880  -12.1630 C.3   125  ASP125      0.1424
     40  CG         6.6280   23.5740  -12.2440 C.2   125  ASP125      0.3668
     41  OD1        5.9490   24.5520  -12.6190 O.co2 125  ASP125     -0.2456
     42  OD2        6.1130   22.4880  -11.9250 O.co2 125  ASP125     -0.2456
     43  N          7.7860   27.0990  -10.9480 N.am  126  LEU126     -0.1966
     44  CA         7.4830   27.9280   -9.7780 C.3   126  LEU126      0.1728
     45  C          6.0770   27.6480   -9.2750 C.2   126  LEU126      0.2617
     46  O          5.1060   27.8330  -10.0110 O.2   126  LEU126     -0.2715
     47  CB         7.6070   29.4150  -10.1270 C.3   126  LEU126      0.0311
     48  CG         8.9980   29.8830  -10.5340 C.3   126  LEU126      0.0022
     49  CD1        8.9400   31.3660  -10.8990 C.3   126  LEU126      0.0001
     50  CD2        9.9600   29.6770   -9.3950 C.3   126  LEU126      0.0001
     51  N          5.9510   27.2550   -8.0060 N.am  127  GLY127     -0.1940
     52  CA         4.6420   26.9020   -7.4840 C.3   127  GLY127      0.2014
     53  C          4.2070   25.5780   -8.0800 C.2   127  GLY127      0.2639
     54  O          3.1770   25.4890   -8.7610 O.2   127  GLY127     -0.2714
     55  N          5.0100   24.5460   -7.8470 N.am  128  CYS128     -0.1953
     56  CA         4.9030   23.3190   -8.6310 C.3   128  CYS128      0.1843
     57  C          3.7580   22.4120   -8.1910 C.2   128  CYS128      0.2626
     58  O          3.5590   21.3630   -8.8150 O.2   128  CYS128     -0.2714
     59  CB         6.2320   22.5570   -8.5840 C.3   128  CYS128      0.0997
     60  SG         6.7760   22.0490   -6.9170 S.3   128  CYS128     -0.0797
     61  N          3.0210   22.7670   -7.1400 N.am  129  GLY129     -0.1940
     62  CA         1.8970   21.9300   -6.7150 C.3   129  GLY129      0.2014
     63  C          2.3380   20.5360   -6.3310 C.2   129  GLY129      0.2638
     64  O          3.4090   20.3340   -5.7520 O.2   129  GLY129     -0.2714
     65  N          1.5070   19.5500   -6.6850 N.am  130  HIS130     -0.1973
     66  CA         1.8410   18.1490   -6.5050 C.3   130  HIS130      0.1656
     67  C          2.6100   17.6080   -7.7040 C.2   130  HIS130      0.2291
     68  O          2.6980   16.3930   -7.8880 O.2   130  HIS130     -0.2864
     69  CB         0.5730   17.3360   -6.2080 C.3   130  HIS130      0.0771
     70  CG         0.0190   17.5940   -4.8370 C.ar  130  HIS130      0.0820
     71  ND1       -0.7940   18.6700   -4.5570 N.ar  130  HIS130     -0.2267
     72  CD2        0.2060   16.9500   -3.6600 C.ar  130  HIS130      0.1154
     73  CE1       -1.0900   18.6770   -3.2700 C.ar  130  HIS130      0.1986
     74  NE2       -0.5020   17.6400   -2.7030 N.ar  130  HIS130     -0.2212
     75  N          2.4900   18.0520  -11.2110 N.3   132  SER132     -0.1202
     76  CA         1.9560   17.6220  -12.5080 C.3   132  SER132      0.2020
     77  C          2.9050   17.9690  -13.6500 C.2   132  SER132      0.2618
     78  O          3.2860   17.0990  -14.4470 O.2   132  SER132     -0.2717
     79  CB         0.5650   18.2380  -12.7420 C.3   132  SER132      0.2103
     80  OG         0.5850   19.6750  -12.7240 O.3   132  SER132     -0.2182
     81  N          3.3350   19.2310  -13.7220 N.am  133  LEU133     -0.1979
     82  CA         4.1950   19.6370  -14.8280 C.3   133  LEU133      0.1596
     83  C          5.6490   19.2560  -14.5800 C.2   133  LEU133      0.2287
     84  O          6.3580   18.8840  -15.5180 O.2   133  LEU133     -0.2864
     85  CB         4.0740   21.1430  -15.0570 C.3   133  LEU133      0.0297
     86  CG         4.8200   21.7020  -16.2690 C.3   133  LEU133      0.0022
     87  CD1        4.3730   21.0060  -17.5450 C.3   133  LEU133      0.0001
     88  CD2        4.5430   23.2060  -16.3530 C.3   133  LEU133      0.0001
     89  N          9.6070   24.4950   -7.1600 N.3   149  ILE149     -0.1231
     90  CA         9.5790   25.2590   -5.9170 C.3   149  ILE149      0.1692
     91  C          8.1640   25.2420   -5.3570 C.2   149  ILE149      0.2593
     92  O          7.2140   25.5920   -6.0580 O.2   149  ILE149     -0.2718
     93  CB        10.0350   26.7190   -6.1080 C.3   149  ILE149      0.0266
     94  CG1       11.4750   26.7780   -6.6120 C.3   149  ILE149      0.0019
     95  CG2        9.9300   27.4450   -4.7620 C.3   149  ILE149      0.0020
     96  CD1       12.0270   28.1980   -6.6700 C.3   149  ILE149      0.0001
     97  N          8.0280   24.8680   -4.0850 N.am  150  THR150     -0.1939
     98  CA         6.7370   24.9610   -3.4220 C.3   150  THR150      0.2028
     99  C          6.9840   25.3320   -1.9670 C.2   150  THR150      0.2642
    100  O          8.0700   25.1040   -1.4340 O.2   150  THR150     -0.2714
    101  CB         5.9190   23.6530   -3.5120 C.3   150  THR150      0.1808
    102  OG1        4.7160   23.7890   -2.7380 O.3   150  THR150     -0.2208
    103  CG2        6.7000   22.4660   -3.0130 C.3   150  THR150      0.0379
    104  N          5.9840   25.9480   -1.3510 N.am  151  ASN151     -0.1957
    105  CA         6.0300   26.2620    0.0690 C.3   151  ASN151      0.1819
    106  C          5.3250   25.2020    0.9170 C.2   151  ASN151      0.2622
    107  O          5.1070   25.4230    2.1100 O.2   151  ASN151     -0.2715
    108  CB         5.4070   27.6370    0.3230 C.3   151  ASN151      0.1195
    109  CG         3.9670   27.7290   -0.1660 C.2   151  ASN151      0.2630
    110  OD1        3.4070   26.7590   -0.6750 O.2   151  ASN151     -0.2716
    111  ND2        3.3620   28.9010   -0.0140 N.am  151  ASN151     -0.0877
    112  N          4.9640   24.0630    0.3330 N.am  152  SER152     -0.1950
    113  CA         4.1760   23.0400    1.0220 C.3   152  SER152      0.1924
    114  C          5.0190   21.7940    1.2660 C.2   152  SER152      0.2314
    115  O          5.4720   21.1390    0.3140 O.2   152  SER152     -0.2863
    116  CB         2.9150   22.6860    0.2210 C.3   152  SER152      0.2116
    117  OG         2.2920   21.5040    0.7160 O.3   152  SER152     -0.2180
    118  N          3.3330   18.7270   -0.3590 N.3   155  GLN155     -0.1245
    119  CA         3.5450   18.6620   -1.8000 C.3   155  GLN155      0.1566
    120  C          4.9370   18.1350   -2.1130 C.2   155  GLN155      0.2260
    121  O          5.1120   17.2870   -3.0010 O.2   155  GLN155     -0.2867
    122  CB         3.3230   20.0400   -2.4290 C.3   155  GLN155      0.0367
    123  CG         1.8490   20.4260   -2.5020 C.3   155  GLN155      0.0905
    124  CD         1.6300   21.8440   -2.9520 C.2   155  GLN155      0.2608
    125  OE1        2.5590   22.5240   -3.3820 O.2   155  GLN155     -0.2717
    126  NE2        0.3930   22.3020   -2.8640 N.am  155  GLN155     -0.0878
    127  N         10.4370   26.4120   -0.3920 N.3   176  GLU176     -0.1231
    128  CA        10.6740   27.8210   -0.1140 C.3   176  GLU176      0.1699
    129  C          9.4490   28.6240   -0.5280 C.2   176  GLU176      0.2592
    130  O          8.6790   28.2060   -1.3950 O.2   176  GLU176     -0.2718
    131  CB        11.9210   28.3260   -0.8560 C.3   176  GLU176      0.0402
    132  CG        12.2760   29.7840   -0.5750 C.3   176  GLU176      0.1161
    133  CD        12.7530   30.0160    0.8530 C.2   176  GLU176      0.3649
    134  OE1       12.1910   30.9030    1.5260 O.co2 176  GLU176     -0.2457
    135  OE2       13.6860   29.3030    1.2980 O.co2 176  GLU176     -0.2457
    136  N          9.2770   29.7710    0.1260 N.am  177  ASP177     -0.1960
    137  CA         8.3510   30.8170   -0.2980 C.3   177  ASP177      0.1840
    138  C          8.9820   31.5630   -1.4670 C.2   177  ASP177      0.2622
    139  O         10.0510   32.1670   -1.3130 O.2   177  ASP177     -0.2715
    140  CB         8.0910   31.7500    0.8890 C.3   177  ASP177      0.1450
    141  CG         7.0920   32.8660    0.5940 C.2   177  ASP177      0.3671
    142  OD1        6.8080   33.2020   -0.5820 O.co2 177  ASP177     -0.2456
    143  OD2        6.5960   33.4500    1.5850 O.co2 177  ASP177     -0.2456
    144  N          8.3310   31.5050   -2.6350 N.am  178  VAL178     -0.1963
    145  CA         8.9300   32.0330   -3.8560 C.3   178  VAL178      0.1727
    146  C          9.1160   33.5320   -3.7450 C.2   178  VAL178      0.2616
    147  O         10.0220   34.0970   -4.3720 O.2   178  VAL178     -0.2715
    148  CB         8.0890   31.6650   -5.0960 C.3   178  VAL178      0.0290
    149  CG1        6.7090   32.2750   -5.0290 C.3   178  VAL178      0.0023
    150  CG2        8.7900   32.1270   -6.3750 C.3   178  VAL178      0.0023
    151  N          8.2760   34.1970   -2.9460 N.am  179  THR179     -0.1951
    152  CA         8.3500   35.6490   -2.8210 C.3   179  THR179      0.1897
    153  C          9.5230   36.0900   -1.9630 C.2   179  THR179      0.2313
    154  O          9.8470   37.2810   -1.9440 O.2   179  THR179     -0.2863
    155  CB         7.0620   36.2260   -2.2130 C.3   179  THR179      0.1794
    156  OG1        7.0220   35.9410   -0.8090 O.3   179  THR179     -0.2208
    157  CG2        5.8320   35.6510   -2.8870 C.3   179  THR179      0.0378
    158  N          2.6920   28.4700  -13.7180 N.3   193  VAL193     -0.1231
    159  CA         1.3420   28.0650  -14.0900 C.3   193  VAL193      0.1692
    160  C          0.4460   28.1890  -12.8660 C.2   193  VAL193      0.2592
    161  O          0.6950   27.5400  -11.8450 O.2   193  VAL193     -0.2718
    162  CB         1.3360   26.6320  -14.6420 C.3   193  VAL193      0.0266
    163  CG1       -0.0950   26.1670  -14.8740 C.3   193  VAL193      0.0020
    164  CG2        2.1530   26.5880  -15.9320 C.3   193  VAL193      0.0020
    165  N         -0.5770   29.0490  -12.9570 N.am  194  ALA194     -0.1966
    166  CA        -1.5420   29.2710  -11.8720 C.3   194  ALA194      0.1728
    167  C         -0.8660   29.7470  -10.5880 C.2   194  ALA194      0.2616
    168  O         -1.2900   29.3930   -9.4780 O.2   194  ALA194     -0.2715
    169  CB        -2.3650   28.0140  -11.5750 C.3   194  ALA194      0.0334
    170  N          0.2250   30.4840  -10.7210 N.am  195  LEU195     -0.1977
    171  CA         0.8950   31.0770   -9.5730 C.3   195  LEU195      0.1596
    172  C          0.5880   32.5600   -9.4350 C.2   195  LEU195      0.2287
    173  O          0.4650   33.0630   -8.3110 O.2   195  LEU195     -0.2864
    174  CB         2.4140   30.8690   -9.6740 C.3   195  LEU195      0.0297
    175  CG         3.2430   31.4750   -8.5340 C.3   195  LEU195      0.0022
    176  CD1        2.7610   30.9580   -7.1730 C.3   195  LEU195      0.0001
    177  CD2        4.7130   31.1360   -8.7500 C.3   195  LEU195      0.0001
    178  N         -2.0800   34.0590   -9.7420 N.3   197  GLU197     -0.1231
    179  CA        -3.3230   34.2810   -9.0020 C.3   197  GLU197      0.1699
    180  C         -3.0920   34.4580   -7.5030 C.2   197  GLU197      0.2592
    181  O         -3.9770   34.9710   -6.8090 O.2   197  GLU197     -0.2718
    182  CB        -4.3020   33.1210   -9.2500 C.3   197  GLU197      0.0402
    183  CG        -3.7710   31.7820   -8.8000 C.3   197  GLU197      0.1161
    184  CD        -4.6450   30.6080   -9.2290 C.2   197  GLU197      0.3649
    185  OE1       -4.4800   30.1160  -10.3750 O.co2 197  GLU197     -0.2457
    186  OE2       -5.4900   30.1670   -8.4130 O.co2 197  GLU197     -0.2457
    187  N         -1.9280   34.0580   -6.9930 N.am  198  HIS198     -0.1962
    188  CA        -1.5510   34.3010   -5.5960 C.3   198  HIS198      0.1787
    189  C         -0.8660   35.6500   -5.3850 C.2   198  HIS198      0.2620
    190  O         -0.6640   36.0610   -4.2330 O.2   198  HIS198     -0.2715
    191  CB        -0.5990   33.2040   -5.1070 C.3   198  HIS198      0.0785
    192  CG        -1.2440   31.8740   -4.9090 C.ar  198  HIS198      0.0821
    193  ND1       -1.4250   30.9660   -5.9330 N.ar  198  HIS198     -0.2267
    194  CD2       -1.7220   31.2820   -3.7900 C.ar  198  HIS198      0.1154
    195  CE1       -2.0060   29.8800   -5.4520 C.ar  198  HIS198      0.1986
    196  NE2       -2.1930   30.0480   -4.1560 N.ar  198  HIS198     -0.2212
    197  N         -0.4790   36.3310   -6.4540 N.am  199  MET199     -0.1977
    198  CA         0.3150   37.5490   -6.3490 C.3   199  MET199      0.1605
    199  C         -0.5580   38.7900   -6.4860 C.2   199  MET199      0.2287
    200  O         -1.6800   38.7540   -7.0060 O.2   199  MET199     -0.2864
    201  CB         1.4140   37.5770   -7.4260 C.3   199  MET199      0.0413
    202  CG         2.3380   36.3370   -7.4250 C.3   199  MET199      0.0598
    203  SD         3.2880   36.1420   -5.8950 S.3   199  MET199     -0.1393
    204  CE         3.7500   34.4150   -6.0250 C.3   199  MET199      0.0692
@<TRIPOS>BOND
     1    87    86    1
     2    16    17    1
     3    16    15    1
     4    88    86    1
     5    86    85    1
     6   164   162    1
     7    15    14    1
     8    84    83    2
     9    85    82    1
    10   163   162    1
    11    82    83    1
    12    82    81    1
    13   162   159    1
    14    78    77    2
    15    32    31    2
    16    31    30    1
    17    14    13    1
    18   159   158    1
    19   159   160    1
    20    81    77   am
    21    77    76    1
    22    34    33    1
    23    13    10    1
    24    33    30    1
    25    30    29    1
    26   165   160   am
    27   165   166    1
    28   160   161    2
    29    79    80    1
    30    79    76    1
    31    41    40   ar
    32    76    75    1
    33    40    39    1
    34    40    42   ar
    35    35    36    1
    36    39    36    1
    37    36    37    1
    38    29    20   am
    39    10     9    1
    40    10    11    1
    41   166   169    1
    42   166   167    1
    43     9     3   am
    44    12    11    2
    45    11    18   am
    46    43    37   am
    47    43    44    1
    48    49    48    1
    49     1     2    1
    50    20    21    2
    51    20    19    1
    52    37    38    2
    53    18    19    1
    54   170   167   am
    55   170   171    1
    56   167   168    2
    57    48    47    1
    58    48    50    1
    59   185   184   ar
    60     3     2    1
    61     3     4    2
    62    47    44    1
    63    19    22    1
    64    46    45    2
    65     2     5    1
    66    44    45    1
    67   178   179    1
    68   174   171    1
    69   174   175    1
    70   171   172    1
    71   172   173    2
    72    45    51   am
    73   182   179    1
    74   182   183    1
    75   184   183    1
    76   184   186   ar
    77   179   180    1
    78    58    57    2
    79    54    53    2
    80   177   175    1
    81    56    59    1
    82    56    57    1
    83    56    55    1
    84    22    23    1
    85    59    60    1
    86   175   176    1
    87     5     6    1
    88    57    61   am
    89    53    55   am
    90    53    52    1
    91    51    52    1
    92     6     8    1
    93     6     7    1
    94    68    67    2
    95    67    66    1
    96    23    24   ar
    97    23    25   ar
    98   180   187   am
    99   180   181    2
   100   201   202    1
   101   201   198    1
   102   202   203    1
   103    24    26   ar
   104    89    90    1
   105    61    62    1
   106    25    27   ar
   107   200   199    2
   108   187   188    1
   109    62    63    1
   110    65    66    1
   111    65    63   am
   112    96    94    1
   113    94    93    1
   114    66    69    1
   115   199   198    1
   116   197   198    1
   117   197   189   am
   118    26    28   ar
   119   150   148    1
   120    63    64    2
   121    69    70    1
   122    27    28   ar
   123    93    90    1
   124    93    95    1
   125    92    91    2
   126   204   203    1
   127   193   195   ar
   128   193   192   ar
   129    90    91    1
   130   188   189    1
   131   188   191    1
   132   195   196   ar
   133   189   190    2
   134    91    97   am
   135   191   192    1
   136   148   149    1
   137   148   145    1
   138   192   194   ar
   139    70    71   ar
   140    70    72   ar
   141    71    73   ar
   142   147   146    2
   143   196   194   ar
   144    97    98    1
   145   145   146    1
   146   145   144    1
   147   146   151   am
   148    72    74   ar
   149   101    98    1
   150   101   103    1
   151   101   102    1
   152    98    99    1
   153   125   124    2
   154    73    74   ar
   155   121   120    2
   156   124   126   am
   157   124   123    1
   158   151   152    1
   159   157   155    1
   160   152   155    1
   161   152   153    1
   162   144   138   am
   163   123   122    1
   164   122   119    1
   165   155   156    1
   166   120   119    1
   167    99   100    2
   168    99   104   am
   169   153   154    2
   170   119   118    1
   171   138   139    2
   172   138   137    1
   173   130   129    2
   174   104   105    1
   175   131   132    1
   176   131   128    1
   177   110   109    2
   178   142   141   ar
   179   132   133    1
   180   129   128    1
   181   129   136   am
   182   127   128    1
   183   137   136    1
   184   137   140    1
   185   109   111   am
   186   109   108    1
   187   105   108    1
   188   105   106    1
   189   116   117    1
   190   116   113    1
   191   115   114    2
   192   112   106   am
   193   112   113    1
   194   141   140    1
   195   141   143   ar
   196   133   135   ar
   197   133   134   ar
   198   106   107    2
   199   113   114    1
