@<TRIPOS>MOLECULE
tmp/5kokA02.pdb
 187 188 0 0 0
SMALL
GASTEIGER

@<TRIPOS>ATOM
      1  N        -23.2170   26.1780    4.1000 N.3    11  GLU11      -0.1245
      2  CA       -22.2880   25.3160    4.8330 C.3    11  GLU11       0.1567
      3  C        -22.9520   24.0640    5.3860 C.2    11  GLU11       0.2260
      4  O        -22.2600   23.0670    5.6380 O.2    11  GLU11      -0.2867
      5  CB       -21.6350   26.0970    5.9730 C.3    11  GLU11       0.0388
      6  CG       -20.7440   27.2270    5.5100 C.3    11  GLU11       0.1160
      7  CD       -20.0840   27.9560    6.6670 C.2    11  GLU11       0.3649
      8  OE1      -20.6700   27.9890    7.7730 O.co2  11  GLU11      -0.2457
      9  OE2      -18.9760   28.4960    6.4710 O.co2  11  GLU11      -0.2457
     10  N         -5.8380   25.9720    7.3290 N.3    69  GLU69      -0.1231
     11  CA        -6.8700   25.0420    6.8780 C.3    69  GLU69       0.1699
     12  C         -7.3750   25.3800    5.4860 C.2    69  GLU69       0.2592
     13  O         -7.8610   24.4950    4.7740 O.2    69  GLU69      -0.2718
     14  CB        -8.0410   25.0410    7.8520 C.3    69  GLU69       0.0402
     15  CG        -7.8900   24.0610    8.9780 C.3    69  GLU69       0.1161
     16  CD        -9.1510   23.9630    9.8040 C.2    69  GLU69       0.3649
     17  OE1       -9.2540   23.0150   10.6190 O.co2  69  GLU69      -0.2457
     18  OE2      -10.0340   24.8370    9.6310 O.co2  69  GLU69      -0.2457
     19  N         -7.2840   26.6430    5.0850 N.am   70  LEU70      -0.1966
     20  CA        -7.7800   27.0470    3.7740 C.3    70  LEU70       0.1728
     21  C         -6.7890   26.7720    2.6600 C.2    70  LEU70       0.2616
     22  O         -7.1240   26.9900    1.4900 O.2    70  LEU70      -0.2715
     23  CB        -8.1330   28.5340    3.7760 C.3    70  LEU70       0.0311
     24  CG        -8.9950   28.9810    4.9540 C.3    70  LEU70       0.0022
     25  CD1       -9.2580   30.4850    4.8770 C.3    70  LEU70       0.0001
     26  CD2      -10.2970   28.2130    4.9830 C.3    70  LEU70       0.0001
     27  N         -5.5930   26.2940    2.9900 N.am   71  TYR71      -0.1974
     28  CA        -4.5620   26.0330    1.9990 C.3    71  TYR71       0.1639
     29  C         -4.1220   24.5800    1.9160 C.2    71  TYR71       0.2290
     30  O         -3.8190   24.1170    0.8160 O.2    71  TYR71      -0.2864
     31  CB        -3.3460   26.9360    2.2680 C.3    71  TYR71       0.0560
     32  CG        -3.6650   28.3840    1.9890 C.ar   71  TYR71      -0.0198
     33  CD1       -4.1950   29.2030    2.9780 C.ar   71  TYR71      -0.0009
     34  CD2       -3.4660   28.9260    0.7260 C.ar   71  TYR71      -0.0009
     35  CE1       -4.5070   30.5240    2.7200 C.ar   71  TYR71       0.0417
     36  CE2       -3.7720   30.2440    0.4580 C.ar   71  TYR71       0.0417
     37  CZ        -4.2920   31.0340    1.4550 C.ar   71  TYR71       0.1957
     38  OH        -4.5970   32.3420    1.1870 O.3    71  TYR71      -0.2866
     39  N         -4.6780   20.7830    1.4510 N.3    73  ILE73      -0.1245
     40  CA        -5.7080   19.9130    0.8910 C.3    73  ILE73       0.1561
     41  C         -5.2780   18.4650    1.0810 C.2    73  ILE73       0.2260
     42  O         -4.1900   18.0940    0.6420 O.2    73  ILE73      -0.2867
     43  CB        -5.9820   20.1900   -0.5960 C.3    73  ILE73       0.0252
     44  CG1       -6.3410   21.6570   -0.8120 C.3    73  ILE73       0.0019
     45  CG2       -7.1110   19.2970   -1.0660 C.3    73  ILE73       0.0019
     46  CD1       -6.4920   22.0290   -2.2840 C.3    73  ILE73       0.0001
     47  N         -2.0800   34.0590   -9.7420 N.3   197  GLU197     -0.1231
     48  CA        -3.3230   34.2810   -9.0020 C.3   197  GLU197      0.1699
     49  C         -3.0920   34.4580   -7.5030 C.2   197  GLU197      0.2592
     50  O         -3.9770   34.9710   -6.8090 O.2   197  GLU197     -0.2718
     51  CB        -4.3020   33.1210   -9.2500 C.3   197  GLU197      0.0402
     52  CG        -3.7710   31.7820   -8.8000 C.3   197  GLU197      0.1161
     53  CD        -4.6450   30.6080   -9.2290 C.2   197  GLU197      0.3649
     54  OE1       -4.4800   30.1160  -10.3750 O.co2 197  GLU197     -0.2457
     55  OE2       -5.4900   30.1670   -8.4130 O.co2 197  GLU197     -0.2457
     56  N         -1.9280   34.0580   -6.9930 N.am  198  HIS198     -0.1976
     57  CA        -1.5510   34.3010   -5.5960 C.3   198  HIS198      0.1656
     58  C         -0.8660   35.6500   -5.3850 C.2   198  HIS198      0.2291
     59  O         -0.6640   36.0610   -4.2330 O.2   198  HIS198     -0.2864
     60  CB        -0.5990   33.2040   -5.1070 C.3   198  HIS198      0.0771
     61  CG        -1.2440   31.8740   -4.9090 C.ar  198  HIS198      0.0820
     62  ND1       -1.4250   30.9660   -5.9330 N.ar  198  HIS198     -0.2267
     63  CD2       -1.7220   31.2820   -3.7900 C.ar  198  HIS198      0.1154
     64  CE1       -2.0060   29.8800   -5.4520 C.ar  198  HIS198      0.1986
     65  NE2       -2.1930   30.0480   -4.1560 N.ar  198  HIS198     -0.2212
     66  N        -17.1340   36.7050   -0.0220 N.3   244  GLU244     -0.1231
     67  CA       -17.0060   36.2760    1.3660 C.3   244  GLU244      0.1699
     68  C        -16.8490   34.7660    1.4720 C.2   244  GLU244      0.2592
     69  O        -16.1410   34.2670    2.3560 O.2   244  GLU244     -0.2718
     70  CB       -18.2320   36.7310    2.1590 C.3   244  GLU244      0.0402
     71  CG       -18.0230   36.8070    3.6600 C.3   244  GLU244      0.1161
     72  CD       -17.1190   37.9660    4.0650 C.2   244  GLU244      0.3649
     73  OE1      -16.8060   38.8160    3.1960 O.co2 244  GLU244     -0.2457
     74  OE2      -16.7200   38.0300    5.2530 O.co2 244  GLU244     -0.2457
     75  N        -17.5010   34.0190    0.5900 N.am  245  TYR245     -0.1962
     76  CA       -17.5410   32.5750    0.7660 C.3   245  TYR245      0.1771
     77  C        -16.3390   31.8840    0.1350 C.2   245  TYR245      0.2619
     78  O        -15.8310   30.9000    0.6790 O.2   245  TYR245     -0.2715
     79  CB       -18.8400   32.0250    0.1810 C.3   245  TYR245      0.0574
     80  CG       -18.9740   30.5300    0.2970 C.ar  245  TYR245     -0.0198
     81  CD1      -19.4080   29.9420    1.4830 C.ar  245  TYR245     -0.0009
     82  CD2      -18.6830   29.7060   -0.7820 C.ar  245  TYR245     -0.0009
     83  CE1      -19.5380   28.5620    1.5910 C.ar  245  TYR245      0.0417
     84  CE2      -18.8030   28.3310   -0.6840 C.ar  245  TYR245      0.0417
     85  CZ       -19.2400   27.7690    0.5110 C.ar  245  TYR245      0.1957
     86  OH       -19.3710   26.4010    0.6290 O.3   245  TYR245     -0.2866
     87  N        -15.9060   32.3440   -1.0330 N.am  246  ILE246     -0.1963
     88  CA       -14.9120   31.6200   -1.8130 C.3   246  ILE246      0.1727
     89  C        -13.4900   31.9660   -1.3890 C.2   246  ILE246      0.2616
     90  O        -12.6090   31.1020   -1.4110 O.2   246  ILE246     -0.2715
     91  CB       -15.1300   31.9100   -3.3110 C.3   246  ILE246      0.0290
     92  CG1      -16.4700   31.3480   -3.7630 C.3   246  ILE246      0.0022
     93  CG2      -14.0310   31.2800   -4.1470 C.3   246  ILE246      0.0023
     94  CD1      -16.4920   29.8180   -3.7240 C.3   246  ILE246      0.0001
     95  N        -13.2340   33.2320   -1.0130 N.am  247  PHE247     -0.1960
     96  CA       -11.8450   33.6710   -0.8670 C.3   247  PHE247      0.1756
     97  C        -11.4610   33.8370    0.6000 C.2   247  PHE247      0.2461
     98  O        -12.3220   34.1000    1.4450 O.2   247  PHE247     -0.2730
     99  CB       -11.6220   34.9950   -1.6100 C.3   247  PHE247      0.0574
    100  CG       -11.8360   34.8760   -3.0830 C.ar  247  PHE247     -0.0200
    101  CD1      -10.8090   34.4510   -3.9100 C.ar  247  PHE247     -0.0042
    102  CD2      -13.0860   35.1100   -3.6350 C.ar  247  PHE247     -0.0042
    103  CE1      -11.0140   34.2960   -5.2730 C.ar  247  PHE247     -0.0003
    104  CE2      -13.2900   34.9620   -4.9950 C.ar  247  PHE247     -0.0003
    105  CZ       -12.2590   34.5450   -5.8110 C.ar  247  PHE247     -0.0000
    106  N        -10.1710   33.6830    0.9380 N.am  248  PRO248     -0.2727
    107  CA        -9.7450   33.9070    2.3280 C.3   248  PRO248      0.1402
    108  C         -9.7600   35.3880    2.6660 C.2   248  PRO248      0.2269
    109  O        -10.1420   36.2060    1.8230 O.2   248  PRO248     -0.2865
    110  CB        -8.3180   33.3400    2.3690 C.3   248  PRO248      0.0296
    111  CG        -8.0800   32.7020    1.0390 C.3   248  PRO248      0.0237
    112  CD        -9.0280   33.3540    0.0740 C.3   248  PRO248      0.0939
    113  N         -7.3020   39.2430   -3.1200 N.3   252  LEU252     -0.1245
    114  CA        -6.6570   38.6930   -4.3020 C.3   252  LEU252      0.1561
    115  C         -7.1930   39.3920   -5.5480 C.2   252  LEU252      0.2260
    116  O         -8.1510   40.1690   -5.4920 O.2   252  LEU252     -0.2867
    117  CB        -6.8840   37.1830   -4.3950 C.3   252  LEU252      0.0270
    118  CG        -6.2540   36.4220   -3.2300 C.3   252  LEU252      0.0019
    119  CD1       -6.8000   35.0180   -3.2050 C.3   252  LEU252      0.0001
    120  CD2       -4.7290   36.4150   -3.3790 C.3   252  LEU252      0.0001
    121  N        -18.9790   21.0740    5.7510 N.3   314  LYS314     -0.1231
    122  CA       -18.6540   22.4310    5.3490 C.3   314  LYS314      0.1693
    123  C        -17.5980   22.4400    4.2420 C.2   314  LYS314      0.2592
    124  O        -17.7100   23.1810    3.2610 O.2   314  LYS314     -0.2718
    125  CB       -18.1800   23.2190    6.5630 C.3   314  LYS314      0.0285
    126  CG       -17.5060   24.5290    6.2670 C.3   314  LYS314      0.0035
    127  CD       -17.1560   25.1900    7.5810 C.3   314  LYS314      0.0206
    128  CE       -16.1660   26.3040    7.3930 C.3   314  LYS314      0.1093
    129  NZ       -14.9340   25.9080    8.1400 N.3   314  LYS314     -0.1314
    130  N        -16.5550   21.6170    4.3770 N.am  315  PHE315     -0.1976
    131  CA       -15.5010   21.6190    3.3710 C.3   315  PHE315      0.1639
    132  C        -15.8940   20.8670    2.1130 C.2   315  PHE315      0.2290
    133  O        -15.4740   21.2610    1.0200 O.2   315  PHE315     -0.2864
    134  CB       -14.2100   21.0570    3.9620 C.3   315  PHE315      0.0560
    135  CG       -13.4020   22.0890    4.6960 C.ar  315  PHE315     -0.0200
    136  CD1      -13.7350   22.4760    5.9840 C.ar  315  PHE315     -0.0042
    137  CD2      -12.3200   22.6970    4.0800 C.ar  315  PHE315     -0.0042
    138  CE1      -12.9850   23.4350    6.6470 C.ar  315  PHE315     -0.0003
    139  CE2      -11.5710   23.6560    4.7350 C.ar  315  PHE315     -0.0003
    140  CZ       -11.9020   24.0290    6.0160 C.ar  315  PHE315     -0.0000
    141  N        -17.9740   23.3400    0.3200 N.3   318  TYR318     -0.1227
    142  CA       -17.1260   24.3680   -0.2860 C.3   318  TYR318      0.1736
    143  C        -16.6150   23.9380   -1.6630 C.2   318  TYR318      0.2595
    144  O        -16.7020   24.6910   -2.6390 O.2   318  TYR318     -0.2718
    145  CB       -15.9400   24.7120    0.6240 C.3   318  TYR318      0.0548
    146  CG       -15.0370   25.7320   -0.0450 C.ar  318  TYR318     -0.0200
    147  CD1      -15.2840   27.0970    0.0850 C.ar  318  TYR318     -0.0009
    148  CD2      -13.9900   25.3280   -0.8740 C.ar  318  TYR318     -0.0009
    149  CE1      -14.4940   28.0410   -0.5550 C.ar  318  TYR318      0.0417
    150  CE2      -13.1930   26.2740   -1.5310 C.ar  318  TYR318      0.0417
    151  CZ       -13.4470   27.6210   -1.3620 C.ar  318  TYR318      0.1957
    152  OH       -12.6670   28.5570   -2.0060 O.3   318  TYR318     -0.2866
    153  N        -16.0350   22.7410   -1.7450 N.am  319  TRP319     -0.1976
    154  CA       -15.4460   22.3000   -3.0020 C.3   319  TRP319      0.1640
    155  C        -16.5100   22.0800   -4.0660 C.2   319  TRP319      0.2290
    156  O        -16.2860   22.3810   -5.2480 O.2   319  TRP319     -0.2864
    157  CB       -14.6120   21.0410   -2.7670 C.3   319  TRP319      0.0576
    158  CG       -13.3090   21.3770   -2.1390 C.ar  319  TRP319      0.0006
    159  CD1      -12.9270   21.1530   -0.8360 C.ar  319  TRP319      0.0946
    160  CD2      -12.2210   22.0580   -2.7650 C.ar  319  TRP319      0.0152
    161  NE1      -11.6520   21.6320   -0.6370 N.ar  319  TRP319     -0.2442
    162  CE2      -11.1970   22.1820   -1.8070 C.ar  319  TRP319      0.0810
    163  CE3      -12.0050   22.5540   -4.0600 C.ar  319  TRP319      0.0012
    164  CZ2       -9.9780   22.7910   -2.0960 C.ar  319  TRP319      0.0191
    165  CZ3      -10.7940   23.1540   -4.3450 C.ar  319  TRP319      0.0001
    166  CH2       -9.7950   23.2640   -3.3700 C.ar  319  TRP319      0.0015
    167  N        -17.4400   25.5480   -5.1530 N.3   322  PHE322     -0.1241
    168  CA       -16.3490   26.0870   -5.9550 C.3   322  PHE322      0.1605
    169  C        -16.4090   25.5620   -7.3880 C.2   322  PHE322      0.2264
    170  O        -16.2560   26.3290   -8.3440 O.2   322  PHE322     -0.2867
    171  CB       -15.0010   25.7520   -5.3290 C.3   322  PHE322      0.0534
    172  CG       -13.8510   26.3500   -6.0840 C.ar  322  PHE322     -0.0203
    173  CD1      -13.4820   27.6690   -5.8580 C.ar  322  PHE322     -0.0042
    174  CD2      -13.1650   25.6160   -7.0390 C.ar  322  PHE322     -0.0042
    175  CE1      -12.4410   28.2460   -6.5770 C.ar  322  PHE322     -0.0003
    176  CE2      -12.1160   26.1930   -7.7550 C.ar  322  PHE322     -0.0003
    177  CZ       -11.7700   27.5090   -7.5220 C.ar  322  PHE322     -0.0000
    178  N        -17.5740   28.0410  -10.5140 N.3   326  HIS326     -0.1241
    179  CA       -16.5760   28.4240  -11.4970 C.3   326  HIS326      0.1621
    180  C        -16.7780   27.7320  -12.8310 C.2   326  HIS326      0.2264
    181  O        -16.4360   28.3220  -13.8680 O.2   326  HIS326     -0.2867
    182  CB       -15.1880   28.2320  -10.8980 C.3   326  HIS326      0.0745
    183  CG       -14.9540   29.1830   -9.7750 C.ar  326  HIS326      0.0817
    184  ND1      -15.1150   28.8290   -8.4530 N.ar  326  HIS326     -0.2268
    185  CD2      -14.7080   30.5180   -9.7810 C.ar  326  HIS326      0.1154
    186  CE1      -14.9300   29.8950   -7.6890 C.ar  326  HIS326      0.1986
    187  NE2      -14.6740   30.9310   -8.4710 N.ar  326  HIS326     -0.2212
@<TRIPOS>BOND
     1   181   180    2
     2   180   179    1
     3   179   182    1
     4   179   178    1
     5   182   183    1
     6    54    53   ar
     7   185   183   ar
     8   185   187   ar
     9   183   184   ar
    10    47    48    1
    11    51    48    1
    12    51    52    1
    13    53    52    1
    14    53    55   ar
    15    48    49    1
    16   187   186   ar
    17   184   186   ar
    18   170   169    2
    19   176   177   ar
    20   176   174   ar
    21   177   175   ar
    22    49    56   am
    23    49    50    2
    24   169   168    1
    25   174   172   ar
    26    56    57    1
    27   175   173   ar
    28   172   173   ar
    29   172   171    1
    30   168   171    1
    31   168   167    1
    32    62    64   ar
    33    62    61   ar
    34   105   103   ar
    35   105   104   ar
    36    57    58    1
    37    57    60    1
    38   115   116    2
    39   115   114    1
    40    64    65   ar
    41    58    59    2
    42   103   101   ar
    43   156   155    2
    44    60    61    1
    45   104   102   ar
    46    61    63   ar
    47   117   114    1
    48   117   118    1
    49   165   163   ar
    50   165   166   ar
    51   114   113    1
    52    65    63   ar
    53    93    91    1
    54   155   154    1
    55   163   160   ar
    56   101   100   ar
    57    92    94    1
    58    92    91    1
    59   102   100   ar
    60   120   118    1
    61   166   164   ar
    62    91    88    1
    63   118   119    1
    64   100    99    1
    65   154   157    1
    66   154   153    1
    67   157   158    1
    68   160   158   ar
    69   160   162   ar
    70   144   143    2
    71    46    44    1
    72   158   159   ar
    73   164   162   ar
    74   152   151    1
    75    88    89    1
    76    88    87    1
    77   162   161   ar
    78   153   143   am
    79   143   142    1
    80    99    96    1
    81   150   151   ar
    82   150   148   ar
    83    90    89    2
    84    89    95   am
    85   151   149   ar
    86    45    43    1
    87    87    77   am
    88    95    96    1
    89   148   146   ar
    90    96    97    1
    91   159   161   ar
    92    44    43    1
    93    82    84   ar
    94    82    80   ar
    95    84    85   ar
    96    43    40    1
    97   149   147   ar
    98   142   141    1
    99   142   145    1
   100   146   147   ar
   101   146   145    1
   102    66    67    1
   103   112   106    1
   104   112   111    1
   105    77    78    2
   106    77    76    1
   107    79    80    1
   108    79    76    1
   109    80    81   ar
   110    36    34   ar
   111    36    37   ar
   112    85    86    1
   113    85    83   ar
   114    75    76    1
   115    75    68   am
   116    97   106   am
   117    97    98    2
   118    42    41    2
   119    34    32   ar
   120    30    29    2
   121    40    41    1
   122    40    39    1
   123   106   107    1
   124   133   132    2
   125   111   110    1
   126    38    37    1
   127    67    68    1
   128    67    70    1
   129    37    35   ar
   130    68    69    2
   131    81    83   ar
   132    22    21    2
   133   109   108    2
   134    29    28    1
   135    32    31    1
   136    32    33   ar
   137    28    31    1
   138    28    27    1
   139   132   131    1
   140    70    71    1
   141   107   110    1
   142   107   108    1
   143    21    27   am
   144    21    20    1
   145    35    33   ar
   146    73    72   ar
   147   124   123    2
   148   131   134    1
   149   131   130    1
   150    71    72    1
   151    20    23    1
   152    20    19    1
   153    23    24    1
   154   134   135    1
   155    72    74   ar
   156   137   135   ar
   157   137   139   ar
   158     1     2    1
   159   123   130   am
   160   123   122    1
   161   135   136   ar
   162   139   140   ar
   163    13    12    2
   164     2     3    1
   165     2     5    1
   166    25    24    1
   167    24    26    1
   168    19    12   am
   169   122   121    1
   170   122   125    1
   171     3     4    2
   172    12    11    1
   173     6     5    1
   174     6     7    1
   175   136   138   ar
   176   140   138   ar
   177   126   125    1
   178   126   127    1
   179     9     7   ar
   180     7     8   ar
   181    11    10    1
   182    11    14    1
   183   128   127    1
   184   128   129    1
   185    14    15    1
   186    15    16    1
   187    18    16   ar
   188    16    17   ar
