@<TRIPOS>MOLECULE
tmp/5kokA01.pdb
 189 190 0 0 0
SMALL
GASTEIGER

@<TRIPOS>ATOM
      1  N         -7.2840   26.6430    5.0850 N.3    70  LEU70      -0.1231
      2  CA        -7.7800   27.0470    3.7740 C.3    70  LEU70       0.1693
      3  C         -6.7890   26.7720    2.6600 C.2    70  LEU70       0.2592
      4  O         -7.1240   26.9900    1.4900 O.2    70  LEU70      -0.2718
      5  CB        -8.1330   28.5340    3.7760 C.3    70  LEU70       0.0284
      6  CG        -8.9950   28.9810    4.9540 C.3    70  LEU70       0.0019
      7  CD1       -9.2580   30.4850    4.8770 C.3    70  LEU70       0.0001
      8  CD2      -10.2970   28.2130    4.9830 C.3    70  LEU70       0.0001
      9  N         -5.5930   26.2940    2.9900 N.am   71  TYR71      -0.1976
     10  CA        -4.5620   26.0330    1.9990 C.3    71  TYR71       0.1639
     11  C         -4.1220   24.5800    1.9160 C.2    71  TYR71       0.2290
     12  O         -3.8190   24.1170    0.8160 O.2    71  TYR71      -0.2864
     13  CB        -3.3460   26.9360    2.2680 C.3    71  TYR71       0.0560
     14  CG        -3.6650   28.3840    1.9890 C.ar   71  TYR71      -0.0198
     15  CD1       -4.1950   29.2030    2.9780 C.ar   71  TYR71      -0.0009
     16  CD2       -3.4660   28.9260    0.7260 C.ar   71  TYR71      -0.0009
     17  CE1       -4.5070   30.5240    2.7200 C.ar   71  TYR71       0.0417
     18  CE2       -3.7720   30.2440    0.4580 C.ar   71  TYR71       0.0417
     19  CZ        -4.2920   31.0340    1.4550 C.ar   71  TYR71       0.1957
     20  OH        -4.5970   32.3420    1.1870 O.3    71  TYR71      -0.2866
     21  N         -4.6780   20.7830    1.4510 N.3    73  ILE73      -0.1245
     22  CA        -5.7080   19.9130    0.8910 C.3    73  ILE73       0.1561
     23  C         -5.2780   18.4650    1.0810 C.2    73  ILE73       0.2260
     24  O         -4.1900   18.0940    0.6420 O.2    73  ILE73      -0.2867
     25  CB        -5.9820   20.1900   -0.5960 C.3    73  ILE73       0.0252
     26  CG1       -6.3410   21.6570   -0.8120 C.3    73  ILE73       0.0019
     27  CG2       -7.1110   19.2970   -1.0660 C.3    73  ILE73       0.0019
     28  CD1       -6.4920   22.0290   -2.2840 C.3    73  ILE73       0.0001
     29  N         -3.5270   21.1490  -10.7270 N.3    88  PHE88      -0.1227
     30  CA        -4.4330   22.0450  -10.0260 C.3    88  PHE88       0.1736
     31  C         -4.5840   23.3160  -10.8360 C.2    88  PHE88       0.2596
     32  O         -4.3060   24.4150  -10.3580 O.2    88  PHE88      -0.2718
     33  CB        -3.9340   22.3570   -8.6180 C.3    88  PHE88       0.0547
     34  CG        -5.0440   22.5380   -7.6360 C.ar   88  PHE88      -0.0202
     35  CD1       -5.8650   21.4760   -7.3090 C.ar   88  PHE88      -0.0042
     36  CD2       -5.2710   23.7590   -7.0360 C.ar   88  PHE88      -0.0042
     37  CE1       -6.8910   21.6240   -6.4210 C.ar   88  PHE88      -0.0003
     38  CE2       -6.3070   23.9100   -6.1380 C.ar   88  PHE88      -0.0003
     39  CZ        -7.1110   22.8480   -5.8310 C.ar   88  PHE88      -0.0000
     40  N         -5.0040   23.1520  -12.0710 N.am   89  SER89      -0.1938
     41  CA        -5.0370   24.2070  -13.0740 C.3    89  SER89       0.2040
     42  C         -5.6820   23.5620  -14.2950 C.2    89  SER89       0.2485
     43  O         -5.7880   22.3310  -14.3410 O.2    89  SER89      -0.2729
     44  CB        -3.6260   24.7350  -13.3550 C.3    89  SER89       0.2129
     45  OG        -2.7400   23.6620  -13.6400 O.3    89  SER89      -0.2179
     46  N         -6.1300   24.3350  -15.2840 N.am   90  PRO90      -0.2726
     47  CA        -7.0430   23.7840  -16.2960 C.3    90  PRO90       0.1402
     48  C         -6.3720   22.7940  -17.2310 C.2    90  PRO90       0.2269
     49  O         -5.1660   22.8580  -17.4900 O.2    90  PRO90      -0.2865
     50  CB        -7.5110   25.0290  -17.0680 C.3    90  PRO90       0.0296
     51  CG        -7.2810   26.1590  -16.1290 C.3    90  PRO90       0.0237
     52  CD        -6.0650   25.8130  -15.3410 C.3    90  PRO90       0.0939
     53  N         -0.5770   29.0490  -12.9570 N.3   194  ALA194     -0.1245
     54  CA        -1.5420   29.2710  -11.8720 C.3   194  ALA194      0.1562
     55  C         -0.8660   29.7470  -10.5880 C.2   194  ALA194      0.2260
     56  O         -1.2900   29.3930   -9.4780 O.2   194  ALA194     -0.2867
     57  CB        -2.3650   28.0140  -11.5750 C.3   194  ALA194      0.0290
     58  N         -2.0800   34.0590   -9.7420 N.3   197  GLU197     -0.1231
     59  CA        -3.3230   34.2810   -9.0020 C.3   197  GLU197      0.1699
     60  C         -3.0920   34.4580   -7.5030 C.2   197  GLU197      0.2592
     61  O         -3.9770   34.9710   -6.8090 O.2   197  GLU197     -0.2718
     62  CB        -4.3020   33.1210   -9.2500 C.3   197  GLU197      0.0402
     63  CG        -3.7710   31.7820   -8.8000 C.3   197  GLU197      0.1161
     64  CD        -4.6450   30.6080   -9.2290 C.2   197  GLU197      0.3649
     65  OE1       -4.4800   30.1160  -10.3750 O.co2 197  GLU197     -0.2457
     66  OE2       -5.4900   30.1670   -8.4130 O.co2 197  GLU197     -0.2457
     67  N         -1.9280   34.0580   -6.9930 N.am  198  HIS198     -0.1976
     68  CA        -1.5510   34.3010   -5.5960 C.3   198  HIS198      0.1656
     69  C         -0.8660   35.6500   -5.3850 C.2   198  HIS198      0.2291
     70  O         -0.6640   36.0610   -4.2330 O.2   198  HIS198     -0.2864
     71  CB        -0.5990   33.2040   -5.1070 C.3   198  HIS198      0.0771
     72  CG        -1.2440   31.8740   -4.9090 C.ar  198  HIS198      0.0820
     73  ND1       -1.4250   30.9660   -5.9330 N.ar  198  HIS198     -0.2267
     74  CD2       -1.7220   31.2820   -3.7900 C.ar  198  HIS198      0.1154
     75  CE1       -2.0060   29.8800   -5.4520 C.ar  198  HIS198      0.1986
     76  NE2       -2.1930   30.0480   -4.1560 N.ar  198  HIS198     -0.2212
     77  N         -5.3880   32.6620  -15.1950 N.3   224  HIS224     -0.1241
     78  CA        -6.7740   32.8620  -15.5730 C.3   224  HIS224      0.1621
     79  C         -7.1120   34.3370  -15.4610 C.2   224  HIS224      0.2264
     80  O         -6.4820   35.0890  -14.7000 O.2   224  HIS224     -0.2867
     81  CB        -7.7260   32.0170  -14.7340 C.3   224  HIS224      0.0745
     82  CG        -7.6270   32.2590  -13.2690 C.ar  224  HIS224      0.0817
     83  ND1       -7.1560   31.3020  -12.3980 N.ar  224  HIS224     -0.2268
     84  CD2       -7.9620   33.3320  -12.5100 C.ar  224  HIS224      0.1154
     85  CE1       -7.1970   31.7750  -11.1650 C.ar  224  HIS224      0.1986
     86  NE2       -7.6790   33.0040  -11.2030 N.ar  224  HIS224     -0.2212
     87  N        -11.4650   25.6020  -18.7950 N.3   280  PRO280     -0.2116
     88  CA       -11.6740   25.4850  -17.3460 C.3   280  PRO280      0.1372
     89  C        -13.1050   25.1200  -16.9690 C.2   280  PRO280      0.2244
     90  O        -13.3040   24.3920  -15.9890 O.2   280  PRO280     -0.2868
     91  CB       -11.2770   26.8740  -16.8100 C.3   280  PRO280      0.0268
     92  CG       -11.2880   27.7810  -18.0030 C.3   280  PRO280      0.0207
     93  CD       -10.8800   26.9150  -19.1520 C.3   280  PRO280      0.0892
     94  N        -13.3370   21.4960  -17.1450 N.3   283  GLY283     -0.1210
     95  CA       -12.5150   20.9150  -16.0930 C.3   283  GLY283      0.1956
     96  C        -13.2310   20.8790  -14.7610 C.2   283  GLY283      0.2611
     97  O        -13.2180   19.8600  -14.0570 O.2   283  GLY283     -0.2717
     98  N        -13.8900   21.9770  -14.4040 N.am  284  PHE284     -0.1976
     99  CA       -14.5720   22.0130  -13.1170 C.3   284  PHE284      0.1639
    100  C        -15.7730   21.0780  -13.0890 C.2   284  PHE284      0.2290
    101  O        -16.1030   20.5290  -12.0320 O.2   284  PHE284     -0.2864
    102  CB       -15.0070   23.4370  -12.8000 C.3   284  PHE284      0.0560
    103  CG       -13.8820   24.3390  -12.4140 C.ar  284  PHE284     -0.0200
    104  CD1      -13.0670   24.0240  -11.3300 C.ar  284  PHE284     -0.0042
    105  CD2      -13.6640   25.5280  -13.0970 C.ar  284  PHE284     -0.0042
    106  CE1      -12.0350   24.8670  -10.9560 C.ar  284  PHE284     -0.0003
    107  CE2      -12.6380   26.3740  -12.7240 C.ar  284  PHE284     -0.0003
    108  CZ       -11.8220   26.0480  -11.6560 C.ar  284  PHE284     -0.0000
    109  N        -14.2140   17.7610  -12.2480 N.3   287  TRP287     -0.1241
    110  CA       -13.8820   17.7230  -10.8220 C.3   287  TRP287      0.1605
    111  C        -15.1210   17.4290   -9.9800 C.2   287  TRP287      0.2264
    112  O        -15.0940   16.5730   -9.0800 O.2   287  TRP287     -0.2867
    113  CB       -13.2610   19.0500  -10.3910 C.3   287  TRP287      0.0550
    114  CG       -11.8070   19.2230  -10.7180 C.ar  287  TRP287      0.0003
    115  CD1      -11.0510   18.4670  -11.5600 C.ar  287  TRP287      0.0946
    116  CD2      -10.9400   20.2310  -10.1920 C.ar  287  TRP287      0.0152
    117  NE1       -9.7600   18.9430  -11.5970 N.ar  287  TRP287     -0.2442
    118  CE2       -9.6680   20.0240  -10.7570 C.ar  287  TRP287      0.0810
    119  CE3      -11.1210   21.2900   -9.2970 C.ar  287  TRP287      0.0012
    120  CZ2       -8.5770   20.8260  -10.4470 C.ar  287  TRP287      0.0191
    121  CZ3      -10.0320   22.0970   -8.9950 C.ar  287  TRP287      0.0001
    122  CH2       -8.7800   21.8590   -9.5660 C.ar  287  TRP287      0.0015
    123  N        -17.9740   23.3400    0.3200 N.3   318  TYR318     -0.1227
    124  CA       -17.1260   24.3680   -0.2860 C.3   318  TYR318      0.1736
    125  C        -16.6150   23.9380   -1.6630 C.2   318  TYR318      0.2595
    126  O        -16.7020   24.6910   -2.6390 O.2   318  TYR318     -0.2718
    127  CB       -15.9400   24.7120    0.6240 C.3   318  TYR318      0.0548
    128  CG       -15.0370   25.7320   -0.0450 C.ar  318  TYR318     -0.0200
    129  CD1      -15.2840   27.0970    0.0850 C.ar  318  TYR318     -0.0009
    130  CD2      -13.9900   25.3280   -0.8740 C.ar  318  TYR318     -0.0009
    131  CE1      -14.4940   28.0410   -0.5550 C.ar  318  TYR318      0.0417
    132  CE2      -13.1930   26.2740   -1.5310 C.ar  318  TYR318      0.0417
    133  CZ       -13.4470   27.6210   -1.3620 C.ar  318  TYR318      0.1957
    134  OH       -12.6670   28.5570   -2.0060 O.3   318  TYR318     -0.2866
    135  N        -16.0350   22.7410   -1.7450 N.am  319  TRP319     -0.1976
    136  CA       -15.4460   22.3000   -3.0020 C.3   319  TRP319      0.1640
    137  C        -16.5100   22.0800   -4.0660 C.2   319  TRP319      0.2290
    138  O        -16.2860   22.3810   -5.2480 O.2   319  TRP319     -0.2864
    139  CB       -14.6120   21.0410   -2.7670 C.3   319  TRP319      0.0576
    140  CG       -13.3090   21.3770   -2.1390 C.ar  319  TRP319      0.0006
    141  CD1      -12.9270   21.1530   -0.8360 C.ar  319  TRP319      0.0946
    142  CD2      -12.2210   22.0580   -2.7650 C.ar  319  TRP319      0.0152
    143  NE1      -11.6520   21.6320   -0.6370 N.ar  319  TRP319     -0.2442
    144  CE2      -11.1970   22.1820   -1.8070 C.ar  319  TRP319      0.0810
    145  CE3      -12.0050   22.5540   -4.0600 C.ar  319  TRP319      0.0012
    146  CZ2       -9.9780   22.7910   -2.0960 C.ar  319  TRP319      0.0191
    147  CZ3      -10.7940   23.1540   -4.3450 C.ar  319  TRP319      0.0001
    148  CH2       -9.7950   23.2640   -3.3700 C.ar  319  TRP319      0.0015
    149  N        -17.4400   25.5480   -5.1530 N.3   322  PHE322     -0.1241
    150  CA       -16.3490   26.0870   -5.9550 C.3   322  PHE322      0.1605
    151  C        -16.4090   25.5620   -7.3880 C.2   322  PHE322      0.2264
    152  O        -16.2560   26.3290   -8.3440 O.2   322  PHE322     -0.2867
    153  CB       -15.0010   25.7520   -5.3290 C.3   322  PHE322      0.0534
    154  CG       -13.8510   26.3500   -6.0840 C.ar  322  PHE322     -0.0203
    155  CD1      -13.4820   27.6690   -5.8580 C.ar  322  PHE322     -0.0042
    156  CD2      -13.1650   25.6160   -7.0390 C.ar  322  PHE322     -0.0042
    157  CE1      -12.4410   28.2460   -6.5770 C.ar  322  PHE322     -0.0003
    158  CE2      -12.1160   26.1930   -7.7550 C.ar  322  PHE322     -0.0003
    159  CZ       -11.7700   27.5090   -7.5220 C.ar  322  PHE322     -0.0000
    160  N        -17.5740   28.0410  -10.5140 N.3   326  HIS326     -0.1241
    161  CA       -16.5760   28.4240  -11.4970 C.3   326  HIS326      0.1621
    162  C        -16.7780   27.7320  -12.8310 C.2   326  HIS326      0.2264
    163  O        -16.4360   28.3220  -13.8680 O.2   326  HIS326     -0.2867
    164  CB       -15.1880   28.2320  -10.8980 C.3   326  HIS326      0.0745
    165  CG       -14.9540   29.1830   -9.7750 C.ar  326  HIS326      0.0817
    166  ND1      -15.1150   28.8290   -8.4530 N.ar  326  HIS326     -0.2268
    167  CD2      -14.7080   30.5180   -9.7810 C.ar  326  HIS326      0.1154
    168  CE1      -14.9300   29.8950   -7.6890 C.ar  326  HIS326      0.1986
    169  NE2      -14.6740   30.9310   -8.4710 N.ar  326  HIS326     -0.2212
    170  N        -16.8230   30.4560  -15.9320 N.3   330  TYR330     -0.1241
    171  CA       -15.9820   30.3410  -17.1270 C.3   330  TYR330      0.1605
    172  C        -16.7880   30.0200  -18.3720 C.2   330  TYR330      0.2264
    173  O        -16.3390   30.3510  -19.4740 O.2   330  TYR330     -0.2867
    174  CB       -14.8730   29.3090  -16.9170 C.3   330  TYR330      0.0534
    175  CG       -13.7730   29.9200  -16.0750 C.ar  330  TYR330     -0.0201
    176  CD1      -12.8110   30.7470  -16.6550 C.ar  330  TYR330     -0.0009
    177  CD2      -13.7390   29.7420  -14.6980 C.ar  330  TYR330     -0.0009
    178  CE1      -11.8260   31.3410  -15.9000 C.ar  330  TYR330      0.0417
    179  CE2      -12.7490   30.3530  -13.9200 C.ar  330  TYR330      0.0417
    180  CZ       -11.7910   31.1470  -14.5310 C.ar  330  TYR330      0.1957
    181  OH       -10.8010   31.7840  -13.7860 O.3   330  TYR330     -0.2866
    182  N         -8.3490   31.8650  -20.2400 N.3   340  LEU340     -0.1245
    183  CA        -6.9610   31.6370  -19.8610 C.3   340  LEU340      0.1561
    184  C         -6.0550   32.4890  -20.7250 C.2   340  LEU340      0.2260
    185  O         -6.2670   32.5870  -21.9410 O.2   340  LEU340     -0.2867
    186  CB        -6.5590   30.1630  -20.0490 C.3   340  LEU340      0.0270
    187  CG        -7.4800   29.1340  -19.3980 C.3   340  LEU340      0.0019
    188  CD1       -6.8700   27.7470  -19.5660 C.3   340  LEU340      0.0001
    189  CD2       -7.7500   29.4690  -17.9360 C.3   340  LEU340      0.0001
@<TRIPOS>BOND
     1   185   184    2
     2   184   183    1
     3   182   183    1
     4   186   183    1
     5   186   187    1
     6   188   187    1
     7   173   172    2
     8   187   189    1
     9    93    87    1
    10    93    92    1
    11    87    88    1
    12   172   171    1
    13    92    91    1
    14    49    48    2
    15    88    89    1
    16    88    91    1
    17    48    47    1
    18    94    95    1
    19   171   174    1
    20   171   170    1
    21    50    47    1
    22    50    51    1
    23    89    90    2
    24   174   175    1
    25   176   175   ar
    26   176   178   ar
    27    47    46    1
    28    51    52    1
    29    95    96    1
    30   175   177   ar
    31   178   180   ar
    32    78    79    1
    33    78    77    1
    34    78    81    1
    35    79    80    2
    36    52    46    1
    37    46    42   am
    38    96    98   am
    39    96    97    2
    40    81    82    1
    41   177   179   ar
    42   180   179   ar
    43   180   181    1
    44    98    99    1
    45    43    42    2
    46    42    41    1
    47   163   162    2
    48    45    44    1
    49    44    41    1
    50    82    84   ar
    51    82    83   ar
    52    99   100    1
    53    99   102    1
    54   105   107   ar
    55   105   103   ar
    56   100   101    2
    57    41    40    1
    58    53    54    1
    59   162   161    1
    60   102   103    1
    61   107   108   ar
    62    84    86   ar
    63   103   104   ar
    64    83    85   ar
    65   109   110    1
    66    40    31   am
    67    54    57    1
    68    54    55    1
    69   108   106   ar
    70   117   115   ar
    71   117   118   ar
    72   115   114   ar
    73   161   164    1
    74   161   160    1
    75   104   106   ar
    76    86    85   ar
    77   164   165    1
    78    31    32    2
    79    31    30    1
    80   110   113    1
    81   110   111    1
    82   118   120   ar
    83   118   116   ar
    84    29    30    1
    85   114   113    1
    86   114   116   ar
    87    55    56    2
    88   120   122   ar
    89    65    64   ar
    90   116   119   ar
    91    30    33    1
    92   111   112    2
    93   167   165   ar
    94   167   169   ar
    95   165   166   ar
    96    58    59    1
    97   122   121   ar
    98   119   121   ar
    99    62    59    1
   100    62    63    1
   101    64    63    1
   102    64    66   ar
   103    59    60    1
   104    33    34    1
   105   169   168   ar
   106   166   168   ar
   107   152   151    2
   108   158   159   ar
   109   158   156   ar
   110    34    35   ar
   111    34    36   ar
   112   159   157   ar
   113    60    67   am
   114    60    61    2
   115   151   150    1
   116    35    37   ar
   117   156   154   ar
   118    36    38   ar
   119    67    68    1
   120   157   155   ar
   121    37    39   ar
   122    38    39   ar
   123   154   155   ar
   124   154   153    1
   125   150   153    1
   126   150   149    1
   127    73    75   ar
   128    73    72   ar
   129    68    69    1
   130    68    71    1
   131    75    76   ar
   132    69    70    2
   133   138   137    2
   134    71    72    1
   135    72    74   ar
   136   147   145   ar
   137   147   148   ar
   138    76    74   ar
   139   137   136    1
   140   145   142   ar
   141   148   146   ar
   142   136   139    1
   143   136   135    1
   144   139   140    1
   145   142   140   ar
   146   142   144   ar
   147   126   125    2
   148    28    26    1
   149   140   141   ar
   150   146   144   ar
   151   134   133    1
   152   144   143   ar
   153   135   125   am
   154   125   124    1
   155   132   133   ar
   156   132   130   ar
   157   133   131   ar
   158    27    25    1
   159   130   128   ar
   160   141   143   ar
   161    26    25    1
   162    25    22    1
   163   131   129   ar
   164   124   123    1
   165   124   127    1
   166   128   129   ar
   167   128   127    1
   168    18    16   ar
   169    18    19   ar
   170    24    23    2
   171    16    14   ar
   172    12    11    2
   173    22    23    1
   174    22    21    1
   175    20    19    1
   176    19    17   ar
   177     4     3    2
   178    11    10    1
   179    14    13    1
   180    14    15   ar
   181    10    13    1
   182    10     9    1
   183     3     9   am
   184     3     2    1
   185    17    15   ar
   186     2     5    1
   187     2     1    1
   188     5     6    1
   189     7     6    1
   190     6     8    1
