@<TRIPOS>MOLECULE
tmp/5koqA01.pdb
 192 183 0 0 0
SMALL
GASTEIGER

@<TRIPOS>ATOM
      1  N        -41.0590   -4.1310   18.0800 N.3    14  THR14      -0.1203
      2  CA       -41.6370   -4.0690   16.7340 C.3    14  THR14       0.1994
      3  C        -42.4150   -2.7840   16.4830 C.2    14  THR14       0.2618
      4  O        -42.5800   -2.3670   15.3350 O.2    14  THR14      -0.2717
      5  CB       -42.5420   -5.2830   16.4300 C.3    14  THR14       0.1784
      6  OG1      -43.5140   -5.4260   17.4700 O.3    14  THR14      -0.2211
      7  CG2      -41.7180   -6.5720   16.3130 C.3    14  THR14       0.0376
      8  N        -42.8990   -2.1640   17.5540 N.am   15  GLN15      -0.1965
      9  CA       -43.6810   -0.9490   17.4350 C.3    15  GLN15       0.1733
     10  C        -43.1510    0.1310   18.3640 C.2    15  GLN15       0.2616
     11  O        -43.1440   -0.0330   19.5900 O.2    15  GLN15      -0.2715
     12  CB       -45.1450   -1.2380   17.7240 C.3    15  GLN15       0.0408
     13  CG       -45.8320   -2.1130   16.6890 C.3    15  GLN15       0.0908
     14  CD       -47.3000   -2.2640   16.9700 C.2    15  GLN15       0.2608
     15  OE1      -48.0160   -1.2770   17.1090 O.2    15  GLN15      -0.2717
     16  NE2      -47.7610   -3.5020   17.0610 N.am   15  GLN15      -0.0878
     17  N        -42.6900    1.2240   17.7600 N.am   16  TYR16      -0.1974
     18  CA       -42.1610    2.3750   18.4810 C.3    16  TYR16       0.1639
     19  C        -43.0020    3.5810   18.1330 C.2    16  TYR16       0.2290
     20  O        -43.1690    3.9160   16.9530 O.2    16  TYR16      -0.2864
     21  CB       -40.7110    2.6380   18.0900 C.3    16  TYR16       0.0560
     22  CG       -39.7250    1.5960   18.5540 C.ar   16  TYR16      -0.0198
     23  CD1      -39.5180    0.4220   17.8190 C.ar   16  TYR16      -0.0009
     24  CD2      -38.9770    1.7960   19.7170 C.ar   16  TYR16      -0.0009
     25  CE1      -38.6120   -0.5380   18.2450 C.ar   16  TYR16       0.0417
     26  CE2      -38.0550    0.8500   20.1450 C.ar   16  TYR16       0.0417
     27  CZ       -37.8770   -0.3180   19.4090 C.ar   16  TYR16       0.1957
     28  OH       -36.9660   -1.2650   19.8310 O.3    16  TYR16      -0.2866
     29  N        -46.5710    6.6740   15.0950 N.3    32  VAL32      -0.1245
     30  CA       -45.2750    6.2290   14.6120 C.3    32  VAL32       0.1561
     31  C        -44.6410    7.3870   13.8640 C.2    32  VAL32       0.2260
     32  O        -45.2490    7.9590   12.9470 O.2    32  VAL32      -0.2867
     33  CB       -45.3870    5.0110   13.6710 C.3    32  VAL32       0.0252
     34  CG1      -44.0310    4.6570   13.0750 C.3    32  VAL32       0.0019
     35  CG2      -45.9380    3.8180   14.4160 C.3    32  VAL32       0.0019
     36  N        -42.2950    8.1180   11.2240 N.3    34  ASP34      -0.1239
     37  CA       -41.9230    7.2500   10.1190 C.3    34  ASP34       0.1674
     38  C        -41.1610    8.0060    9.0280 C.2    34  ASP34       0.2266
     39  O        -41.7290    8.8170    8.3040 O.2    34  ASP34      -0.2867
     40  CB       -43.1940    6.5610    9.5770 C.3    34  ASP34       0.1410
     41  CG       -42.9400    5.7050    8.3420 C.2    34  ASP34       0.3668
     42  OD1      -41.8050    5.2220    8.1350 O.co2  34  ASP34      -0.2456
     43  OD2      -43.8970    5.5040    7.5620 O.co2  34  ASP34      -0.2456
     44  N        -40.1250    6.6720    6.4260 N.3    36  GLY36      -0.1225
     45  CA       -40.4550    5.9660    5.1910 C.3    36  GLY36       0.1811
     46  C        -41.7300    6.4460    4.5290 C.2    36  GLY36       0.2280
     47  O        -42.0880    5.9610    3.4490 O.2    36  GLY36      -0.2866
     48  N        -49.3740    1.8660    1.9670 N.3    79  TYR79      -0.1227
     49  CA       -48.1280    1.3520    2.4880 C.3    79  TYR79       0.1736
     50  C        -47.9420   -0.0670    1.9630 C.2    79  TYR79       0.2596
     51  O        -48.8840   -0.6760    1.4470 O.2    79  TYR79      -0.2718
     52  CB       -48.1270    1.3730    4.0120 C.3    79  TYR79       0.0548
     53  CG       -48.3900    2.7360    4.6190 C.ar   79  TYR79      -0.0200
     54  CD1      -47.4070    3.7330    4.6060 C.ar   79  TYR79      -0.0009
     55  CD2      -49.6180    3.0270    5.2280 C.ar   79  TYR79      -0.0009
     56  CE1      -47.6450    4.9790    5.1700 C.ar   79  TYR79       0.0417
     57  CE2      -49.8590    4.2690    5.7960 C.ar   79  TYR79       0.0417
     58  CZ       -48.8710    5.2390    5.7640 C.ar   79  TYR79       0.1957
     59  OH       -49.0980    6.4710    6.3240 O.3    79  TYR79      -0.2866
     60  N        -46.7190   -0.5780    2.0940 N.am   80  SER80      -0.1938
     61  CA       -46.3630   -1.9370    1.6770 C.3    80  SER80       0.2055
     62  C        -47.1260   -3.0450    2.4220 C.2    80  SER80       0.2643
     63  O        -47.2900   -4.1420    1.8860 O.2    80  SER80      -0.2714
     64  CB       -44.8460   -2.1510    1.8150 C.3    80  SER80       0.2130
     65  OG       -44.3830   -1.8400    3.1270 O.3    80  SER80      -0.2179
     66  N        -47.5860   -2.7490    3.6400 N.am   81  THR81      -0.1950
     67  CA       -48.2020   -3.7470    4.5250 C.3    81  THR81       0.1897
     68  C        -49.7280   -3.5960    4.6230 C.2    81  THR81       0.2313
     69  O        -50.4040   -4.4090    5.2720 O.2    81  THR81      -0.2863
     70  CB       -47.6160   -3.6860    5.9590 C.3    81  THR81       0.1794
     71  OG1      -48.2220   -2.6030    6.6810 O.3    81  THR81      -0.2208
     72  CG2      -46.0880   -3.5250    5.9510 C.3    81  THR81       0.0378
     73  N        -53.9460   -4.7490    8.6190 N.3   114  PRO114     -0.2102
     74  CA       -53.1520   -5.1160    9.7990 C.3   114  PRO114      0.1504
     75  C        -53.4130   -4.2660   11.0500 C.2   114  PRO114      0.2575
     76  O        -52.7570   -4.4840   12.0760 O.2   114  PRO114     -0.2718
     77  CB       -51.7270   -4.8430    9.3210 C.3   114  PRO114      0.0282
     78  CG       -51.8810   -3.6450    8.4370 C.3   114  PRO114      0.0208
     79  CD       -53.2150   -3.8070    7.7450 C.3   114  PRO114      0.0893
     80  N        -54.3410   -3.3130   10.9680 N.am  115  PHE115     -0.1977
     81  CA       -54.3620   -2.2260   11.9460 C.3   115  PHE115      0.1639
     82  C        -54.8360   -2.5420   13.3620 C.2   115  PHE115      0.2290
     83  O        -54.4880   -1.8290   14.2990 O.2   115  PHE115     -0.2864
     84  CB       -54.9540   -0.9370   11.3530 C.3   115  PHE115      0.0560
     85  CG       -54.0680   -0.3290   10.3020 C.ar  115  PHE115     -0.0200
     86  CD1      -52.9190    0.3820   10.6650 C.ar  115  PHE115     -0.0042
     87  CD2      -54.3420   -0.5210    8.9420 C.ar  115  PHE115     -0.0042
     88  CE1      -52.0770    0.9060    9.6940 C.ar  115  PHE115     -0.0003
     89  CE2      -53.5010    0.0050    7.9650 C.ar  115  PHE115     -0.0003
     90  CZ       -52.3670    0.7190    8.3420 C.ar  115  PHE115     -0.0000
     91  N        -53.5310   -4.8900   14.8630 N.3   117  LEU117     -0.1231
     92  CA       -52.2610   -5.2670   15.4710 C.3   117  LEU117      0.1693
     93  C        -51.4260   -4.0650   15.9180 C.2   117  LEU117      0.2591
     94  O        -50.4300   -4.2350   16.6350 O.2   117  LEU117     -0.2718
     95  CB       -51.4540   -6.1800   14.5380 C.3   117  LEU117      0.0284
     96  CG       -52.0820   -7.5010   14.0530 C.3   117  LEU117      0.0019
     97  CD1      -51.2500   -8.1100   12.9330 C.3   117  LEU117      0.0001
     98  CD2      -52.2470   -8.5100   15.1800 C.3   117  LEU117      0.0001
     99  N        -51.8390   -2.8650   15.5100 N.am  118  ALA118     -0.1980
    100  CA       -51.1420   -1.6240   15.8490 C.3   118  ALA118      0.1597
    101  C        -51.4700   -1.1650   17.2560 C.2   118  ALA118      0.2287
    102  O        -52.6400   -1.0020   17.6190 O.2   118  ALA118     -0.2864
    103  CB       -51.4750   -0.5170   14.8530 C.3   118  ALA118      0.0319
    104  N        -50.1050    1.7290   18.1320 N.3   120  PHE120     -0.1241
    105  CA       -50.2250    3.1260   17.7580 C.3   120  PHE120      0.1605
    106  C        -51.5610    3.3800   17.0740 C.2   120  PHE120      0.2264
    107  O        -52.1500    2.4640   16.4980 O.2   120  PHE120     -0.2867
    108  CB       -49.0590    3.5330   16.8450 C.3   120  PHE120      0.0534
    109  CG       -48.9030    2.6700   15.6090 C.ar  120  PHE120     -0.0203
    110  CD1      -48.1240    1.5000   15.6450 C.ar  120  PHE120     -0.0042
    111  CD2      -49.4940    3.0460   14.3910 C.ar  120  PHE120     -0.0042
    112  CE1      -47.9570    0.7140   14.5060 C.ar  120  PHE120     -0.0003
    113  CE2      -49.3320    2.2630   13.2540 C.ar  120  PHE120     -0.0003
    114  CZ       -48.5620    1.0970   13.3090 C.ar  120  PHE120     -0.0000
    115  N        -49.8420    7.7640   12.1630 N.3   123  VAL123     -0.1245
    116  CA       -48.4710    7.9250   11.6710 C.3   123  VAL123      0.1561
    117  C        -48.1360    9.4050   11.5090 C.2   123  VAL123      0.2260
    118  O        -48.9380   10.1830   10.9850 O.2   123  VAL123     -0.2867
    119  CB       -48.2450    7.1610   10.3260 C.3   123  VAL123      0.0252
    120  CG1      -46.8440    7.3870    9.7700 C.3   123  VAL123      0.0019
    121  CG2      -48.4900    5.6630   10.4940 C.3   123  VAL123      0.0019
    122  N        -33.8120    4.0610   19.3380 N.3   158  TYR158     -0.1241
    123  CA       -34.7420    2.9620   19.6480 C.3   158  TYR158      0.1605
    124  C        -34.0800    2.0110   20.6240 C.2   158  TYR158      0.2264
    125  O        -33.0440    1.4110   20.3100 O.2   158  TYR158     -0.2867
    126  CB       -35.1650    2.1870   18.3890 C.3   158  TYR158      0.0534
    127  CG       -36.2100    2.8410   17.4960 C.ar  158  TYR158     -0.0201
    128  CD1      -36.8500    4.0300   17.8610 C.ar  158  TYR158     -0.0009
    129  CD2      -36.5900    2.2380   16.2920 C.ar  158  TYR158     -0.0009
    130  CE1      -37.8080    4.6070   17.0460 C.ar  158  TYR158      0.0417
    131  CE2      -37.5540    2.8120   15.4700 C.ar  158  TYR158      0.0417
    132  CZ       -38.1560    3.9990   15.8570 C.ar  158  TYR158      0.1957
    133  OH       -39.1130    4.5810   15.0650 O.3   158  TYR158     -0.2866
    134  N        -33.4850    1.9720    2.0500 N.3   219  LEU219     -0.1245
    135  CA       -34.3450    2.9460    2.7060 C.3   219  LEU219      0.1561
    136  C        -34.1780    2.8400    4.2200 C.2   219  LEU219      0.2260
    137  O        -34.2810    1.7560    4.7870 O.2   219  LEU219     -0.2867
    138  CB       -35.8060    2.6950    2.3270 C.3   219  LEU219      0.0270
    139  CG       -36.8680    3.6490    2.8800 C.3   219  LEU219      0.0019
    140  CD1      -37.0010    4.8670    1.9800 C.3   219  LEU219      0.0001
    141  CD2      -38.2090    2.9430    3.0320 C.3   219  LEU219      0.0001
    142  N        -35.8230    3.4300    7.4470 N.3   221  ASP221     -0.1225
    143  CA       -37.2620    3.4730    7.7120 C.3   221  ASP221      0.1805
    144  C        -37.5800    3.2380    9.1960 C.2   221  ASP221      0.2598
    145  O        -37.8070    2.1010    9.6330 O.2   221  ASP221     -0.2718
    146  CB       -37.9830    2.4500    6.8120 C.3   221  ASP221      0.1424
    147  CG       -39.5190    2.5270    6.8960 C.2   221  ASP221      0.3668
    148  OD1      -40.0770    3.2660    7.7260 O.co2 221  ASP221     -0.2456
    149  OD2      -40.1880    1.8220    6.1090 O.co2 221  ASP221     -0.2456
    150  N        -37.6420    4.3370    9.9440 N.am  222  THR222     -0.1939
    151  CA       -37.9110    4.3160   11.3830 C.3   222  THR222      0.2028
    152  C        -39.3020    3.7760   11.7070 C.2   222  THR222      0.2643
    153  O        -39.5780    3.4020   12.8530 O.2   222  THR222     -0.2714
    154  CB       -37.7690    5.7200   12.0050 C.3   222  THR222      0.1808
    155  OG1      -38.7310    6.6140   11.4250 O.3   222  THR222     -0.2208
    156  CG2      -36.3600    6.2700   11.8010 C.3   222  THR222      0.0379
    157  N        -40.1640    3.7410   10.6900 N.am  223  GLY223     -0.1939
    158  CA       -41.5360    3.2810   10.8360 C.3   223  GLY223      0.2014
    159  C        -41.7110    1.7980   10.6240 C.2   223  GLY223      0.2639
    160  O        -42.8120    1.2810   10.7960 O.2   223  GLY223     -0.2714
    161  N        -40.6280    1.1200   10.2380 N.am  224  ALA224     -0.1963
    162  CA       -40.6290   -0.3280   10.0050 C.3   224  ALA224      0.1728
    163  C        -40.0480   -1.0680   11.2050 C.2   224  ALA224      0.2616
    164  O        -39.1300   -0.5720   11.8720 O.2   224  ALA224     -0.2715
    165  CB       -39.8530   -0.6660    8.7430 C.3   224  ALA224      0.0334
    166  N        -40.6050   -2.2460   11.4820 N.am  225  SER225     -0.1950
    167  CA       -40.1380   -3.1090   12.5590 C.3   225  SER225      0.1924
    168  C        -38.7880   -3.7410   12.2560 C.2   225  SER225      0.2314
    169  O        -37.9320   -3.8710   13.1390 O.2   225  SER225     -0.2863
    170  CB       -41.1470   -4.2270   12.7960 C.3   225  SER225      0.2116
    171  OG       -42.4110   -3.7100   13.1380 O.3   225  SER225     -0.2180
    172  N        -40.3150   -7.7550    1.9990 N.3   298  MET298     -0.1245
    173  CA       -41.1950   -6.6000    1.7820 C.3   298  MET298      0.1570
    174  C        -40.8650   -6.0020    0.4230 C.2   298  MET298      0.2261
    175  O        -39.8180   -5.3750    0.2460 O.2   298  MET298     -0.2867
    176  CB       -41.0630   -5.5650    2.9160 C.3   298  MET298      0.0387
    177  CG       -42.0860   -4.4390    2.9080 C.3   298  MET298      0.0595
    178  SD       -42.1900   -3.5130    4.4650 S.3   298  MET298     -0.1393
    179  CE       -40.9110   -2.2710    4.2810 C.3   298  MET298      0.0692
    180  N        -41.3220   -3.3410   -2.0880 N.3   300  ILE300     -0.1245
    181  CA       -41.7160   -1.9460   -2.2660 C.3   300  ILE300      0.1561
    182  C        -41.6120   -1.6210   -3.7650 C.2   300  ILE300      0.2260
    183  O        -40.5740   -1.9020   -4.3770 O.2   300  ILE300     -0.2867
    184  CB       -40.8660   -0.9940   -1.3770 C.3   300  ILE300      0.0252
    185  CG1      -40.9030   -1.4530    0.0920 C.3   300  ILE300      0.0019
    186  CG2      -41.3680    0.4460   -1.4720 C.3   300  ILE300      0.0019
    187  CD1      -39.6860   -1.0740    0.9120 C.3   300  ILE300      0.0001
    188  N        -36.4770   -0.9180   12.6150 N.3   312  ALA312     -0.1245
    189  CA       -36.1440   -0.9110   14.0430 C.3   312  ALA312      0.1562
    190  C        -35.0500   -1.9030   14.4610 C.2   312  ALA312      0.2260
    191  O        -34.2820   -1.6050   15.3790 O.2   312  ALA312     -0.2867
    192  CB       -37.3940   -1.0810   14.8900 C.3   312  ALA312      0.0290
@<TRIPOS>BOND
     1   183   182    2
     2   182   181    1
     3   181   180    1
     4   181   184    1
     5   186   184    1
     6   184   185    1
     7   185   187    1
     8   175   174    2
     9   174   173    1
    10    51    50    2
    11    61    64    1
    12    61    60    1
    13    61    62    1
    14   173   172    1
    15   173   176    1
    16    64    65    1
    17    63    62    2
    18    50    60   am
    19    50    49    1
    20    48    49    1
    21   140   139    1
    22   134   135    1
    23   138   135    1
    24   138   139    1
    25    62    66   am
    26    49    52    1
    27   135   136    1
    28   139   141    1
    29   177   176    1
    30   177   178    1
    31    47    46    2
    32    66    67    1
    33    52    53    1
    34   136   137    2
    35   179   178    1
    36    67    68    1
    37    67    70    1
    38    46    45    1
    39    54    53   ar
    40    54    56   ar
    41    53    55   ar
    42    68    69    2
    43    56    58   ar
    44    45    44    1
    45    55    57   ar
    46    58    57   ar
    47    58    59    1
    48    72    70    1
    49    70    71    1
    50   149   147   ar
    51   146   147    1
    52   146   143    1
    53   147   148   ar
    54   142   143    1
    55    43    41   ar
    56   143   144    1
    57    79    78    1
    58    79    73    1
    59    89    90   ar
    60    89    87   ar
    61    42    41   ar
    62    39    38    2
    63    41    40    1
    64    90    88   ar
    65    78    77    1
    66    73    74    1
    67   165   162    1
    68    87    85   ar
    69    38    37    1
    70   144   145    2
    71   144   150   am
    72    77    74    1
    73    40    37    1
    74    88    86   ar
    75   120   119    1
    76    74    75    1
    77   150   151    1
    78   162   161    1
    79   162   163    1
    80    37    36    1
    81   161   159   am
    82    85    86   ar
    83    85    84    1
    84   119   121    1
    85   119   116    1
    86   159   160    2
    87   159   158    1
    88   157   158    1
    89   157   152   am
    90    80    75   am
    91    80    81    1
    92   118   117    2
    93    75    76    2
    94   163   166   am
    95   163   164    2
    96    84    81    1
    97   151   152    1
    98   151   154    1
    99   155   154    1
   100   166   167    1
   101   117   116    1
   102   116   115    1
   103   152   153    2
   104   156   154    1
   105    81    82    1
   106   168   167    1
   107   168   169    2
   108   167   170    1
   109   188   189    1
   110   170   171    1
   111    97    96    1
   112    32    31    2
   113    34    33    1
   114   113   114   ar
   115   113   111   ar
   116   114   112   ar
   117    82    83    2
   118    33    35    1
   119    33    30    1
   120    31    30    1
   121   189   190    1
   122   189   192    1
   123    96    95    1
   124    96    98    1
   125   111   109   ar
   126   190   191    2
   127   112   110   ar
   128    95    92    1
   129    30    29    1
   130   103   100    1
   131    91    92    1
   132   133   132    1
   133     4     3    2
   134   131   132   ar
   135   131   129   ar
   136    92    93    1
   137    99   100    1
   138    99    93   am
   139   109   110   ar
   140   109   108    1
   141   100   101    1
   142   132   130   ar
   143    93    94    2
   144   129   127   ar
   145     7     5    1
   146     5     2    1
   147     5     6    1
   148     3     2    1
   149     3     8   am
   150   107   106    2
   151    13    14    1
   152    13    12    1
   153     2     1    1
   154   108   105    1
   155    20    19    2
   156    14    16   am
   157    14    15    2
   158   130   128   ar
   159   106   105    1
   160   101   102    2
   161     9     8    1
   162     9    12    1
   163     9    10    1
   164   127   128   ar
   165   127   126    1
   166   105   104    1
   167    17    10   am
   168    17    18    1
   169    23    25   ar
   170    23    22   ar
   171    21    18    1
   172    21    22    1
   173    19    18    1
   174    25    27   ar
   175    10    11    2
   176   126   123    1
   177    22    24   ar
   178   122   123    1
   179    27    28    1
   180    27    26   ar
   181   123   124    1
   182    24    26   ar
   183   125   124    2
