@<TRIPOS>MOLECULE
tmp/5kotA02.pdb
 105 106 0 0 0
SMALL
GASTEIGER

@<TRIPOS>ATOM
      1  N        -14.1200  -42.3420   14.9600 N.3   180  GLY180     -0.1210
      2  CA       -15.2360  -42.5040   15.8660 C.3   180  GLY180      0.1956
      3  C        -16.2220  -43.5310   15.3580 C.2   180  GLY180      0.2612
      4  O        -15.9350  -44.3040   14.4460 O.2   180  GLY180     -0.2717
      5  N        -17.4060  -43.5060   15.9460 N.am  181  ASN181     -0.1960
      6  CA       -18.4470  -44.4720   15.6320 C.3   181  ASN181      0.1819
      7  C        -19.2980  -43.9990   14.4760 C.2   181  ASN181      0.2621
      8  O        -19.3910  -42.8040   14.2110 O.2   181  ASN181     -0.2715
      9  CB       -19.3180  -44.7090   16.8690 C.3   181  ASN181      0.1195
     10  CG       -18.5470  -45.3440   18.0040 C.2   181  ASN181      0.2630
     11  OD1      -18.4790  -44.8020   19.1040 O.2   181  ASN181     -0.2716
     12  ND2      -17.9450  -46.4870   17.7380 N.am  181  ASN181     -0.0877
     13  N        -19.8880  -44.9490   13.7640 N.am  182  PHE182     -0.1960
     14  CA       -20.9450  -44.6400   12.8260 C.3   182  PHE182      0.1771
     15  C        -22.2160  -44.3190   13.5930 C.2   182  PHE182      0.2619
     16  O        -22.5110  -44.9500   14.6100 O.2   182  PHE182     -0.2715
     17  CB       -21.2200  -45.8010   11.8810 C.3   182  PHE182      0.0574
     18  CG       -20.2960  -45.8490   10.7180 C.ar  182  PHE182     -0.0200
     19  CD1      -20.4400  -44.9520    9.6830 C.ar  182  PHE182     -0.0042
     20  CD2      -19.2650  -46.7800   10.6640 C.ar  182  PHE182     -0.0042
     21  CE1      -19.5860  -44.9730    8.5980 C.ar  182  PHE182     -0.0003
     22  CE2      -18.4100  -46.8160    9.5720 C.ar  182  PHE182     -0.0003
     23  CZ       -18.5680  -45.9070    8.5410 C.ar  182  PHE182     -0.0000
     24  N        -22.9380  -43.3130   13.1100 N.am  183  HIS183     -0.1973
     25  CA       -24.3100  -43.0740   13.5090 C.3   183  HIS183      0.1656
     26  C        -25.1940  -43.6130   12.3900 C.2   183  HIS183      0.2291
     27  O        -25.1250  -43.1350   11.2570 O.2   183  HIS183     -0.2864
     28  CB       -24.5510  -41.5940   13.7140 C.3   183  HIS183      0.0771
     29  CG       -25.9710  -41.2610   14.0250 C.ar  183  HIS183      0.0820
     30  ND1      -26.6210  -40.1770   13.4710 N.ar  183  HIS183     -0.2267
     31  CD2      -26.8730  -41.8730   14.8270 C.ar  183  HIS183      0.1154
     32  CE1      -27.8590  -40.1310   13.9280 C.ar  183  HIS183      0.1986
     33  NE2      -28.0390  -41.1500   14.7490 N.ar  183  HIS183     -0.2212
     34  N        -29.5490  -36.3000   15.7860 N.3   267  LYS267     -0.1231
     35  CA       -28.2880  -35.5670   15.9200 C.3   267  LYS267      0.1693
     36  C        -28.2100  -34.4030   14.9410 C.2   267  LYS267      0.2592
     37  O        -28.8180  -34.4250   13.8770 O.2   267  LYS267     -0.2718
     38  CB       -27.1030  -36.4970   15.6770 C.3   267  LYS267      0.0285
     39  CG       -27.0020  -37.6260   16.6890 C.3   267  LYS267      0.0035
     40  CD       -25.7800  -38.5040   16.4750 C.3   267  LYS267      0.0206
     41  CE       -24.4970  -37.6910   16.4500 C.3   267  LYS267      0.1093
     42  NZ       -23.3070  -38.5400   16.6900 N.3   267  LYS267     -0.1314
     43  N        -27.3890  -33.4310   15.3080 N.am  268  GLU268     -0.1966
     44  CA       -27.1820  -32.2050   14.5670 C.3   268  GLU268      0.1733
     45  C        -25.9100  -32.4010   13.7120 C.2   268  GLU268      0.2616
     46  O        -24.8010  -32.4750   14.2440 O.2   268  GLU268     -0.2715
     47  CB       -27.0190  -31.0570   15.5800 C.3   268  GLU268      0.0429
     48  CG       -27.9150  -29.8340   15.4630 C.3   268  GLU268      0.1163
     49  CD       -29.3420  -30.1070   15.0230 C.2   268  GLU268      0.3649
     50  OE1      -30.1810  -30.4620   15.8650 O.co2 268  GLU268     -0.2457
     51  OE2      -29.6250  -29.9330   13.8260 O.co2 268  GLU268     -0.2457
     52  N        -26.0790  -32.5390   12.3990 N.am  269  TYR269     -0.1960
     53  CA       -24.9470  -32.6060   11.4620 C.3   269  TYR269      0.1771
     54  C        -24.6550  -31.1960   10.9830 C.2   269  TYR269      0.2620
     55  O        -25.4270  -30.6150   10.2320 O.2   269  TYR269     -0.2715
     56  CB       -25.2590  -33.5250   10.2950 C.3   269  TYR269      0.0574
     57  CG       -25.1780  -34.9860   10.6650 C.ar  269  TYR269     -0.0198
     58  CD1      -26.2010  -35.5920   11.3810 C.ar  269  TYR269     -0.0009
     59  CD2      -24.0700  -35.7610   10.3110 C.ar  269  TYR269     -0.0009
     60  CE1      -26.1420  -36.9320   11.7160 C.ar  269  TYR269      0.0417
     61  CE2      -23.9960  -37.1040   10.6600 C.ar  269  TYR269      0.0417
     62  CZ       -25.0420  -37.6810   11.3540 C.ar  269  TYR269      0.1957
     63  OH       -25.0130  -38.9980   11.7200 O.3   269  TYR269     -0.2866
     64  N        -23.5450  -30.6480   11.4460 N.am  270  THR270     -0.1951
     65  CA       -23.2820  -29.2260   11.3410 C.3   270  THR270      0.1897
     66  C        -22.1940  -28.9760   10.3070 C.2   270  THR270      0.2313
     67  O        -21.1070  -29.5540   10.3940 O.2   270  THR270     -0.2863
     68  CB       -22.8910  -28.6790   12.7130 C.3   270  THR270      0.1794
     69  OG1      -24.0050  -28.8340   13.6020 O.3   270  THR270     -0.2208
     70  CG2      -22.5190  -27.2140   12.6390 C.3   270  THR270      0.0378
     71  N        -18.7600  -36.0570    6.2410 N.3   315  PHE315     -0.1241
     72  CA       -19.3270  -37.2490    6.8380 C.3   315  PHE315      0.1605
     73  C        -19.1410  -38.4540    5.9170 C.2   315  PHE315      0.2264
     74  O        -19.8500  -38.6190    4.9240 O.2   315  PHE315     -0.2867
     75  CB       -20.7880  -36.9900    7.2050 C.3   315  PHE315      0.0534
     76  CG       -20.9460  -35.8370    8.1450 C.ar  315  PHE315     -0.0203
     77  CD1      -20.5320  -35.9530    9.4600 C.ar  315  PHE315     -0.0042
     78  CD2      -21.4480  -34.6220    7.7060 C.ar  315  PHE315     -0.0042
     79  CE1      -20.6310  -34.8840   10.3350 C.ar  315  PHE315     -0.0003
     80  CE2      -21.5450  -33.5420    8.5750 C.ar  315  PHE315     -0.0003
     81  CZ       -21.1380  -33.6740    9.8900 C.ar  315  PHE315     -0.0000
     82  N        -23.3230  -42.6240    9.1720 N.3   328  PHE328     -0.1227
     83  CA       -22.4130  -41.4790    9.0480 C.3   328  PHE328      0.1736
     84  C        -21.3540  -41.5320   10.1230 C.2   328  PHE328      0.2595
     85  O        -21.6530  -41.8160   11.2830 O.2   328  PHE328     -0.2718
     86  CB       -23.1570  -40.1550    9.1800 C.3   328  PHE328      0.0547
     87  CG       -24.1250  -39.8870    8.0730 C.ar  328  PHE328     -0.0202
     88  CD1      -23.6810  -39.7570    6.7690 C.ar  328  PHE328     -0.0042
     89  CD2      -25.4850  -39.7380    8.3370 C.ar  328  PHE328     -0.0042
     90  CE1      -24.5680  -39.5080    5.7440 C.ar  328  PHE328     -0.0003
     91  CE2      -26.3770  -39.4700    7.3130 C.ar  328  PHE328     -0.0003
     92  CZ       -25.9190  -39.3540    6.0160 C.ar  328  PHE328     -0.0000
     93  N        -20.1150  -41.2700    9.7240 N.am  329  ALA329     -0.1966
     94  CA       -19.0130  -41.0770   10.6530 C.3   329  ALA329      0.1728
     95  C        -18.2210  -39.8480   10.2070 C.2   329  ALA329      0.2616
     96  O        -18.3350  -39.4160    9.0550 O.2   329  ALA329     -0.2715
     97  CB       -18.1310  -42.3120   10.6920 C.3   329  ALA329      0.0334
     98  N        -17.4500  -39.2730   11.1270 N.am  330  LEU330     -0.1977
     99  CA       -16.5930  -38.1270   10.8040 C.3   330  LEU330      0.1596
    100  C        -15.5050  -38.5880    9.8400 C.2   330  LEU330      0.2287
    101  O        -14.7800  -39.5250   10.1540 O.2   330  LEU330     -0.2864
    102  CB       -15.9390  -37.5440   12.0530 C.3   330  LEU330      0.0297
    103  CG       -16.8370  -36.8630   13.0870 C.3   330  LEU330      0.0022
    104  CD1      -16.0070  -36.4000   14.2730 C.3   330  LEU330      0.0001
    105  CD2      -17.5810  -35.6930   12.4780 C.3   330  LEU330      0.0001
@<TRIPOS>BOND
     1    74    73    2
     2    90    92   ar
     3    90    88   ar
     4    73    72    1
     5    92    91   ar
     6    71    72    1
     7    88    87   ar
     8    72    75    1
     9    75    76    1
    10    91    89   ar
    11    78    76   ar
    12    78    80   ar
    13    87    89   ar
    14    87    86    1
    15    76    77   ar
    16    23    21   ar
    17    23    22   ar
    18    80    81   ar
    19    21    19   ar
    20    83    82    1
    21    83    86    1
    22    83    84    1
    23    96    95    2
    24    77    79   ar
    25    22    20   ar
    26    19    18   ar
    27    93    84   am
    28    93    94    1
    29   100   101    2
    30   100    99    1
    31    81    79   ar
    32    84    85    2
    33    95    94    1
    34    95    98   am
    35    55    54    2
    36    56    57    1
    37    56    53    1
    38    66    67    2
    39    66    65    1
    40    59    61   ar
    41    59    57   ar
    42    94    97    1
    43    61    62   ar
    44    20    18   ar
    45    57    58   ar
    46    18    17    1
    47    99    98    1
    48    99   102    1
    49    54    64   am
    50    54    53    1
    51    27    26    2
    52    65    64    1
    53    65    68    1
    54    62    60   ar
    55    62    63    1
    56    58    60   ar
    57    53    52    1
    58    17    14    1
    59   102   103    1
    60    26    25    1
    61    52    45   am
    62   105   103    1
    63    70    68    1
    64    68    69    1
    65    14    15    1
    66    14    13    1
    67   103   104    1
    68    24    25    1
    69    24    15   am
    70    30    32   ar
    71    30    29   ar
    72    25    28    1
    73    15    16    2
    74    45    46    2
    75    45    44    1
    76    28    29    1
    77    13     7   am
    78    51    49   ar
    79    37    36    2
    80    32    33   ar
    81    29    31   ar
    82     8     7    2
    83     4     3    2
    84     7     6    1
    85    44    43    1
    86    44    47    1
    87    33    31   ar
    88    36    43   am
    89    36    35    1
    90     1     2    1
    91    49    48    1
    92    49    50   ar
    93     3     2    1
    94     3     5   am
    95    48    47    1
    96     6     5    1
    97     6     9    1
    98    38    35    1
    99    38    39    1
   100    34    35    1
   101    41    40    1
   102    41    42    1
   103    40    39    1
   104     9    10    1
   105    12    10   am
   106    10    11    2
