@<TRIPOS>MOLECULE
tmp/5kp2B01.pdb
 137 128 0 0 0
SMALL
GASTEIGER

@<TRIPOS>ATOM
      1  N         11.7790    2.2650   13.7350 N.3    81  CYS81      -0.1235
      2  CA        12.1520    1.2720   12.7340 C.3    81  CYS81       0.1677
      3  C         12.3300    1.9300   11.3540 C.2    81  CYS81       0.2270
      4  O         12.4240    1.2430   10.3430 O.2    81  CYS81      -0.2867
      5  CB        11.1210    0.1490   12.6890 C.3    81  CYS81       0.0956
      6  SG         9.4580    0.7080   12.2490 S.3    81  CYS81      -0.0801
      7  N          9.9440   -2.2550   17.0030 N.3   111  ALA111     -0.1231
      8  CA         8.7500   -1.8500   16.2670 C.3   111  ALA111      0.1694
      9  C          7.8880   -0.8980   17.1200 C.2   111  ALA111      0.2591
     10  O          8.4410   -0.0530   17.8380 O.2   111  ALA111     -0.2718
     11  CB         8.0000   -3.0910   15.7800 C.3   111  ALA111      0.0304
     12  N          6.5580   -1.0050   17.0660 N.am  112  ALA112     -0.1980
     13  CA         5.7120   -0.0480   17.7650 C.3   112  ALA112      0.1597
     14  C          5.8400   -0.1220   19.2850 C.2   112  ALA112      0.2287
     15  O          5.5640    0.8710   19.9670 O.2   112  ALA112     -0.2864
     16  CB         4.2680   -0.2030   17.3490 C.3   112  ALA112      0.0319
     17  N          7.0620    6.0750    8.2860 N.3   142  LEU142     -0.1245
     18  CA         6.5980    4.8120    7.7020 C.3   142  LEU142      0.1561
     19  C          6.2140    4.9200    6.2280 C.2   142  LEU142      0.2260
     20  O          6.2620    3.9130    5.4880 O.2   142  LEU142     -0.2867
     21  CB         5.4260    4.2550    8.5080 C.3   142  LEU142      0.0270
     22  CG         5.6890    4.0270   10.0030 C.3   142  LEU142      0.0019
     23  CD1        4.3990    3.5870   10.6870 C.3   142  LEU142      0.0001
     24  CD2        6.8090    3.0180   10.2420 C.3   142  LEU142      0.0001
     25  N          8.2300    3.1620    3.5110 N.3   145  TYR145     -0.1227
     26  CA         8.0910    1.7100    3.2690 C.3   145  TYR145      0.1736
     27  C          6.9430    1.2370    2.3590 C.2   145  TYR145      0.2595
     28  O          6.9960    0.1070    1.8350 O.2   145  TYR145     -0.2718
     29  CB         7.9120    0.9860    4.6170 C.3   145  TYR145      0.0548
     30  CG         9.1580    0.9200    5.4680 C.ar  145  TYR145     -0.0200
     31  CD1       10.1980    0.0790    5.1250 C.ar  145  TYR145     -0.0009
     32  CD2        9.2890    1.6830    6.6240 C.ar  145  TYR145     -0.0009
     33  CE1       11.3480    0.0070    5.9050 C.ar  145  TYR145      0.0417
     34  CE2       10.4300    1.6120    7.4120 C.ar  145  TYR145      0.0417
     35  CZ        11.4610    0.7810    7.0500 C.ar  145  TYR145      0.1957
     36  OH        12.6060    0.7020    7.8330 O.3   145  TYR145     -0.2866
     37  N          5.9040    2.0530    2.1970 N.am  146  LEU146     -0.1980
     38  CA         4.6130    1.5570    1.7100 C.3   146  LEU146      0.1596
     39  C          4.6100    1.2320    0.2140 C.2   146  LEU146      0.2287
     40  O          5.3210    1.8630   -0.5670 O.2   146  LEU146     -0.2864
     41  CB         3.4850    2.5540    2.0570 C.3   146  LEU146      0.0297
     42  CG         3.3060    2.9020    3.5460 C.3   146  LEU146      0.0022
     43  CD1        2.1780    3.9080    3.7520 C.3   146  LEU146      0.0001
     44  CD2        3.0320    1.6510    4.3750 C.3   146  LEU146      0.0001
     45  N         -2.5700   -2.1320    3.0020 N.3   153  THR153     -0.1218
     46  CA        -1.5820   -1.5280    3.8820 C.3   153  THR153      0.1862
     47  C         -1.4120   -0.0190    3.6730 C.2   153  THR153      0.2287
     48  O         -1.0640    0.6940    4.6200 O.2   153  THR153     -0.2866
     49  CB        -0.2210   -2.2290    3.7140 C.3   153  THR153      0.1770
     50  OG1        0.0870   -2.3330    2.3230 O.3   153  THR153     -0.2211
     51  CG2       -0.2670   -3.6250    4.3180 C.3   153  THR153      0.0375
     52  N         -1.0320    3.4910    7.7710 N.3   157  PHE157     -0.1241
     53  CA         0.1850    4.0090    8.4300 C.3   157  PHE157      0.1605
     54  C          0.4250    5.4800    8.1610 C.2   157  PHE157      0.2264
     55  O          0.0760    5.9920    7.0910 O.2   157  PHE157     -0.2867
     56  CB         1.4310    3.2020    8.0060 C.3   157  PHE157      0.0534
     57  CG         1.3330    1.7490    8.3480 C.ar  157  PHE157     -0.0203
     58  CD1        1.5690    1.3170    9.6520 C.ar  157  PHE157     -0.0042
     59  CD2        0.9680    0.8190    7.3790 C.ar  157  PHE157     -0.0042
     60  CE1        1.4650   -0.0220    9.9760 C.ar  157  PHE157     -0.0003
     61  CE2        0.8580   -0.5240    7.7010 C.ar  157  PHE157     -0.0003
     62  CZ         1.1180   -0.9450    8.9990 C.ar  157  PHE157     -0.0000
     63  N          4.1220  -10.3300   10.2290 N.3   190  LEU190     -0.1245
     64  CA         4.2250   -8.8730   10.0440 C.3   190  LEU190      0.1561
     65  C          5.6930   -8.5380    9.8430 C.2   190  LEU190      0.2260
     66  O          6.4800   -8.5990   10.8000 O.2   190  LEU190     -0.2867
     67  CB         3.6830   -8.1360   11.2710 C.3   190  LEU190      0.0270
     68  CG         3.6680   -6.6100   11.3000 C.3   190  LEU190      0.0019
     69  CD1        2.8030   -6.0060   10.1960 C.3   190  LEU190      0.0001
     70  CD2        3.1570   -6.1640   12.6580 C.3   190  LEU190      0.0001
     71  N          8.8120   -6.6720    6.7670 N.3   192  VAL192     -0.1245
     72  CA         9.3250   -6.1890    5.4850 C.3   192  VAL192      0.1561
     73  C         10.7190   -6.8320    5.3600 C.2   192  VAL192      0.2260
     74  O         11.7100   -6.2170    5.7100 O.2   192  VAL192     -0.2867
     75  CB         9.3990   -4.6460    5.4420 C.3   192  VAL192      0.0252
     76  CG1        9.8270   -4.1530    4.0660 C.3   192  VAL192      0.0019
     77  CG2        8.0640   -4.0190    5.8110 C.3   192  VAL192      0.0019
     78  N          5.5860   -7.3880    1.5170 N.3   211  PHE211     -0.1241
     79  CA         5.2030   -7.4690    2.9310 C.3   211  PHE211      0.1605
     80  C          4.6410   -8.8370    3.2820 C.2   211  PHE211      0.2264
     81  O          3.8390   -9.3860    2.5230 O.2   211  PHE211     -0.2867
     82  CB         4.1460   -6.4210    3.2720 C.3   211  PHE211      0.0534
     83  CG         4.4370   -5.0700    2.7000 C.ar  211  PHE211     -0.0203
     84  CD1        5.6630   -4.4670    2.9280 C.ar  211  PHE211     -0.0042
     85  CD2        3.4970   -4.4010    1.9210 C.ar  211  PHE211     -0.0042
     86  CE1        5.9560   -3.2180    2.3950 C.ar  211  PHE211     -0.0003
     87  CE2        3.7830   -3.1510    1.3830 C.ar  211  PHE211     -0.0003
     88  CZ         5.0150   -2.5610    1.6200 C.ar  211  PHE211     -0.0000
     89  N         -1.2100    1.4760   22.0480 N.3   250  HIS250     -0.1241
     90  CA        -0.7560    1.5490   20.6670 C.3   250  HIS250      0.1621
     91  C         -1.9780    1.7050   19.7540 C.2   250  HIS250      0.2264
     92  O         -3.0150    1.0850   19.9900 O.2   250  HIS250     -0.2867
     93  CB         0.0380    0.2950   20.3100 C.3   250  HIS250      0.0745
     94  CG         0.4990    0.2460   18.8890 C.ar  250  HIS250      0.0817
     95  ND1        0.9430    1.3610   18.2100 N.ar  250  HIS250     -0.2268
     96  CD2        0.6150   -0.7910   18.0260 C.ar  250  HIS250      0.1154
     97  CE1        1.2750    1.0210   16.9790 C.ar  250  HIS250      0.1986
     98  NE2        1.1090   -0.2830   16.8480 N.ar  250  HIS250     -0.2212
     99  N         -2.9870    0.9700   16.5080 N.3   252  ALA252     -0.1245
    100  CA        -2.9080    0.1680   15.2780 C.3   252  ALA252      0.1562
    101  C         -4.2700   -0.1970   14.7240 C.2   252  ALA252      0.2260
    102  O         -4.4620   -0.2570   13.5150 O.2   252  ALA252     -0.2867
    103  CB        -2.1070   -1.1040   15.5260 C.3   252  ALA252      0.0290
    104  N         -1.5870    4.6700   12.1360 N.3   280  ASN280     -0.1240
    105  CA        -0.5540    3.9470   12.9060 C.3   280  ASN280      0.1653
    106  C          0.8020    4.5870   12.6130 C.2   280  ASN280      0.2266
    107  O          1.2820    4.4980   11.5010 O.2   280  ASN280     -0.2867
    108  CB        -0.5700    2.4570   12.5200 C.3   280  ASN280      0.1155
    109  CG         0.4310    1.5940   13.3130 C.2   280  ASN280      0.2627
    110  OD1        1.3580    2.0780   13.9590 O.2   280  ASN280     -0.2716
    111  ND2        0.2580    0.2850   13.2140 N.am  280  ASN280     -0.0877
    112  N          3.5870    3.7060   14.3670 N.3   282  SER282     -0.1217
    113  CA         4.4750    2.7480   15.0470 C.3   282  SER282      0.1889
    114  C          4.9490    3.2400   16.4330 C.2   282  SER282      0.2288
    115  O          4.1080    3.4420   17.2980 O.2   282  SER282     -0.2866
    116  CB         5.6070    2.2920   14.0990 C.3   282  SER282      0.2089
    117  OG         6.3790    1.2310   14.6640 O.3   282  SER282     -0.2183
    118  N          2.1290   -3.2780   21.0900 N.3   310  PHE310     -0.1227
    119  CA         2.6480   -4.4430   20.3810 C.3   310  PHE310      0.1736
    120  C          3.2160   -3.9790   19.0480 C.2   310  PHE310      0.2596
    121  O          2.9200   -2.8750   18.5940 O.2   310  PHE310     -0.2718
    122  CB         1.5360   -5.4770   20.1370 C.3   310  PHE310      0.0547
    123  CG         0.5870   -5.0820   19.0430 C.ar  310  PHE310     -0.0202
    124  CD1       -0.4800   -4.2360   19.3070 C.ar  310  PHE310     -0.0042
    125  CD2        0.7910   -5.5230   17.7260 C.ar  310  PHE310     -0.0042
    126  CE1       -1.3490   -3.8490   18.2960 C.ar  310  PHE310     -0.0003
    127  CE2       -0.0700   -5.1220   16.7020 C.ar  310  PHE310     -0.0003
    128  CZ        -1.1430   -4.2870   16.9950 C.ar  310  PHE310     -0.0000
    129  N          4.0040   -4.8360   18.4090 N.am  311  GLY311     -0.1942
    130  CA         4.5530   -4.5170   17.0920 C.3   311  GLY311      0.2014
    131  C          5.1990   -5.7120   16.4450 C.2   311  GLY311      0.2638
    132  O          5.2310   -6.7960   17.0240 O.2   311  GLY311     -0.2714
    133  N          5.7180   -5.5210   15.2400 N.am  312  ALA312     -0.1977
    134  CA         6.4170   -6.5870   14.5310 C.3   312  ALA312      0.1597
    135  C          7.4700   -7.2090   15.4450 C.2   312  ALA312      0.2287
    136  O          8.1120   -6.4920   16.2180 O.2   312  ALA312     -0.2864
    137  CB         7.0580   -6.0450   13.2630 C.3   312  ALA312      0.0319
@<TRIPOS>BOND
     1    40    39    2
     2    39    38    1
     3    87    88   ar
     4    87    85   ar
     5    78    79    1
     6    88    86   ar
     7    38    41    1
     8    38    37    1
     9    28    27    2
    10    85    83   ar
    11    41    42    1
    12    37    27   am
    13    50    49    1
    14    27    26    1
    15    86    84   ar
    16    81    80    2
    17    83    84   ar
    18    83    82    1
    19    79    82    1
    20    79    80    1
    21    45    46    1
    22    26    25    1
    23    26    29    1
    24    42    43    1
    25    42    44    1
    26    47    46    1
    27    47    48    2
    28    49    46    1
    29    49    51    1
    30    76    75    1
    31    29    30    1
    32    31    30   ar
    33    31    33   ar
    34    73    72    1
    35    73    74    2
    36    75    72    1
    37    75    77    1
    38    30    32   ar
    39    72    71    1
    40    20    19    2
    41    33    35   ar
    42    19    18    1
    43    32    34   ar
    44    35    34   ar
    45    35    36    1
    46    55    54    2
    47    59    61   ar
    48    59    57   ar
    49    61    62   ar
    50    18    17    1
    51    18    21    1
    52    52    53    1
    53    56    57    1
    54    56    53    1
    55    54    53    1
    56    57    58   ar
    57    21    22    1
    58    62    60   ar
    59    58    60   ar
    60    65    64    1
    61    65    66    2
    62    22    24    1
    63    22    23    1
    64    64    63    1
    65    64    67    1
    66    69    68    1
    67     4     3    2
    68    67    68    1
    69    68    70    1
    70     3     2    1
    71   107   106    2
    72   104   105    1
    73     6     5    1
    74   108   105    1
    75   108   109    1
    76   106   105    1
    77     5     2    1
    78     2     1    1
    79   111   109   am
    80   137   134    1
    81   109   110    2
    82   102   101    2
    83   116   117    1
    84   116   113    1
    85   112   113    1
    86   134   133    1
    87   134   135    1
    88   101   100    1
    89   113   114    1
    90   133   131   am
    91   100   103    1
    92   100    99    1
    93   135   136    2
    94    11     8    1
    95     8     7    1
    96     8     9    1
    97   114   115    2
    98   131   132    2
    99   131   130    1
   100   127   128   ar
   101   127   125   ar
   102    98    97   ar
   103    98    96   ar
   104    97    95   ar
   105   128   126   ar
   106    12     9   am
   107    12    13    1
   108   130   129    1
   109     9    10    2
   110    16    13    1
   111   125   123   ar
   112    13    14    1
   113    96    94   ar
   114    95    94   ar
   115   126   124   ar
   116   129   120   am
   117   121   120    2
   118    94    93    1
   119   123   124   ar
   120   123   122    1
   121   120   119    1
   122    14    15    2
   123    91    92    2
   124    91    90    1
   125   122   119    1
   126    93    90    1
   127   119   118    1
   128    90    89    1
