@<TRIPOS>MOLECULE
tmp/5kp8A00.pdb
 184 176 0 0 0
SMALL
GASTEIGER

@<TRIPOS>ATOM
      1  N         42.9620   38.1400   29.8030 N.3    32  ARG32      -0.1231
      2  CA        41.6600   38.6820   29.3800 C.3    32  ARG32       0.1694
      3  C         41.0230   37.8010   28.3000 C.2    32  ARG32       0.2592
      4  O         39.8870   37.3680   28.4260 O.2    32  ARG32      -0.2718
      5  CB        41.7710   40.1230   28.8420 C.3    32  ARG32       0.0321
      6  CG        41.4550   41.2280   29.8540 C.3    32  ARG32       0.0489
      7  CD        40.5830   42.3140   29.2240 C.3    32  ARG32       0.2205
      8  NE        39.1730   41.9020   29.1680 N.pl3  32  ARG32      -0.0865
      9  CZ        38.2940   42.2220   28.2090 C.cat  32  ARG32       0.5346
     10  NH1       37.0450   41.7730   28.3010 N.pl3  32  ARG32       0.1354
     11  NH2       38.6380   42.9680   27.1560 N.pl3  32  ARG32       0.1354
     12  N         41.7610   37.5420   27.2350 N.am   33  PHE33      -0.1976
     13  CA        41.2260   36.7310   26.1540 C.3    33  PHE33       0.1639
     14  C         41.2340   35.2410   26.5150 C.2    33  PHE33       0.2290
     15  O         40.3220   34.5200   26.1220 O.2    33  PHE33      -0.2864
     16  CB        41.9540   37.0350   24.8520 C.3    33  PHE33       0.0560
     17  CG        41.7780   38.4590   24.3840 C.ar   33  PHE33      -0.0200
     18  CD1       40.5210   39.0190   24.2790 C.ar   33  PHE33      -0.0042
     19  CD2       42.8670   39.2290   24.0250 C.ar   33  PHE33      -0.0042
     20  CE1       40.3520   40.3340   23.8560 C.ar   33  PHE33      -0.0003
     21  CE2       42.7050   40.5370   23.5830 C.ar   33  PHE33      -0.0003
     22  CZ        41.4450   41.0940   23.5090 C.ar   33  PHE33      -0.0000
     23  N         38.1300   34.5160   28.1600 N.3    36  LEU36      -0.1245
     24  CA        37.0120   34.4640   27.2170 C.3    36  LEU36       0.1561
     25  C         37.1510   33.2890   26.2520 C.2    36  LEU36       0.2260
     26  O         36.3400   33.1230   25.3370 O.2    36  LEU36      -0.2867
     27  CB        36.9390   35.7980   26.4630 C.3    36  LEU36       0.0270
     28  CG        36.5870   37.0330   27.3060 C.3    36  LEU36       0.0019
     29  CD1       36.8550   38.3280   26.5580 C.3    36  LEU36       0.0001
     30  CD2       35.1370   36.9820   27.7390 C.3    36  LEU36       0.0001
     31  N         39.5280   32.6470   23.9930 N.3    38  MET38      -0.1245
     32  CA        39.9390   33.0300   22.6630 C.3    38  MET38       0.1570
     33  C         41.4410   32.8000   22.5290 C.2    38  MET38       0.2261
     34  O         42.1800   33.1700   23.4330 O.2    38  MET38      -0.2867
     35  CB        39.6090   34.5080   22.4540 C.3    38  MET38       0.0387
     36  CG        38.1180   34.8390   22.5980 C.3    38  MET38       0.0595
     37  SD        37.7520   36.6020   22.8370 S.3    38  MET38      -0.1393
     38  CE        38.1170   37.1500   21.1850 C.3    38  MET38       0.0692
     39  N         35.0280   47.2360   18.6400 N.3   154  PHE154     -0.1227
     40  CA        34.5380   46.2650   19.6370 C.3   154  PHE154      0.1736
     41  C         34.7530   44.8070   19.2000 C.2   154  PHE154      0.2595
     42  O         34.9670   43.9320   20.0370 O.2   154  PHE154     -0.2718
     43  CB        33.0500   46.4970   19.9800 C.3   154  PHE154      0.0547
     44  CG        32.0940   45.9880   18.9310 C.ar  154  PHE154     -0.0202
     45  CD1       31.8950   46.6950   17.7510 C.ar  154  PHE154     -0.0042
     46  CD2       31.4210   44.7840   19.1070 C.ar  154  PHE154     -0.0042
     47  CE1       31.0340   46.2250   16.7770 C.ar  154  PHE154     -0.0003
     48  CE2       30.5570   44.3050   18.1350 C.ar  154  PHE154     -0.0003
     49  CZ        30.3580   45.0380   16.9660 C.ar  154  PHE154     -0.0000
     50  N         34.6990   44.5670   17.8860 N.am  155  ALA155     -0.1980
     51  CA        34.7690   43.2250   17.3030 C.3   155  ALA155      0.1597
     52  C         36.1520   42.7880   16.8540 C.2   155  ALA155      0.2287
     53  O         36.2990   41.6500   16.4190 O.2   155  ALA155     -0.2864
     54  CB        33.8250   43.1280   16.1020 C.3   155  ALA155      0.0319
     55  N         38.9800   41.8250   18.3740 N.3   157  PRO157     -0.2102
     56  CA        39.5100   40.5800   18.9290 C.3   157  PRO157      0.1504
     57  C         38.8300   39.3140   18.4160 C.2   157  PRO157      0.2576
     58  O         39.4560   38.2610   18.4050 O.2   157  PRO157     -0.2718
     59  CB        39.2430   40.7280   20.4390 C.3   157  PRO157      0.0282
     60  CG        39.1390   42.2040   20.6610 C.3   157  PRO157      0.0208
     61  CD        38.4580   42.7090   19.4330 C.3   157  PRO157      0.0893
     62  N         37.5650   39.4010   18.0010 N.am  158  SER158     -0.1953
     63  CA        36.7800   38.2110   17.7140 C.3   158  SER158      0.1924
     64  C         36.5430   37.9580   16.2250 C.2   158  SER158      0.2314
     65  O         36.0780   36.8870   15.8460 O.2   158  SER158     -0.2863
     66  CB        35.4260   38.2730   18.4430 C.3   158  SER158      0.2116
     67  OG        34.7120   39.4680   18.1430 O.3   158  SER158     -0.2180
     68  N         23.9640   43.6780   16.2840 N.3   192  THR192     -0.1218
     69  CA        25.0730   44.0840   15.4380 C.3   192  THR192      0.1862
     70  C         24.5680   44.0850   14.0150 C.2   192  THR192      0.2287
     71  O         23.5660   43.4310   13.6970 O.2   192  THR192     -0.2866
     72  CB        26.3200   43.1680   15.5020 C.3   192  THR192      0.1770
     73  OG1       26.0700   41.9670   14.7860 O.3   192  THR192     -0.2211
     74  CG2       26.7400   42.8140   16.9470 C.3   192  THR192      0.0375
     75  N         31.6050   47.0190   10.6440 N.3   200  GLU200     -0.1245
     76  CA        30.6060   46.3830   11.4780 C.3   200  GLU200      0.1567
     77  C         30.2930   47.3930   12.5940 C.2   200  GLU200      0.2260
     78  O         31.1550   48.1720   12.9810 O.2   200  GLU200     -0.2867
     79  CB        31.1040   45.0640   12.0700 C.3   200  GLU200      0.0388
     80  CG        30.0540   44.3990   12.9390 C.3   200  GLU200      0.1160
     81  CD        30.4400   43.0390   13.4940 C.2   200  GLU200      0.3649
     82  OE1       31.5750   42.5660   13.2540 O.co2 200  GLU200     -0.2457
     83  OE2       29.5600   42.4470   14.1730 O.co2 200  GLU200     -0.2457
     84  N         27.6420   44.9150   21.6810 N.3   204  ALA204     -0.1231
     85  CA        27.9530   43.5440   22.0160 C.3   204  ALA204      0.1694
     86  C         27.1630   43.0440   23.2150 C.2   204  ALA204      0.2592
     87  O         26.7930   41.8680   23.2640 O.2   204  ALA204     -0.2718
     88  CB        29.4280   43.4150   22.3220 C.3   204  ALA204      0.0304
     89  N         26.9200   43.9190   24.1890 N.am  205  ASP205     -0.1974
     90  CA        26.1590   43.4940   25.3610 C.3   205  ASP205      0.1709
     91  C         24.7210   43.0950   24.9560 C.2   205  ASP205      0.2293
     92  O         24.2150   42.0750   25.4030 O.2   205  ASP205     -0.2864
     93  CB        26.1420   44.5900   26.4290 C.3   205  ASP205      0.1436
     94  CG        27.5220   44.7890   27.1120 C.2   205  ASP205      0.3671
     95  OD1       28.5710   44.7490   26.4230 O.co2 205  ASP205     -0.2456
     96  OD2       27.5650   44.9970   28.3390 O.co2 205  ASP205     -0.2456
     97  N         23.8560   42.0720   22.0120 N.3   207  SER207     -0.1202
     98  CA        23.9420   40.8620   21.1960 C.3   207  SER207      0.2020
     99  C         24.0600   39.5930   22.0220 C.2   207  SER207      0.2618
    100  O         23.4580   38.5780   21.7000 O.2   207  SER207     -0.2717
    101  CB        25.0920   40.9410   20.1950 C.3   207  SER207      0.2103
    102  OG        24.8360   40.0050   19.1630 O.3   207  SER207     -0.2182
    103  N         24.8150   39.6490   23.1060 N.am  208  LEU208     -0.1979
    104  CA        24.9210   38.5030   23.9810 C.3   208  LEU208      0.1596
    105  C         23.5710   38.1800   24.6500 C.2   208  LEU208      0.2287
    106  O         23.1480   37.0310   24.7050 O.2   208  LEU208     -0.2864
    107  CB        26.0160   38.7850   25.0170 C.3   208  LEU208      0.0297
    108  CG        26.3330   37.7200   26.0450 C.3   208  LEU208      0.0022
    109  CD1       26.2070   36.3020   25.5060 C.3   208  LEU208      0.0001
    110  CD2       27.7440   37.9990   26.5650 C.3   208  LEU208      0.0001
    111  N         21.3890   36.6200   21.9360 N.3   211  TYR211     -0.1241
    112  CA        21.8260   35.2450   21.7010 C.3   211  TYR211      0.1605
    113  C         21.2280   34.3000   22.7620 C.2   211  TYR211      0.2264
    114  O         20.7080   33.2220   22.4380 O.2   211  TYR211     -0.2867
    115  CB        23.3560   35.2000   21.6960 C.3   211  TYR211      0.0534
    116  CG        24.0020   33.8370   21.4280 C.ar  211  TYR211     -0.0201
    117  CD1       24.0490   32.8570   22.3950 C.ar  211  TYR211     -0.0009
    118  CD2       24.6180   33.5690   20.2120 C.ar  211  TYR211     -0.0009
    119  CE1       24.6600   31.6250   22.1510 C.ar  211  TYR211      0.0417
    120  CE2       25.2450   32.3540   19.9680 C.ar  211  TYR211      0.0417
    121  CZ        25.2620   31.3840   20.9440 C.ar  211  TYR211      0.1957
    122  OH        25.8830   30.1690   20.6810 O.3   211  TYR211     -0.2866
    123  N         26.9370   28.3240   17.2390 N.3   241  HIS241     -0.1241
    124  CA        27.5560   29.4960   16.7020 C.3   241  HIS241      0.1621
    125  C         28.4180   30.0850   17.8200 C.2   241  HIS241      0.2264
    126  O         27.9270   30.3250   18.9200 O.2   241  HIS241     -0.2867
    127  CB        26.5110   30.5120   16.2260 C.3   241  HIS241      0.0745
    128  CG        27.1230   31.7890   15.7670 C.ar  241  HIS241      0.0817
    129  ND1       28.1730   31.8160   14.8770 N.ar  241  HIS241     -0.2268
    130  CD2       26.8910   33.0710   16.1180 C.ar  241  HIS241      0.1154
    131  CE1       28.5500   33.0680   14.6830 C.ar  241  HIS241      0.1986
    132  NE2       27.7860   33.8480   15.4260 N.ar  241  HIS241     -0.2212
    133  N         30.7510   33.0900   18.6120 N.3   243  PRO243     -0.2102
    134  CA        31.4230   34.3610   18.4190 C.3   243  PRO243      0.1504
    135  C         32.7180   34.4150   19.2030 C.2   243  PRO243      0.2575
    136  O         33.7080   34.9990   18.7400 O.2   243  PRO243     -0.2718
    137  CB        30.4190   35.3650   18.9640 C.3   243  PRO243      0.0282
    138  CG        29.0990   34.6950   18.8180 C.3   243  PRO243      0.0208
    139  CD        29.3980   33.2660   19.1450 C.3   243  PRO243      0.0893
    140  N         32.6820   33.8030   20.3780 N.am  244  PHE244     -0.1977
    141  CA        33.8540   33.4870   21.1770 C.3   244  PHE244      0.1639
    142  C         33.4160   32.4470   22.2190 C.2   244  PHE244      0.2290
    143  O         32.2440   32.3720   22.5970 O.2   244  PHE244     -0.2864
    144  CB        34.4660   34.7460   21.8180 C.3   244  PHE244      0.0560
    145  CG        33.5310   35.5030   22.7150 C.ar  244  PHE244     -0.0200
    146  CD1       32.6090   36.3850   22.1870 C.ar  244  PHE244     -0.0042
    147  CD2       33.5900   35.3440   24.0860 C.ar  244  PHE244     -0.0042
    148  CE1       31.7540   37.1020   23.0050 C.ar  244  PHE244     -0.0003
    149  CE2       32.7490   36.0530   24.9140 C.ar  244  PHE244     -0.0003
    150  CZ        31.8270   36.9370   24.3770 C.ar  244  PHE244     -0.0000
    151  N         31.2560   32.9960   25.6900 N.3   247  MET247     -0.1245
    152  CA        29.8090   33.2010   25.6680 C.3   247  MET247      0.1570
    153  C         29.0260   31.9350   25.3980 C.2   247  MET247      0.2261
    154  O         27.9060   31.8160   25.8590 O.2   247  MET247     -0.2867
    155  CB        29.3870   34.2960   24.7000 C.3   247  MET247      0.0387
    156  CG        29.6250   34.0450   23.2420 C.3   247  MET247      0.0595
    157  SD        28.8150   35.4060   22.3480 S.3   247  MET247     -0.1393
    158  CE        27.1560   34.7380   22.2750 C.3   247  MET247      0.0692
    159  N         35.5530   34.2880   15.2690 N.3   287  ASN287     -0.1240
    160  CA        34.2010   34.2660   14.7210 C.3   287  ASN287      0.1653
    161  C         34.3340   34.2670   13.1990 C.2   287  ASN287      0.2266
    162  O         34.7820   35.2670   12.6260 O.2   287  ASN287     -0.2867
    163  CB        33.4090   35.5160   15.1600 C.3   287  ASN287      0.1155
    164  CG        31.9500   35.4940   14.7240 C.2   287  ASN287      0.2627
    165  OD1       31.5030   34.5830   14.0650 O.2   287  ASN287     -0.2716
    166  ND2       31.1810   36.4840   15.1680 N.am  287  ASN287     -0.0877
    167  N         22.8080   31.0940   15.4250 N.3   317  TYR317     -0.1241
    168  CA        22.3230   32.4520   15.6520 C.3   317  TYR317      0.1605
    169  C         22.9400   33.3700   14.6120 C.2   317  TYR317      0.2264
    170  O         24.0900   33.2000   14.2380 O.2   317  TYR317     -0.2867
    171  CB        22.7470   32.9630   17.0420 C.3   317  TYR317      0.0534
    172  CG        22.3200   34.3630   17.3660 C.ar  317  TYR317     -0.0201
    173  CD1       21.0410   34.6240   17.8220 C.ar  317  TYR317     -0.0009
    174  CD2       23.1970   35.4350   17.2450 C.ar  317  TYR317     -0.0009
    175  CE1       20.6230   35.9100   18.1190 C.ar  317  TYR317      0.0417
    176  CE2       22.7850   36.7230   17.5640 C.ar  317  TYR317      0.0417
    177  CZ        21.4790   36.9440   18.0110 C.ar  317  TYR317      0.1957
    178  OH        20.9890   38.2120   18.2900 O.3   317  TYR317     -0.2866
    179  N         22.9610   37.7810   14.2360 N.3   319  SER319     -0.1217
    180  CA        22.5280   39.1050   14.6480 C.3   319  SER319      0.1889
    181  C         21.4500   39.6590   13.7290 C.2   319  SER319      0.2288
    182  O         21.4290   39.3790   12.5240 O.2   319  SER319     -0.2866
    183  CB        23.7210   40.0660   14.6630 C.3   319  SER319      0.2089
    184  OG        24.6460   39.6860   15.6690 O.3   319  SER319     -0.2183
@<TRIPOS>BOND
     1    75    76    1
     2    76    79    1
     3    76    77    1
     4    79    80    1
     5   182   181    2
     6    77    78    2
     7   162   161    2
     8    80    81    1
     9   161   160    1
    10    82    81   ar
    11    81    83   ar
    12    71    70    2
    13   181   180    1
    14    70    69    1
    15   165   164    2
    16   179   180    1
    17   170   169    2
    18   169   168    1
    19   180   183    1
    20   183   184    1
    21   131   129   ar
    22   131   132   ar
    23   160   163    1
    24   160   159    1
    25   164   163    1
    26   164   166   am
    27    73    72    1
    28   129   128   ar
    29   167   168    1
    30   132   130   ar
    31    69    72    1
    32    69    68    1
    33    72    74    1
    34   168   171    1
    35   128   130   ar
    36   128   127    1
    37    65    64    2
    38    54    51    1
    39    64    63    1
    40   127   124    1
    41    53    52    2
    42   124   123    1
    43   124   125    1
    44    47    49   ar
    45    47    45   ar
    46    52    51    1
    47    49    48   ar
    48   171   172    1
    49   174   172   ar
    50   174   176   ar
    51    51    50    1
    52   172   173   ar
    53   176   177   ar
    54    63    62    1
    55    63    66    1
    56    45    44   ar
    57   125   126    2
    58   173   175   ar
    59    50    41   am
    60    62    57   am
    61   177   175   ar
    62   177   178    1
    63    48    46   ar
    64    67    66    1
    65    55    56    1
    66    55    61    1
    67    58    57    2
    68    57    56    1
    69   134   133    1
    70   134   137    1
    71   134   135    1
    72   133   139    1
    73    39    40    1
    74   136   135    2
    75   138   137    1
    76   138   139    1
    77    56    59    1
    78    44    46   ar
    79    44    43    1
    80   102   101    1
    81    41    40    1
    82    41    42    2
    83   135   140   am
    84    61    60    1
    85    40    43    1
    86   120   118   ar
    87   120   121   ar
    88   101    98    1
    89   118   116   ar
    90   140   141    1
    91    59    60    1
    92   122   121    1
    93   121   119   ar
    94   141   144    1
    95   141   142    1
    96    38    37    1
    97    98    97    1
    98    98    99    1
    99   116   115    1
   100   116   117   ar
   101    84    85    1
   102   115   112    1
   103   100    99    2
   104   112   111    1
   105   112   113    1
   106   144   145    1
   107    85    88    1
   108    85    86    1
   109    99   103   am
   110   119   117   ar
   111   146   145   ar
   112   146   148   ar
   113   142   143    2
   114   158   157    1
   115   157   156    1
   116   114   113    2
   117    35    36    1
   118    35    32    1
   119    33    32    1
   120    33    34    2
   121    36    37    1
   122    32    31    1
   123   145   147   ar
   124   148   150   ar
   125   103   104    1
   126    86    87    2
   127    86    89   am
   128   156   155    1
   129    22    21   ar
   130    22    20   ar
   131    21    19   ar
   132    20    18   ar
   133   104   105    1
   134   104   107    1
   135    19    17   ar
   136   147   149   ar
   137    89    90    1
   138    18    17   ar
   139   150   149   ar
   140    17    16    1
   141   105   106    2
   142   155   152    1
   143    16    13    1
   144    91    90    1
   145    91    92    2
   146   107   108    1
   147    26    25    2
   148    90    93    1
   149   153   152    1
   150   153   154    2
   151   109   108    1
   152   152   151    1
   153   108   110    1
   154    15    14    2
   155    13    14    1
   156    13    12    1
   157    25    24    1
   158    95    94   ar
   159    93    94    1
   160    27    24    1
   161    27    28    1
   162    29    28    1
   163    94    96   ar
   164    11     9    1
   165    24    23    1
   166    12     3   am
   167    28    30    1
   168     9    10    1
   169     9     8    2
   170     3     4    2
   171     3     2    1
   172     5     2    1
   173     5     6    1
   174     8     7    1
   175     7     6    1
   176     2     1    1
