@<TRIPOS>MOLECULE
tmp/5kpkB00.pdb
 159 151 0 0 0
SMALL
GASTEIGER

@<TRIPOS>ATOM
      1  N          4.6360   23.1570   21.1160 N.3    28  ILE28      -0.1231
      2  CA         5.7050   23.5820   20.1900 C.3    28  ILE28       0.1692
      3  C          6.4390   22.4200   19.5170 C.2    28  ILE28       0.2592
      4  O          7.1920   22.6290   18.5710 O.2    28  ILE28      -0.2718
      5  CB         6.7470   24.4630   20.8800 C.3    28  ILE28       0.0266
      6  CG1        7.3980   23.7520   22.0850 C.3    28  ILE28       0.0019
      7  CG2        6.1200   25.8110   21.2590 C.3    28  ILE28       0.0020
      8  CD1        8.6140   24.5190   22.5880 C.3    28  ILE28       0.0001
      9  N          6.2180   21.1930   19.9850 N.am   29  GLY29      -0.1957
     10  CA         6.7840   20.0560   19.3360 C.3    29  GLY29       0.1869
     11  C          6.0800   18.7770   19.6300 C.2    29  GLY29       0.2309
     12  O          5.5060   18.6000   20.6620 O.2    29  GLY29      -0.2863
     13  N         10.6880   12.8910   19.5550 N.3    33  PHE33      -0.1241
     14  CA        11.3050   13.2650   20.8150 C.3    33  PHE33       0.1605
     15  C         10.4720   13.5110   22.1140 C.2    33  PHE33       0.2264
     16  O         11.0770   14.0260   23.0250 O.2    33  PHE33      -0.2867
     17  CB        12.2730   14.4600   20.5470 C.3    33  PHE33       0.0534
     18  CG        11.6160   15.6520   19.8590 C.ar   33  PHE33      -0.0203
     19  CD1       10.7380   16.4920   20.5570 C.ar   33  PHE33      -0.0042
     20  CD2       11.8710   15.9240   18.5050 C.ar   33  PHE33      -0.0042
     21  CE1       10.1210   17.5630   19.9310 C.ar   33  PHE33      -0.0003
     22  CE2       11.2760   17.0060   17.8760 C.ar   33  PHE33      -0.0003
     23  CZ        10.3890   17.8290   18.5860 C.ar   33  PHE33      -0.0000
     24  N          6.0450   18.2310   23.3920 N.3    36  VAL36      -0.1245
     25  CA         6.6970   19.2630   24.0920 C.3    36  VAL36       0.1561
     26  C          5.8280   20.4980   24.0330 C.2    36  VAL36       0.2260
     27  O          5.3630   20.8680   22.9590 O.2    36  VAL36      -0.2867
     28  CB         8.1060   19.5460   23.5100 C.3    36  VAL36       0.0252
     29  CG1        8.8240   20.6510   24.3040 C.3    36  VAL36       0.0019
     30  CG2        8.9160   18.2700   23.5340 C.3    36  VAL36       0.0019
     31  N         10.4750   24.8570   28.1250 N.3    49  ALA49      -0.1245
     32  CA         9.9200   23.8110   27.3020 C.3    49  ALA49       0.1562
     33  C          9.6370   22.5770   28.1580 C.2    49  ALA49       0.2260
     34  O         10.4820   22.1550   28.8950 O.2    49  ALA49      -0.2867
     35  CB        10.9210   23.4810   26.2350 C.3    49  ALA49       0.0290
     36  N          8.8140   18.7010   28.1010 N.3    51  LYS51      -0.1245
     37  CA         8.6820   17.4230   27.4460 C.3    51  LYS51       0.1561
     38  C          7.8750   16.4330   28.3170 C.2    51  LYS51       0.2260
     39  O          8.3260   16.0670   29.4140 O.2    51  LYS51      -0.2867
     40  CB        10.0760   16.8240   27.1130 C.3    51  LYS51       0.0271
     41  CG         9.9790   15.3960   26.6600 C.3    51  LYS51       0.0035
     42  CD        11.2610   14.8700   26.0780 C.3    51  LYS51       0.0206
     43  CE        11.1100   13.3670   25.8160 C.3    51  LYS51       0.1093
     44  NZ        12.3050   12.7760   25.1360 N.3    51  LYS51      -0.1314
     45  N         21.3900   21.8820   26.9630 N.3    76  VAL76      -0.1245
     46  CA        20.0750   22.2170   27.4490 C.3    76  VAL76       0.1561
     47  C         19.9580   21.7630   28.8900 C.2    76  VAL76       0.2260
     48  O         20.2500   20.6520   29.2000 O.2    76  VAL76      -0.2867
     49  CB        18.9780   21.5890   26.5990 C.3    76  VAL76       0.0252
     50  CG1       18.9170   20.0530   26.7530 C.3    76  VAL76       0.0019
     51  CG2       17.6350   22.2190   26.9280 C.3    76  VAL76       0.0019
     52  N         12.6980   22.0580   30.6220 N.3    94  LEU94      -0.1231
     53  CA        13.9980   22.2920   30.0060 C.3    94  LEU94       0.1693
     54  C         14.0250   23.6860   29.4470 C.2    94  LEU94       0.2592
     55  O         12.9710   24.2770   29.3030 O.2    94  LEU94      -0.2718
     56  CB        14.1520   21.3080   28.8980 C.3    94  LEU94       0.0284
     57  CG        14.2790   19.8200   29.3020 C.3    94  LEU94       0.0019
     58  CD1       13.6080   18.9140   28.2490 C.3    94  LEU94       0.0001
     59  CD2       15.7440   19.4310   29.4820 C.3    94  LEU94       0.0001
     60  N         15.1990   24.2360   29.1680 N.am   95  ASP95      -0.1960
     61  CA        15.2720   25.5690   28.5480 C.3    95  ASP95       0.1840
     62  C         14.4850   25.5800   27.2520 C.2    95  ASP95       0.2622
     63  O         14.5380   24.5990   26.4840 O.2    95  ASP95      -0.2715
     64  CB        16.6940   25.9610   28.1230 C.3    95  ASP95       0.1450
     65  CG        17.6870   25.9990   29.2730 C.2    95  ASP95       0.3671
     66  OD1       17.2930   26.4700   30.3680 O.co2  95  ASP95      -0.2456
     67  OD2       18.8650   25.5550   29.0580 O.co2  95  ASP95      -0.2456
     68  N         13.8110   26.7050   27.0110 N.am   96  TYR96      -0.1960
     69  CA        13.2020   27.0410   25.7370 C.3    96  TYR96       0.1771
     70  C         14.1420   27.9520   25.0100 C.2    96  TYR96       0.2619
     71  O         14.5460   28.9450   25.5650 O.2    96  TYR96      -0.2715
     72  CB        11.8810   27.7760   25.8860 C.3    96  TYR96       0.0574
     73  CG        11.3970   28.2800   24.5790 C.ar   96  TYR96      -0.0198
     74  CD1       10.7820   27.4080   23.6870 C.ar   96  TYR96      -0.0009
     75  CD2       11.6010   29.5970   24.1890 C.ar   96  TYR96      -0.0009
     76  CE1       10.3260   27.8380   22.4630 C.ar   96  TYR96       0.0417
     77  CE2       11.1650   30.0410   22.9440 C.ar   96  TYR96       0.0417
     78  CZ        10.5170   29.1520   22.0960 C.ar   96  TYR96       0.1957
     79  OH        10.0760   29.5220   20.8560 O.3    96  TYR96      -0.2866
     80  N         14.4730   27.6000   23.7670 N.am   97  VAL97      -0.1964
     81  CA        15.3050   28.4220   22.9100 C.3    97  VAL97       0.1712
     82  C         14.5460   28.4820   21.5780 C.2    97  VAL97       0.2458
     83  O         13.9680   27.4900   21.1470 O.2    97  VAL97      -0.2730
     84  CB        16.6950   27.8020   22.7360 C.3    97  VAL97       0.0289
     85  CG1       17.5330   28.6000   21.7410 C.3    97  VAL97       0.0023
     86  CG2       17.4360   27.7250   24.0610 C.3    97  VAL97       0.0023
     87  N         14.4890   29.6560   20.9520 N.am   98  PRO98      -0.2716
     88  CA        13.5320   29.8020   19.8050 C.3    98  PRO98       0.1536
     89  C         14.0270   29.2340   18.4610 C.2    98  PRO98       0.2598
     90  O         13.2120   28.9810   17.6080 O.2    98  PRO98      -0.2715
     91  CB        13.3200   31.3370   19.7190 C.3    98  PRO98       0.0310
     92  CG        14.6450   31.8860   20.2190 C.3    98  PRO98       0.0237
     93  CD        15.0490   30.9670   21.3640 C.3    98  PRO98       0.0939
     94  N         15.3220   28.9990   18.2970 N.am   99  GLU99      -0.1964
     95  CA        15.9070   28.5510   17.0220 C.3    99  GLU99       0.1733
     96  C         16.8580   27.3850   17.1580 C.2    99  GLU99       0.2617
     97  O         17.2750   26.9990   18.2650 O.2    99  GLU99      -0.2715
     98  CB        16.6790   29.6960   16.3090 C.3    99  GLU99       0.0429
     99  CG        15.8240   30.8210   15.7710 C.3    99  GLU99       0.1163
    100  CD        14.7650   30.2680   14.8450 C.2    99  GLU99       0.3649
    101  OE1       13.6510   30.8040   14.7780 O.co2  99  GLU99      -0.2457
    102  OE2       15.0260   29.2250   14.2310 O.co2  99  GLU99      -0.2457
    103  N         17.1790   26.8100   16.0060 N.am  100  THR100     -0.1951
    104  CA        18.1400   25.7420   15.9060 C.3   100  THR100      0.1897
    105  C         19.1070   26.0210   14.7770 C.2   100  THR100      0.2313
    106  O         18.8490   26.8590   13.9460 O.2   100  THR100     -0.2863
    107  CB        17.4940   24.4210   15.5880 C.3   100  THR100      0.1794
    108  OG1       16.8260   24.5520   14.3330 O.3   100  THR100     -0.2208
    109  CG2       16.5550   24.0440   16.6360 C.3   100  THR100      0.0378
    110  N         17.3680   25.2840   11.4700 N.3   103  ARG103     -0.1245
    111  CA        16.5790   26.3940   10.9270 C.3   103  ARG103      0.1563
    112  C         17.4150   27.5420   10.3900 C.2   103  ARG103      0.2260
    113  O         17.2110   28.0060    9.2900 O.2   103  ARG103     -0.2867
    114  CB        15.5650   26.8720   11.9500 C.3   103  ARG103      0.0307
    115  CG        14.5350   25.7890   12.1730 C.3   103  ARG103      0.0489
    116  CD        13.8730   25.9770   13.5040 C.3   103  ARG103      0.2205
    117  NE        13.1880   27.2700   13.6090 N.pl3 103  ARG103     -0.0865
    118  CZ        11.9130   27.5160   13.2840 C.cat 103  ARG103      0.5346
    119  NH1       11.1490   26.5940   12.7570 N.pl3 103  ARG103      0.1354
    120  NH2       11.4230   28.7220   13.4750 N.pl3 103  ARG103      0.1354
    121  N         19.3520   19.7620   13.8230 N.3   147  GLN147     -0.1231
    122  CA        18.0830   19.9030   14.4920 C.3   147  GLN147      0.1698
    123  C         18.1750   19.8220   16.0300 C.2   147  GLN147      0.2592
    124  O         17.2710   20.2490   16.7170 O.2   147  GLN147     -0.2718
    125  CB        17.0990   18.8230   14.0210 C.3   147  GLN147      0.0381
    126  CG        16.6550   18.7630   12.5570 C.3   147  GLN147      0.0905
    127  CD        17.6800   18.0790   11.5970 C.2   147  GLN147      0.2608
    128  OE1       18.9000   17.9210   11.8740 O.2   147  GLN147     -0.2717
    129  NE2       17.1830   17.7320   10.4200 N.am  147  GLN147     -0.0878
    130  N         19.2180   19.2230   16.5750 N.am  148  ASN148     -0.1974
    131  CA        19.3880   19.0250   18.0330 C.3   148  ASN148      0.1688
    132  C         20.3850   20.0080   18.5930 C.2   148  ASN148      0.2292
    133  O         20.9000   19.8180   19.6910 O.2   148  ASN148     -0.2864
    134  CB        19.8000   17.5570   18.3720 C.3   148  ASN148      0.1181
    135  CG        18.6500   16.5700   18.1440 C.2   148  ASN148      0.2629
    136  OD1       17.5030   16.9510   18.1840 O.2   148  ASN148     -0.2716
    137  ND2       18.9570   15.3240   17.8770 N.am  148  ASN148     -0.0877
    138  N         20.2070   23.7190   19.7210 N.3   150  LEU150     -0.1245
    139  CA        19.4820   24.9390   20.0010 C.3   150  LEU150      0.1561
    140  C         20.4080   26.1210   19.8820 C.2   150  LEU150      0.2260
    141  O         21.6080   26.0290   20.1270 O.2   150  LEU150     -0.2867
    142  CB        18.9020   24.9420   21.3760 C.3   150  LEU150      0.0270
    143  CG        17.9090   23.8470   21.6850 C.3   150  LEU150      0.0019
    144  CD1       17.6710   23.8540   23.2000 C.3   150  LEU150      0.0001
    145  CD2       16.6040   24.0240   20.9390 C.3   150  LEU150      0.0001
    146  N         20.7070   19.5460   22.6220 N.3   161  CYS161     -0.1221
    147  CA        19.5000   19.0770   23.2690 C.3   161  CYS161      0.1808
    148  C         19.0850   17.7040   22.7250 C.2   161  CYS161      0.2601
    149  O         19.8120   17.1110   21.9410 O.2   161  CYS161     -0.2717
    150  CB        18.3850   20.0970   23.1160 C.3   161  CYS161      0.0970
    151  SG        17.6630   20.1010   21.4510 S.3   161  CYS161     -0.0800
    152  N         17.9270   17.2180   23.1980 N.am  162  ASP162     -0.1973
    153  CA        17.3440   15.9350   22.9000 C.3   162  ASP162      0.1709
    154  C         18.2570   14.7670   23.1840 C.2   162  ASP162      0.2293
    155  O         18.9000   14.2010   22.2940 O.2   162  ASP162     -0.2864
    156  CB        16.8390   15.8330   21.4650 C.3   162  ASP162      0.1436
    157  CG        16.0960   14.5110   21.2220 C.2   162  ASP162      0.3671
    158  OD1       15.9870   13.7120   22.2010 O.co2 162  ASP162     -0.2456
    159  OD2       15.6490   14.2510   20.0790 O.co2 162  ASP162     -0.2456
@<TRIPOS>BOND
     1   113   112    2
     2   112   111    1
     3   129   127   am
     4   111   110    1
     5   111   114    1
     6   127   128    2
     7   127   126    1
     8   114   115    1
     9   115   116    1
    10   126   125    1
    11   119   118    1
    12   118   120    1
    13   118   117    2
    14   116   117    1
    15   121   122    1
    16   106   105    2
    17   125   122    1
    18   102   100   ar
    19   108   107    1
    20   122   123    1
    21   105   104    1
    22   101   100   ar
    23   100    99    1
    24   107   104    1
    25   107   109    1
    26    99    98    1
    27   104   103    1
    28   103    96   am
    29   123   130   am
    30   123   124    2
    31    98    95    1
    32   130   131    1
    33    95    96    1
    34    95    94    1
    35    96    97    2
    36    90    89    2
    37    22    20   ar
    38    22    23   ar
    39   137   135   am
    40   131   134    1
    41   131   132    1
    42   135   136    2
    43   135   134    1
    44    94    89   am
    45    89    88    1
    46    20    18   ar
    47     4     3    2
    48    23    21   ar
    49   132   133    2
    50    10    11    1
    51    10     9    1
    52     3     9   am
    53     3     2    1
    54    13    14    1
    55    11    12    2
    56    91    88    1
    57    91    92    1
    58   138   139    1
    59    88    87    1
    60    18    17    1
    61    18    19   ar
    62   140   139    1
    63   140   141    2
    64    21    19   ar
    65   139   142    1
    66   159   157   ar
    67     2     5    1
    68     2     1    1
    69    92    93    1
    70    17    14    1
    71    14    15    1
    72    79    78    1
    73     5     7    1
    74     5     6    1
    75   145   143    1
    76    87    93    1
    77    87    82   am
    78    83    82    2
    79   157   156    1
    80   157   158   ar
    81   142   143    1
    82   151   150    1
    83   156   153    1
    84    82    81    1
    85   143   144    1
    86    85    84    1
    87   149   148    2
    88     6     8    1
    89    78    76   ar
    90    78    77   ar
    91    15    16    2
    92   155   154    2
    93    76    74   ar
    94   146   147    1
    95   148   152   am
    96   148   147    1
    97    84    81    1
    98    84    86    1
    99   153   154    1
   100   153   152    1
   101    81    80    1
   102    77    75   ar
   103    27    26    2
   104   150   147    1
   105    24    25    1
   106    28    30    1
   107    28    25    1
   108    28    29    1
   109    74    73   ar
   110    80    70   am
   111    26    25    1
   112    75    73   ar
   113    73    72    1
   114    70    71    2
   115    70    69    1
   116    44    43    1
   117    69    72    1
   118    69    68    1
   119    43    42    1
   120    42    41    1
   121    35    32    1
   122    63    62    2
   123    49    50    1
   124    49    51    1
   125    49    46    1
   126    41    40    1
   127    45    46    1
   128    68    62   am
   129    40    37    1
   130    62    61    1
   131    32    31    1
   132    32    33    1
   133    37    36    1
   134    37    38    1
   135    46    47    1
   136    64    61    1
   137    64    65    1
   138    33    34    2
   139    58    57    1
   140    38    39    2
   141    61    60    1
   142    47    48    2
   143    56    57    1
   144    56    53    1
   145    67    65   ar
   146    60    54   am
   147    65    66   ar
   148    57    59    1
   149    55    54    2
   150    54    53    1
   151    53    52    1
