@<TRIPOS>MOLECULE
tmp/5kpmB00.pdb
 150 141 0 0 0
SMALL
GASTEIGER

@<TRIPOS>ATOM
      1  N          3.8550   21.0180   19.3300 N.3    27  ILE27      -0.1231
      2  CA         4.5480   21.6130   18.1800 C.3    27  ILE27       0.1692
      3  C          5.5300   20.6890   17.4980 C.2    27  ILE27       0.2592
      4  O          6.2930   21.1660   16.6950 O.2    27  ILE27      -0.2718
      5  CB         5.3340   22.8800   18.5450 C.3    27  ILE27       0.0266
      6  CG1        6.4170   22.5750   19.5740 C.3    27  ILE27       0.0019
      7  CG2        4.4020   23.9680   19.0770 C.3    27  ILE27       0.0020
      8  CD1        7.3120   23.7880   19.8030 C.3    27  ILE27       0.0001
      9  N          5.5070   19.3920   17.7920 N.am   28  GLY28      -0.1957
     10  CA         6.6020   18.5240   17.4010 C.3    28  GLY28       0.1869
     11  C          6.3780   17.0650   17.6790 C.2    28  GLY28       0.2309
     12  O          5.5830   16.7140   18.5200 O.2    28  GLY28      -0.2863
     13  N         10.5410    9.1790   19.2730 N.3    32  PHE32      -0.1241
     14  CA        10.6970    9.4830   20.7050 C.3    32  PHE32       0.1605
     15  C          9.4090    9.8960   21.4550 C.2    32  PHE32       0.2264
     16  O          9.1690    9.4820   22.5760 O.2    32  PHE32      -0.2867
     17  CB        11.7870   10.5510   20.9110 C.3    32  PHE32       0.0534
     18  CG        11.5190   11.8480   20.2120 C.ar   32  PHE32      -0.0203
     19  CD1       10.7410   12.8340   20.8290 C.ar   32  PHE32      -0.0042
     20  CD2       12.0410   12.0870   18.9320 C.ar   32  PHE32      -0.0042
     21  CE1       10.4690   14.0220   20.1830 C.ar   32  PHE32      -0.0003
     22  CE2       11.7930   13.2860   18.2920 C.ar   32  PHE32      -0.0003
     23  CZ        11.0090   14.2560   18.9210 C.ar   32  PHE32      -0.0000
     24  N          6.9730   17.1770   21.2310 N.3    35  VAL35      -0.1245
     25  CA         7.5710   18.3760   21.7230 C.3    35  VAL35       0.1561
     26  C          6.5040   19.4030   21.9210 C.2    35  VAL35       0.2260
     27  O          5.7960   19.7180   20.9940 O.2    35  VAL35      -0.2867
     28  CB         8.6130   18.9350   20.7290 C.3    35  VAL35       0.0252
     29  CG1        9.2350   20.2340   21.2500 C.3    35  VAL35       0.0019
     30  CG2        9.6940   17.9050   20.4420 C.3    35  VAL35       0.0019
     31  N         10.8600   25.0410   24.6920 N.3    48  ALA48      -0.1245
     32  CA        10.3920   23.7750   24.2020 C.3    48  ALA48       0.1562
     33  C         10.5850   22.7160   25.2670 C.2    48  ALA48       0.2260
     34  O         11.6190   22.6690   25.9320 O.2    48  ALA48      -0.2867
     35  CB        11.1570   23.3920   22.9480 C.3    48  ALA48       0.0290
     36  N         10.5750   18.6400   25.3190 N.3    50  LYS50      -0.1245
     37  CA        10.6000   17.4460   24.5420 C.3    50  LYS50       0.1561
     38  C         10.4070   16.2460   25.4870 C.2    50  LYS50       0.2260
     39  O         11.2910   15.9050   26.2880 O.2    50  LYS50      -0.2867
     40  CB        11.9220   17.3680   23.7780 C.3    50  LYS50       0.0271
     41  CG        12.2470   15.9970   23.2060 C.3    50  LYS50       0.0035
     42  CD        13.3970   16.1030   22.2230 C.3    50  LYS50       0.0206
     43  CE        13.5680   14.8020   21.4600 C.3    50  LYS50       0.1093
     44  NZ        14.9950   14.4430   21.3200 N.3    50  LYS50      -0.1314
     45  N         21.7320   24.6100   21.3060 N.3    75  VAL75      -0.1245
     46  CA        20.4820   24.7470   22.0460 C.3    75  VAL75       0.1561
     47  C         20.7880   24.4130   23.5020 C.2    75  VAL75       0.2260
     48  O         21.4340   23.4260   23.7780 O.2    75  VAL75      -0.2867
     49  CB        19.3400   23.8780   21.4610 C.3    75  VAL75       0.0252
     50  CG1       19.4850   22.4000   21.8190 C.3    75  VAL75       0.0019
     51  CG2       17.9930   24.3750   21.9080 C.3    75  VAL75       0.0019
     52  N         14.1700   23.0210   26.7890 N.3    94  LEU94      -0.1231
     53  CA        15.1630   23.4960   25.8520 C.3    94  LEU94       0.1693
     54  C         14.7590   24.8260   25.3090 C.2    94  LEU94       0.2592
     55  O         13.6050   25.1860   25.3800 O.2    94  LEU94      -0.2718
     56  CB        15.2400   22.5010   24.7040 C.3    94  LEU94       0.0284
     57  CG        15.9190   21.1590   25.0510 C.3    94  LEU94       0.0019
     58  CD1       15.3920   19.9790   24.2420 C.3    94  LEU94       0.0001
     59  CD2       17.4080   21.2560   24.8440 C.3    94  LEU94       0.0001
     60  N         15.7030   25.5530   24.7320 N.am   95  ASP95      -0.1960
     61  CA        15.3750   26.8080   24.0600 C.3    95  ASP95       0.1840
     62  C         14.2620   26.6160   23.0140 C.2    95  ASP95       0.2622
     63  O         14.2000   25.5920   22.3090 O.2    95  ASP95      -0.2715
     64  CB        16.5930   27.3970   23.3330 C.3    95  ASP95       0.1450
     65  CG        17.6920   27.8700   24.2770 C.2    95  ASP95       0.3671
     66  OD1       17.3800   28.2590   25.4410 O.co2  95  ASP95      -0.2456
     67  OD2       18.8770   27.8570   23.8380 O.co2  95  ASP95      -0.2456
     68  N         13.3630   27.5940   22.9510 N.am   96  TYR96      -0.1960
     69  CA        12.4480   27.7310   21.8200 C.3    96  TYR96       0.1771
     70  C         13.0120   28.8290   20.9830 C.2    96  TYR96       0.2619
     71  O         13.3160   29.8740   21.5060 O.2    96  TYR96      -0.2715
     72  CB        11.0180   28.0920   22.2200 C.3    96  TYR96       0.0574
     73  CG        10.1440   28.2400   20.9970 C.ar   96  TYR96      -0.0198
     74  CD1        9.6100   27.0990   20.3670 C.ar   96  TYR96      -0.0009
     75  CD2        9.8650   29.5020   20.4430 C.ar   96  TYR96      -0.0009
     76  CE1        8.8230   27.2030   19.2340 C.ar   96  TYR96       0.0417
     77  CE2        9.0850   29.6180   19.2890 C.ar   96  TYR96       0.0417
     78  CZ         8.5740   28.4620   18.6910 C.ar   96  TYR96       0.1957
     79  OH         7.7980   28.5220   17.5660 O.3    96  TYR96      -0.2866
     80  N         13.1740   28.5750   19.6970 N.am   97  VAL97      -0.1964
     81  CA        13.6430   29.5910   18.8040 C.3    97  VAL97       0.1712
     82  C         12.6740   29.6100   17.6370 C.2    97  VAL97       0.2458
     83  O         12.3310   28.5520   17.1290 O.2    97  VAL97      -0.2730
     84  CB        15.0600   29.2910   18.3660 C.3    97  VAL97       0.0289
     85  CG1       15.5390   30.3310   17.3770 C.3    97  VAL97       0.0023
     86  CG2       15.9970   29.3320   19.5520 C.3    97  VAL97       0.0023
     87  N         12.2100   30.8090   17.2150 N.am   98  PRO98      -0.2727
     88  CA        11.0550   30.8220   16.2940 C.3    98  PRO98       0.1402
     89  C         11.3610   30.4340   14.8320 C.2    98  PRO98       0.2269
     90  O         10.4760   29.8820   14.1810 O.2    98  PRO98      -0.2865
     91  CB        10.5470   32.2470   16.3950 C.3    98  PRO98       0.0296
     92  CG        11.7730   33.0490   16.7050 C.3    98  PRO98       0.0237
     93  CD        12.6720   32.1740   17.5350 C.3    98  PRO98       0.0939
     94  N         14.1110   28.7450   11.5850 N.3   100  THR100     -0.1218
     95  CA        15.1830   27.8110   11.2080 C.3   100  THR100      0.1862
     96  C         15.8520   28.2510    9.8900 C.2   100  THR100      0.2287
     97  O         15.2870   29.0430    9.1410 O.2   100  THR100     -0.2866
     98  CB        14.6660   26.3860   10.9770 C.3   100  THR100      0.1770
     99  OG1       13.8100   26.3630    9.8400 O.3   100  THR100     -0.2211
    100  CG2       13.8920   25.9000   12.1250 C.3   100  THR100      0.0375
    101  N         13.6080   27.2910    6.8600 N.3   103  ARG103     -0.1245
    102  CA        12.5460   28.2440    6.5730 C.3   103  ARG103      0.1563
    103  C         12.9960   29.5130    5.8960 C.2   103  ARG103      0.2260
    104  O         12.3960   29.9410    4.8890 O.2   103  ARG103     -0.2867
    105  CB        11.7590   28.5180    7.8150 C.3   103  ARG103      0.0307
    106  CG        10.7140   27.4310    7.9550 C.3   103  ARG103      0.0489
    107  CD        10.2670   27.2060    9.3730 C.3   103  ARG103      0.2205
    108  NE         8.8130   27.3210    9.5230 N.pl3 103  ARG103     -0.0865
    109  CZ         8.1390   28.4590    9.7160 C.cat 103  ARG103      0.5346
    110  NH1        6.8270   28.4040    9.8850 N.pl3 103  ARG103      0.1354
    111  NH2        8.7490   29.6400    9.7460 N.pl3 103  ARG103      0.1354
    112  N         16.9790   22.1240    8.6720 N.3   147  GLN147     -0.1231
    113  CA        15.8430   22.0410    9.5880 C.3   147  GLN147      0.1698
    114  C         16.2890   21.9670   11.0620 C.2   147  GLN147      0.2592
    115  O         15.4690   22.0960   11.9590 O.2   147  GLN147     -0.2718
    116  CB        14.9470   20.8110    9.3050 C.3   147  GLN147      0.0381
    117  CG        14.3300   20.6680    7.9160 C.3   147  GLN147      0.0905
    118  CD        15.3610   20.3530    6.7710 C.2   147  GLN147      0.2608
    119  OE1       16.5680   20.1850    6.9800 O.2   147  GLN147     -0.2717
    120  NE2       14.8640   20.3250    5.5490 N.am  147  GLN147     -0.0878
    121  N         17.5630   21.6830   11.3120 N.am  148  ASN148     -0.1974
    122  CA        18.1020   21.5490   12.6590 C.3   148  ASN148      0.1688
    123  C         19.0740   22.7070   12.9510 C.2   148  ASN148      0.2292
    124  O         19.8590   22.6290   13.9070 O.2   148  ASN148     -0.2864
    125  CB        18.8140   20.1780   12.8290 C.3   148  ASN148      0.1181
    126  CG        17.8440   18.9910   13.0090 C.2   148  ASN148      0.2629
    127  OD1       16.6900   19.1350   13.3720 O.2   148  ASN148     -0.2716
    128  ND2       18.3500   17.8100   12.7740 N.am  148  ASN148     -0.0877
    129  N         18.5710   26.3260   14.1740 N.3   150  LEU150     -0.1245
    130  CA        17.6970   27.3480   14.7210 C.3   150  LEU150      0.1561
    131  C         18.3340   28.7160   14.5430 C.2   150  LEU150      0.2260
    132  O         19.5360   28.8620   14.7410 O.2   150  LEU150     -0.2867
    133  CB        17.4390   27.0850   16.2120 C.3   150  LEU150      0.0270
    134  CG        16.8360   25.7240   16.5580 C.3   150  LEU150      0.0019
    135  CD1       16.5110   25.6500   18.0460 C.3   150  LEU150      0.0001
    136  CD2       15.5950   25.3650   15.7620 C.3   150  LEU150      0.0001
    137  N         20.6930   22.3040   16.9490 N.3   161  CYS161     -0.1221
    138  CA        19.6920   21.6540   17.7940 C.3   161  CYS161      0.1808
    139  C         19.4420   20.2050   17.3880 C.2   161  CYS161      0.2601
    140  O         20.0070   19.7480   16.4240 O.2   161  CYS161     -0.2717
    141  CB        18.3750   22.4520   17.7250 C.3   161  CYS161      0.0970
    142  SG        17.2960   22.0240   16.3300 S.3   161  CYS161     -0.0800
    143  N         18.5570   19.5320   18.1340 N.am  162  ASP162     -0.1973
    144  CA        18.1040   18.1560   17.9210 C.3   162  ASP162      0.1709
    145  C         19.2200   17.1290   17.9900 C.2   162  ASP162      0.2293
    146  O         19.7190   16.6530   16.9570 O.2   162  ASP162     -0.2864
    147  CB        17.3300   18.0220   16.6150 C.3   162  ASP162      0.1436
    148  CG        16.7080   16.6240   16.4370 C.2   162  ASP162      0.3671
    149  OD1       17.0590   15.6780   17.2020 O.co2 162  ASP162     -0.2456
    150  OD2       15.8710   16.4770   15.5160 O.co2 162  ASP162     -0.2456
@<TRIPOS>BOND
     1   104   103    2
     2   120   118   am
     3   103   102    1
     4   102   101    1
     5   102   105    1
     6   118   119    2
     7   118   117    1
     8   105   106    1
     9   117   116    1
    10   106   107    1
    11   112   113    1
    12    97    96    2
    13   116   113    1
    14   107   108    1
    15   108   109    2
    16   113   114    1
    17   109   111    1
    18   109   110    1
    19    99    98    1
    20    96    95    1
    21    98    95    1
    22    98   100    1
    23   114   121   am
    24   114   115    2
    25    95    94    1
    26   121   122    1
    27   122   125    1
    28   122   123    1
    29   128   126   am
    30   125   126    1
    31   123   124    2
    32   126   127    2
    33   129   130    1
    34    90    89    2
    35   131   130    1
    36   131   132    2
    37   130   133    1
    38    89    88    1
    39   150   148   ar
    40   136   134    1
    41   133   134    1
    42    88    91    1
    43    88    87    1
    44   142   141    1
    45    91    92    1
    46   140   139    2
    47   148   147    1
    48   148   149   ar
    49   134   135    1
    50   147   144    1
    51     4     3    2
    52    92    93    1
    53   137   138    1
    54   146   145    2
    55    83    82    2
    56    87    93    1
    57    87    82   am
    58    85    84    1
    59   139   138    1
    60   139   143   am
    61    10    11    1
    62    10     9    1
    63     3     9   am
    64     3     2    1
    65    79    78    1
    66    82    81    1
    67    11    12    2
    68   141   138    1
    69   144   145    1
    70   144   143    1
    71     2     5    1
    72     2     1    1
    73    22    23   ar
    74    22    20   ar
    75    84    81    1
    76    84    86    1
    77     5     7    1
    78     5     6    1
    79    78    76   ar
    80    78    77   ar
    81    81    80    1
    82    23    21   ar
    83    20    18   ar
    84    76    74   ar
    85    13    14    1
    86    77    75   ar
    87     6     8    1
    88    80    70   am
    89    21    19   ar
    90    18    19   ar
    91    18    17    1
    92    74    73   ar
    93    30    28    1
    94    75    73   ar
    95    14    17    1
    96    14    15    1
    97    28    29    1
    98    28    25    1
    99    70    71    2
   100    70    69    1
   101    27    26    2
   102    73    72    1
   103    24    25    1
   104    45    46    1
   105    44    43    1
   106    15    16    2
   107    43    42    1
   108    49    50    1
   109    49    51    1
   110    49    46    1
   111    25    26    1
   112    69    72    1
   113    69    68    1
   114    46    47    1
   115    42    41    1
   116    63    62    2
   117    35    32    1
   118    68    62   am
   119    62    61    1
   120    41    40    1
   121    64    61    1
   122    64    65    1
   123    47    48    2
   124    40    37    1
   125    67    65   ar
   126    61    60    1
   127    32    31    1
   128    32    33    1
   129    58    57    1
   130    65    66   ar
   131    37    36    1
   132    37    38    1
   133    56    57    1
   134    56    53    1
   135    60    54   am
   136    59    57    1
   137    33    34    2
   138    54    55    2
   139    54    53    1
   140    38    39    2
   141    53    52    1
