@<TRIPOS>MOLECULE
tmp/5kpoB00.pdb
 194 188 0 0 0
SMALL
GASTEIGER

@<TRIPOS>ATOM
      1  N          6.7100  -21.6520   26.9250 N.3   102  GLU102     -0.1245
      2  CA         6.6150  -22.0380   28.3310 C.3   102  GLU102      0.1567
      3  C          7.6640  -23.0900   28.6990 C.2   102  GLU102      0.2260
      4  O          8.2230  -23.0330   29.7930 O.2   102  GLU102     -0.2867
      5  CB         5.2000  -22.5200   28.6890 C.3   102  GLU102      0.0388
      6  CG         5.0050  -22.7490   30.1910 C.3   102  GLU102      0.1160
      7  CD         3.6130  -22.3990   30.7050 C.2   102  GLU102      0.3649
      8  OE1        3.1220  -21.2820   30.4090 O.co2 102  GLU102     -0.2457
      9  OE2        3.0230  -23.2310   31.4340 O.co2 102  GLU102     -0.2457
     10  N         10.9570  -21.2830   29.1850 N.3   105  ASP105     -0.1239
     11  CA        10.9410  -20.5700   30.4750 C.3   105  ASP105      0.1674
     12  C         11.4080  -21.4860   31.5980 C.2   105  ASP105      0.2266
     13  O         12.1910  -21.0830   32.4610 O.2   105  ASP105     -0.2867
     14  CB         9.5400  -20.0560   30.8250 C.3   105  ASP105      0.1410
     15  CG         9.0890  -18.8960   29.9570 C.2   105  ASP105      0.3668
     16  OD1        9.8350  -18.4440   29.0630 O.co2 105  ASP105     -0.2456
     17  OD2        7.9600  -18.4260   30.1850 O.co2 105  ASP105     -0.2456
     18  N         15.2470  -22.3270   31.2100 N.3   108  LEU108     -0.1231
     19  CA        16.0560  -21.2330   31.7760 C.3   108  LEU108      0.1693
     20  C         16.3140  -21.4370   33.2670 C.2   108  LEU108      0.2592
     21  O         17.4590  -21.3590   33.7160 O.2   108  LEU108     -0.2718
     22  CB        15.3810  -19.8670   31.5830 C.3   108  LEU108      0.0284
     23  CG        15.5310  -19.1290   30.2540 C.3   108  LEU108      0.0019
     24  CD1       14.6290  -17.9040   30.2630 C.3   108  LEU108      0.0001
     25  CD2       16.9780  -18.7210   29.9970 C.3   108  LEU108      0.0001
     26  N         15.2420  -21.6920   34.0190 N.am  109  ASP109     -0.1974
     27  CA        15.3340  -21.9110   35.4700 C.3   109  ASP109      0.1709
     28  C         16.0790  -23.1960   35.8290 C.2   109  ASP109      0.2293
     29  O         16.7720  -23.2450   36.8440 O.2   109  ASP109     -0.2864
     30  CB        13.9410  -21.9080   36.1290 C.3   109  ASP109      0.1436
     31  CG        13.4520  -20.5040   36.4890 C.2   109  ASP109      0.3671
     32  OD1       14.2370  -19.7220   37.0730 O.co2 109  ASP109     -0.2456
     33  OD2       12.2710  -20.1940   36.2180 O.co2 109  ASP109     -0.2456
     34  N          2.2010  -17.3360   43.2220 N.3   201  HIS201     -0.1226
     35  CA         2.9390  -17.7380   42.0220 C.3   201  HIS201      0.1752
     36  C          3.4530  -19.1610   42.1980 C.2   201  HIS201      0.2597
     37  O          4.3510  -19.4060   43.0090 O.2   201  HIS201     -0.2718
     38  CB         4.1060  -16.7950   41.7320 C.3   201  HIS201      0.0759
     39  CG         4.8460  -17.1330   40.4740 C.ar  201  HIS201      0.0818
     40  ND1        4.5700  -16.5320   39.2650 N.ar  201  HIS201     -0.2268
     41  CD2        5.8330  -18.0260   40.2320 C.ar  201  HIS201      0.1154
     42  CE1        5.3620  -17.0320   38.3350 C.ar  201  HIS201      0.1986
     43  NE2        6.1380  -17.9420   38.8960 N.ar  201  HIS201     -0.2212
     44  N          2.8800  -20.0900   41.4380 N.am  202  GLY202     -0.1942
     45  CA         3.2770  -21.4910   41.4810 C.3   202  GLY202      0.2014
     46  C          4.2050  -21.8400   40.3390 C.2   202  GLY202      0.2639
     47  O          4.0480  -21.3430   39.2210 O.2   202  GLY202     -0.2714
     48  N          5.1760  -22.7000   40.6300 N.am  203  SER203     -0.1949
     49  CA         6.1120  -23.2030   39.6320 C.3   203  SER203      0.1924
     50  C          6.5090  -24.6210   40.0070 C.2   203  SER203      0.2314
     51  O          6.2460  -25.0680   41.1290 O.2   203  SER203     -0.2863
     52  CB         7.3330  -22.2950   39.5630 C.3   203  SER203      0.2116
     53  OG         8.1020  -22.5630   38.4090 O.3   203  SER203     -0.2180
     54  N         14.5940  -19.4310   41.0360 N.3   211  ILE211     -0.1245
     55  CA        13.6860  -18.4100   41.5650 C.3   211  ILE211      0.1561
     56  C         14.2470  -17.7630   42.8370 C.2   211  ILE211      0.2260
     57  O         14.2020  -16.5500   42.9650 O.2   211  ILE211     -0.2867
     58  CB        12.2640  -18.9700   41.8450 C.3   211  ILE211      0.0252
     59  CG1       11.5820  -19.4210   40.5490 C.3   211  ILE211      0.0019
     60  CG2       11.3800  -17.9270   42.5270 C.3   211  ILE211      0.0019
     61  CD1       10.3960  -20.3420   40.7670 C.3   211  ILE211      0.0001
     62  N         15.4070  -14.4370   41.7600 N.3   215  GLY215     -0.1210
     63  CA        14.0680  -13.8400   41.7990 C.3   215  GLY215      0.1956
     64  C         13.2440  -14.2840   40.6010 C.2   215  GLY215      0.2612
     65  O         13.7510  -14.9600   39.7080 O.2   215  GLY215     -0.2717
     66  N         11.9680  -13.9160   40.5880 N.am  216  LEU216     -0.1965
     67  CA        11.1420  -14.0910   39.4030 C.3   216  LEU216      0.1728
     68  C         11.5940  -13.0430   38.3880 C.2   216  LEU216      0.2616
     69  O         11.7770  -11.8840   38.7430 O.2   216  LEU216     -0.2715
     70  CB         9.6600  -13.9230   39.7360 C.3   216  LEU216      0.0311
     71  CG         9.0640  -14.9190   40.7360 C.3   216  LEU216      0.0022
     72  CD1        7.6510  -14.5140   41.1150 C.3   216  LEU216      0.0001
     73  CD2        9.0620  -16.3330   40.1790 C.3   216  LEU216      0.0001
     74  N         11.8030  -13.4630   37.1430 N.am  217  ARG217     -0.1963
     75  CA        12.3090  -12.5830   36.0830 C.3   217  ARG217      0.1729
     76  C         11.3300  -12.4610   34.9170 C.2   217  ARG217      0.2616
     77  O         10.3340  -13.1840   34.8320 O.2   217  ARG217     -0.2715
     78  CB        13.6390  -13.1160   35.5500 C.3   217  ARG217      0.0348
     79  CG        14.7770  -13.0800   36.5490 C.3   217  ARG217      0.0492
     80  CD        15.8790  -14.0340   36.1320 C.3   217  ARG217      0.2205
     81  NE        15.4590  -15.4320   36.2720 N.pl3 217  ARG217     -0.0865
     82  CZ        16.0140  -16.4770   35.6530 C.cat 217  ARG217      0.5346
     83  NH1       17.0490  -16.3320   34.8160 N.pl3 217  ARG217      0.1354
     84  NH2       15.5230  -17.6930   35.8730 N.pl3 217  ARG217      0.1354
     85  N         11.6340  -11.5190   34.0260 N.am  218  ILE218     -0.1963
     86  CA        10.9400  -11.3840   32.7490 C.3   218  ILE218      0.1727
     87  C         11.7070  -12.2280   31.7350 C.2   218  ILE218      0.2616
     88  O         12.9370  -12.2560   31.7510 O.2   218  ILE218     -0.2715
     89  CB        10.8470   -9.8960   32.3220 C.3   218  ILE218      0.0290
     90  CG1        9.9050   -9.1410   33.2670 C.3   218  ILE218      0.0022
     91  CG2       10.3600   -9.7440   30.8850 C.3   218  ILE218      0.0023
     92  CD1       10.1000   -7.6410   33.2620 C.3   218  ILE218      0.0001
     93  N         10.9800  -12.9300   30.8670 N.am  219  ALA219     -0.1977
     94  CA        11.5940  -13.6800   29.7620 C.3   219  ALA219      0.1597
     95  C         12.5010  -12.7590   28.9320 C.2   219  ALA219      0.2287
     96  O         12.2230  -11.5600   28.8160 O.2   219  ALA219     -0.2864
     97  CB        10.5160  -14.2930   28.8810 C.3   219  ALA219      0.0319
     98  N          3.0440  -15.3690   25.1510 N.3   228  TYR228     -0.1241
     99  CA         2.4660  -15.1220   26.4720 C.3   228  TYR228      0.1605
    100  C          1.2080  -14.2840   26.3290 C.2   228  TYR228      0.2264
    101  O          1.1930  -13.3210   25.5660 O.2   228  TYR228     -0.2867
    102  CB         3.4830  -14.3950   27.3480 C.3   228  TYR228      0.0534
    103  CG         4.8500  -15.0300   27.2890 C.ar  228  TYR228     -0.0201
    104  CD1        5.8560  -14.5080   26.4710 C.ar  228  TYR228     -0.0009
    105  CD2        5.1260  -16.1830   28.0140 C.ar  228  TYR228     -0.0009
    106  CE1        7.1090  -15.1040   26.4040 C.ar  228  TYR228      0.0417
    107  CE2        6.3740  -16.7820   27.9580 C.ar  228  TYR228      0.0417
    108  CZ         7.3640  -16.2410   27.1540 C.ar  228  TYR228      0.1957
    109  OH         8.5920  -16.8480   27.1060 O.3   228  TYR228     -0.2866
    110  N          5.4100  -10.1970   28.0190 N.3   232  LYS232     -0.1231
    111  CA         6.5430  -10.6620   28.8200 C.3   232  LYS232      0.1693
    112  C          6.6440   -9.9020   30.1410 C.2   232  LYS232      0.2593
    113  O          7.3590   -8.9050   30.2540 O.2   232  LYS232     -0.2718
    114  CB         7.8460  -10.5900   28.0110 C.3   232  LYS232      0.0285
    115  CG         7.8680  -11.5960   26.8690 C.3   232  LYS232      0.0035
    116  CD         9.2000  -11.6440   26.1400 C.3   232  LYS232      0.0206
    117  CE         9.4260  -10.4290   25.2480 C.3   232  LYS232      0.1093
    118  NZ        10.7420  -10.5050   24.5540 N.3   232  LYS232     -0.1314
    119  N          5.8840  -10.3820   31.1220 N.am  233  GLY233     -0.1942
    120  CA         5.9090   -9.8730   32.4950 C.3   233  GLY233      0.2014
    121  C          6.0200  -11.0260   33.4750 C.2   233  GLY233      0.2639
    122  O          6.3110  -12.1590   33.0760 O.2   233  GLY233     -0.2714
    123  N          5.7940  -10.7300   34.7540 N.am  234  ILE234     -0.1963
    124  CA         5.7710  -11.7420   35.8110 C.3   234  ILE234      0.1727
    125  C          4.3210  -11.9310   36.2440 C.2   234  ILE234      0.2616
    126  O          3.6850  -10.9870   36.6920 O.2   234  ILE234     -0.2715
    127  CB         6.6490  -11.3450   37.0150 C.3   234  ILE234      0.0290
    128  CG1        8.0720  -11.0430   36.5490 C.3   234  ILE234      0.0022
    129  CG2        6.6790  -12.4640   38.0590 C.3   234  ILE234      0.0023
    130  CD1        8.9540  -10.4760   37.6350 C.3   234  ILE234      0.0001
    131  N          3.8270  -13.1630   36.1300 N.am  235  TYR235     -0.1960
    132  CA         2.4060  -13.4850   36.2880 C.3   235  TYR235      0.1771
    133  C          2.0870  -13.9660   37.7060 C.2   235  TYR235      0.2620
    134  O          2.8440  -14.7420   38.2830 O.2   235  TYR235     -0.2715
    135  CB         2.0050  -14.5690   35.2820 C.3   235  TYR235      0.0574
    136  CG         1.8910  -14.0890   33.8440 C.ar  235  TYR235     -0.0198
    137  CD1        2.9730  -13.5050   33.1870 C.ar  235  TYR235     -0.0009
    138  CD2        0.6950  -14.2260   33.1370 C.ar  235  TYR235     -0.0009
    139  CE1        2.8670  -13.0640   31.8750 C.ar  235  TYR235      0.0417
    140  CE2        0.5810  -13.7850   31.8270 C.ar  235  TYR235      0.0417
    141  CZ         1.6700  -13.2050   31.2010 C.ar  235  TYR235      0.1957
    142  OH         1.5650  -12.7740   29.9030 O.3   235  TYR235     -0.2866
    143  N          0.9610  -13.5040   38.2520 N.am  236  PHE236     -0.1960
    144  CA         0.4550  -13.9330   39.5580 C.3   236  PHE236      0.1771
    145  C         -1.0410  -14.2410   39.4850 C.2   236  PHE236      0.2619
    146  O         -1.6890  -13.9730   38.4720 O.2   236  PHE236     -0.2715
    147  CB         0.6980  -12.8460   40.6020 C.3   236  PHE236      0.0574
    148  CG         2.1470  -12.5490   40.8450 C.ar  236  PHE236     -0.0200
    149  CD1        2.8220  -11.6240   40.0530 C.ar  236  PHE236     -0.0042
    150  CD2        2.8410  -13.1830   41.8750 C.ar  236  PHE236     -0.0042
    151  CE1        4.1600  -11.3430   40.2740 C.ar  236  PHE236     -0.0003
    152  CE2        4.1830  -12.9030   42.1000 C.ar  236  PHE236     -0.0003
    153  CZ         4.8400  -11.9810   41.2980 C.ar  236  PHE236     -0.0000
    154  N         -1.5740  -14.8090   40.5690 N.am  237  ALA237     -0.1977
    155  CA        -3.0030  -15.1040   40.6970 C.3   237  ALA237      0.1597
    156  C         -3.4820  -14.9180   42.1370 C.2   237  ALA237      0.2287
    157  O         -2.6890  -14.9870   43.0730 O.2   237  ALA237     -0.2864
    158  CB        -3.2920  -16.5200   40.2250 C.3   237  ALA237      0.0319
    159  N         -5.3590  -22.0460   40.7100 N.3   242  LYS242     -0.1231
    160  CA        -4.8660  -21.5690   39.4130 C.3   242  LYS242      0.1693
    161  C         -3.3360  -21.5720   39.3780 C.2   242  LYS242      0.2592
    162  O         -2.7360  -22.1100   38.4460 O.2   242  LYS242     -0.2718
    163  CB        -5.4000  -20.1680   39.0840 C.3   242  LYS242      0.0285
    164  CG        -4.8510  -19.6000   37.7770 C.3   242  LYS242      0.0035
    165  CD        -5.7810  -18.5850   37.1440 C.3   242  LYS242      0.0206
    166  CE        -5.1900  -18.0230   35.8630 C.3   242  LYS242      0.1093
    167  NZ        -6.0540  -16.9570   35.2880 N.3   242  LYS242     -0.1314
    168  N         -2.7220  -20.9660   40.3920 N.am  243  SER243     -0.1952
    169  CA        -1.2640  -20.9860   40.5370 C.3   243  SER243      0.1924
    170  C         -0.7220  -22.4060   40.7440 C.2   243  SER243      0.2314
    171  O          0.3060  -22.7620   40.1640 O.2   243  SER243     -0.2863
    172  CB        -0.8090  -20.0590   41.6720 C.3   243  SER243      0.2116
    173  OG        -0.7950  -18.7110   41.2380 O.3   243  SER243     -0.2180
    174  N          0.3440  -24.6860   37.8230 N.3   246  TYR246     -0.1241
    175  CA         1.6870  -24.4560   37.2630 C.3   246  TYR246      0.1605
    176  C          2.8350  -25.1400   38.0280 C.2   246  TYR246      0.2264
    177  O          3.9900  -25.0700   37.5910 O.2   246  TYR246     -0.2867
    178  CB         1.9640  -22.9530   37.1350 C.3   246  TYR246      0.0534
    179  CG         1.0110  -22.2580   36.1920 C.ar  246  TYR246     -0.0201
    180  CD1        1.2430  -22.2430   34.8190 C.ar  246  TYR246     -0.0009
    181  CD2       -0.1310  -21.6210   36.6730 C.ar  246  TYR246     -0.0009
    182  CE1        0.3600  -21.6150   33.9490 C.ar  246  TYR246      0.0417
    183  CE2       -1.0160  -20.9880   35.8170 C.ar  246  TYR246      0.0417
    184  CZ        -0.7690  -20.9860   34.4560 C.ar  246  TYR246      0.1957
    185  OH        -1.6490  -20.3550   33.6080 O.3   246  TYR246     -0.2866
    186  N         -5.8620  -12.8140   37.0760 N.3   327  GLU327     -0.1245
    187  CA        -4.4740  -12.8610   36.6540 C.3   327  GLU327      0.1567
    188  C         -3.9010  -11.4760   36.8800 C.2   327  GLU327      0.2260
    189  O         -4.5730  -10.4880   36.6020 O.2   327  GLU327     -0.2867
    190  CB        -4.4140  -13.2380   35.1670 C.3   327  GLU327      0.0388
    191  CG        -3.1940  -14.0400   34.7460 C.3   327  GLU327      0.1160
    192  CD        -3.4130  -14.8070   33.4520 C.2   327  GLU327      0.3649
    193  OE1       -2.5430  -14.7310   32.5600 O.co2 327  GLU327     -0.2457
    194  OE2       -4.4420  -15.5010   33.3270 O.co2 327  GLU327     -0.2457
@<TRIPOS>BOND
     1   118   117    1
     2    98    99    1
     3   117   116    1
     4   101   100    2
     5   116   115    1
     6   100    99    1
     7   106   104   ar
     8   106   108   ar
     9   104   103   ar
    10    99   102    1
    11   115   114    1
    12     1     2    1
    13   109   108    1
    14   108   107   ar
    15   103   102    1
    16   103   105   ar
    17   107   105   ar
    18   114   111    1
    19   110   111    1
    20     2     5    1
    21     2     3    1
    22     5     6    1
    23     3     4    2
    24    96    95    2
    25   111   112    1
    26    97    94    1
    27    95    94    1
    28    16    15   ar
    29    10    11    1
    30    94    93    1
    31   142   141    1
    32    15    17   ar
    33    15    14    1
    34    25    23    1
    35   112   113    2
    36   112   119   am
    37     6     7    1
    38    23    24    1
    39    23    22    1
    40     8     7   ar
    41    11    14    1
    42    11    12    1
    43     7     9   ar
    44    93    87   am
    45    91    89    1
    46   119   120    1
    47   141   140   ar
    48   141   139   ar
    49    18    19    1
    50    22    19    1
    51    12    13    2
    52    87    88    2
    53    87    86    1
    54    19    20    1
    55   140   138   ar
    56   139   137   ar
    57    89    86    1
    58    89    90    1
    59   120   121    1
    60   193   192   ar
    61    86    85    1
    62   122   121    2
    63   138   136   ar
    64   137   136   ar
    65    92    90    1
    66    20    21    2
    67    20    26   am
    68   194   192   ar
    69   192   191    1
    70   121   123   am
    71   185   184    1
    72   136   135    1
    73   182   184   ar
    74   182   180   ar
    75    26    27    1
    76    85    76   am
    77   184   183   ar
    78   191   190    1
    79   123   124    1
    80    83    82    1
    81   180   179   ar
    82    77    76    2
    83    76    75    1
    84   190   187    1
    85   135   132    1
    86   167   166    1
    87    27    28    1
    88    27    30    1
    89    78    75    1
    90    78    79    1
    91    82    84    1
    92    82    81    2
    93   124   125    1
    94   124   127    1
    95   183   181   ar
    96    28    29    2
    97   166   165    1
    98    75    74    1
    99    30    31    1
   100   131   125   am
   101   131   132    1
   102    80    81    1
   103    80    79    1
   104   179   181   ar
   105   179   178    1
   106    33    31   ar
   107   125   126    2
   108   132   133    1
   109    31    32   ar
   110   128   127    1
   111   128   130    1
   112   189   188    2
   113   187   188    1
   114   187   186    1
   115   127   129    1
   116   178   175    1
   117    74    68   am
   118   165   164    1
   119   175   174    1
   120   175   176    1
   121   177   176    2
   122   133   143   am
   123   133   134    2
   124   164   163    1
   125   143   144    1
   126    42    43   ar
   127    42    40   ar
   128    68    69    2
   129    68    67    1
   130    53    52    1
   131   162   161    2
   132   146   145    2
   133    43    41   ar
   134   163   160    1
   135    47    46    2
   136    40    39   ar
   137   161   160    1
   138   161   168   am
   139    67    70    1
   140    67    66    1
   141   160   159    1
   142   145   144    1
   143   145   154   am
   144   144   147    1
   145    52    49    1
   146    49    50    1
   147    49    48    1
   148    65    64    2
   149    70    71    1
   150    50    51    2
   151   149   151   ar
   152   149   148   ar
   153   171   170    2
   154    73    71    1
   155   158   155    1
   156    41    39   ar
   157   151   153   ar
   158    46    48   am
   159    46    45    1
   160   168   169    1
   161    39    38    1
   162   169   170    1
   163   169   172    1
   164    59    61    1
   165    59    58    1
   166   154   155    1
   167    66    64   am
   168    64    63    1
   169   147   148    1
   170   155   156    1
   171    71    72    1
   172   148   150   ar
   173    54    55    1
   174   173   172    1
   175   153   152   ar
   176    44    45    1
   177    44    36   am
   178    55    58    1
   179    55    56    1
   180    38    35    1
   181    62    63    1
   182    58    60    1
   183   150   152   ar
   184    35    36    1
   185    35    34    1
   186   156   157    2
   187    36    37    2
   188    56    57    2
