@<TRIPOS>MOLECULE
tmp/5kprA00.pdb
 186 174 0 0 0
SMALL
GASTEIGER

@<TRIPOS>ATOM
      1  N         32.7030  -15.4710   -4.9350 N.3    10  ASP10      -0.1239
      2  CA        32.2820  -16.0050   -6.2300 C.3    10  ASP10       0.1674
      3  C         31.4860  -14.9030   -6.9250 C.2    10  ASP10       0.2266
      4  O         30.3610  -14.5970   -6.5150 O.2    10  ASP10      -0.2867
      5  CB        31.4510  -17.2670   -6.0110 C.3    10  ASP10       0.1410
      6  CG        30.9180  -17.8920   -7.3070 C.2    10  ASP10       0.3668
      7  OD1       31.0890  -17.3130   -8.4000 O.co2  10  ASP10      -0.2456
      8  OD2       30.3160  -18.9830   -7.2020 O.co2  10  ASP10      -0.2456
      9  N         29.4460  -13.9990   -9.7860 N.3    12  GLY12      -0.1210
     10  CA        28.6960  -14.6060  -10.8650 C.3    12  GLY12       0.1956
     11  C         28.1660  -13.5870  -11.8580 C.2    12  GLY12       0.2612
     12  O         28.3650  -12.3770  -11.7350 O.2    12  GLY12      -0.2717
     13  N         27.4420  -14.1080  -12.8530 N.am   13  GLY13      -0.1942
     14  CA        26.8090  -13.2320  -13.8270 C.3    13  GLY13       0.2014
     15  C         25.7280  -12.3510  -13.2400 C.2    13  GLY13       0.2640
     16  O         25.4620  -11.2750  -13.7830 O.2    13  GLY13      -0.2714
     17  N         25.1170  -12.7680  -12.1250 N.am   14  THR14      -0.1936
     18  CA        24.0260  -12.0210  -11.5120 C.3    14  THR14       0.2028
     19  C         24.2940  -11.6630  -10.0590 C.2    14  THR14       0.2642
     20  O         24.0050  -10.5400   -9.6430 O.2    14  THR14      -0.2714
     21  CB        22.7220  -12.8340  -11.5890 C.3    14  THR14       0.1808
     22  OG1       22.3680  -13.0440  -12.9640 O.3    14  THR14      -0.2208
     23  CG2       21.5840  -12.0820  -10.9020 C.3    14  THR14       0.0379
     24  N         24.8010  -12.6020   -9.2690 N.am   15  LEU15      -0.1977
     25  CA        25.0120  -12.3950   -7.8370 C.3    15  LEU15       0.1596
     26  C         26.4680  -12.6010   -7.4600 C.2    15  LEU15       0.2287
     27  O         27.1340  -13.4920   -7.9870 O.2    15  LEU15      -0.2864
     28  CB        24.1520  -13.3520   -7.0050 C.3    15  LEU15       0.0297
     29  CG        22.6440  -13.1860   -7.1830 C.3    15  LEU15       0.0022
     30  CD1       21.9240  -14.2000   -6.3100 C.3    15  LEU15       0.0001
     31  CD2       22.2430  -11.7550   -6.8210 C.3    15  LEU15       0.0001
     32  N         28.6330  -13.8090   -4.2580 N.3    17  LYS17      -0.1245
     33  CA        28.5190  -14.5650   -3.0230 C.3    17  LYS17       0.1561
     34  C         29.8370  -14.4350   -2.2860 C.2    17  LYS17       0.2260
     35  O         30.9120  -14.5210   -2.8940 O.2    17  LYS17      -0.2867
     36  CB        28.1920  -16.0410   -3.2910 C.3    17  LYS17       0.0271
     37  CG        26.7370  -16.3280   -3.7130 C.3    17  LYS17       0.0035
     38  CD        26.4100  -15.8650   -5.1540 C.3    17  LYS17       0.0206
     39  CE        27.2000  -16.6140   -6.2350 C.3    17  LYS17       0.1093
     40  NZ        26.6500  -16.2860   -7.6160 N.3    17  LYS17      -0.1314
     41  N         23.0320   -8.6410    1.7570 N.3    56  ILE56      -0.1245
     42  CA        22.2910   -9.4150    2.7530 C.3    56  ILE56       0.1561
     43  C         23.1910  -10.4950    3.3330 C.2    56  ILE56       0.2260
     44  O         23.8050  -11.2660    2.5900 O.2    56  ILE56      -0.2867
     45  CB        21.0340  -10.0710    2.1480 C.3    56  ILE56       0.0252
     46  CG1       20.0770   -9.0030    1.6140 C.3    56  ILE56       0.0019
     47  CG2       20.3340  -10.9420    3.1910 C.3    56  ILE56       0.0019
     48  CD1       18.9960   -9.5500    0.7220 C.3    56  ILE56       0.0001
     49  N         25.4770  -12.1390    0.3050 N.3    79  ARG79      -0.1245
     50  CA        25.2530  -12.0070   -1.1340 C.3    79  ARG79       0.1563
     51  C         24.8390  -10.5800   -1.4890 C.2    79  ARG79       0.2260
     52  O         24.2550   -9.8590   -0.6800 O.2    79  ARG79      -0.2867
     53  CB        24.1980  -13.0020   -1.6390 C.3    79  ARG79       0.0307
     54  CG        22.8520  -12.9270   -0.9180 C.3    79  ARG79       0.0489
     55  CD        21.8980  -14.0690   -1.3240 C.3    79  ARG79       0.2205
     56  NE        20.8840  -14.2400   -0.2830 N.pl3  79  ARG79      -0.0865
     57  CZ        19.7160  -13.6100   -0.2600 C.cat  79  ARG79       0.5346
     58  NH1       18.8840  -13.7900    0.7660 N.pl3  79  ARG79       0.1354
     59  NH2       19.3740  -12.8030   -1.2610 N.pl3  79  ARG79       0.1354
     60  N         24.0850   -8.0670   -5.4640 N.3    81  PRO81      -0.2116
     61  CA        24.0600   -8.1670   -6.9300 C.3    81  PRO81       0.1372
     62  C         25.3920   -7.7590   -7.5340 C.2    81  PRO81       0.2244
     63  O         26.0580   -6.8420   -7.0500 O.2    81  PRO81      -0.2868
     64  CB        22.9440   -7.1950   -7.3440 C.3    81  PRO81       0.0268
     65  CG        22.1730   -6.9160   -6.0920 C.3    81  PRO81       0.0207
     66  CD        23.1750   -7.0180   -4.9800 C.3    81  PRO81       0.0892
     67  N         32.9550  -15.9420  -13.1310 N.3   106  GLY106     -0.1225
     68  CA        33.4210  -15.1740  -14.2810 C.3   106  GLY106      0.1811
     69  C         33.9080  -13.7890  -13.9090 C.2   106  GLY106      0.2280
     70  O         34.8230  -13.2570  -14.5370 O.2   106  GLY106     -0.2866
     71  N         35.8230  -21.5520  -11.5810 N.3   128  GLU128     -0.1245
     72  CA        34.4510  -21.4770  -11.0820 C.3   128  GLU128      0.1567
     73  C         33.9020  -22.8500  -10.7080 C.2   128  GLU128      0.2260
     74  O         33.2650  -23.0160   -9.6590 O.2   128  GLU128     -0.2867
     75  CB        33.5660  -20.8100  -12.1400 C.3   128  GLU128      0.0388
     76  CG        32.0780  -20.9030  -11.8650 C.3   128  GLU128      0.1160
     77  CD        31.2500  -20.3590  -13.0190 C.2   128  GLU128      0.3649
     78  OE1       31.8010  -19.5930  -13.8410 O.co2 128  GLU128     -0.2457
     79  OE2       30.0510  -20.7060  -13.1060 O.co2 128  GLU128     -0.2457
     80  N         24.2370  -27.0180  -11.5620 N.3   179  ASN179     -0.1240
     81  CA        24.3970  -25.7000  -10.9510 C.3   179  ASN179      0.1653
     82  C         23.5410  -24.7080  -11.7190 C.2   179  ASN179      0.2266
     83  O         23.8960  -24.3140  -12.8330 O.2   179  ASN179     -0.2867
     84  CB        25.8580  -25.2710  -10.9560 C.3   179  ASN179      0.1155
     85  CG        26.0780  -23.9480  -10.2420 C.2   179  ASN179      0.2627
     86  OD1       25.3590  -23.6060   -9.2920 O.2   179  ASN179     -0.2716
     87  ND2       27.0810  -23.2060  -10.6880 N.am  179  ASN179     -0.0877
     88  N         22.4590  -21.2910  -12.0870 N.3   181  GLY181     -0.1210
     89  CA        22.6900  -19.8820  -11.8210 C.3   181  GLY181      0.1956
     90  C         22.0290  -19.0700  -12.9200 C.2   181  GLY181      0.2613
     91  O         20.8910  -19.3800  -13.2900 O.2   181  GLY181     -0.2717
     92  N         22.7060  -18.0430  -13.4510 N.am  182  SER182     -0.1938
     93  CA        22.1900  -17.3500  -14.6360 C.3   182  SER182      0.2055
     94  C         21.9470  -18.3430  -15.7670 C.2   182  SER182      0.2643
     95  O         20.8750  -18.3540  -16.3940 O.2   182  SER182     -0.2714
     96  CB        23.1680  -16.2520  -15.0870 C.3   182  SER182      0.2130
     97  OG        23.5050  -15.3750  -14.0180 O.3   182  SER182     -0.2179
     98  N         22.9440  -19.1830  -16.0400 N.am  183  GLY183     -0.1954
     99  CA        22.8270  -20.3120  -16.9400 C.3   183  GLY183      0.1869
    100  C         23.0970  -21.5580  -16.1190 C.2   183  GLY183      0.2309
    101  O         23.2240  -21.4520  -14.8940 O.2   183  GLY183     -0.2863
    102  N         18.3820  -19.7410  -14.5360 N.3   205  GLY205     -0.1210
    103  CA        17.6630  -18.8180  -13.6790 C.3   205  GLY205      0.1956
    104  C         17.4960  -17.4460  -14.2940 C.2   205  GLY205      0.2612
    105  O         16.5510  -16.7280  -13.9660 O.2   205  GLY205     -0.2717
    106  N         18.4350  -17.0410  -15.1510 N.am  206  GLY206     -0.1956
    107  CA        18.3140  -15.7520  -15.8020 C.3   206  GLY206      0.1869
    108  C         17.2570  -15.7600  -16.8820 C.2   206  GLY206      0.2309
    109  O         16.6680  -14.7190  -17.1820 O.2   206  GLY206     -0.2863
    110  N         14.4280  -17.6370  -16.5700 N.3   208  PHE208     -0.1227
    111  CA        13.2290  -17.4580  -15.7660 C.3   208  PHE208      0.1736
    112  C         13.0260  -15.9930  -15.3960 C.2   208  PHE208      0.2595
    113  O         11.9500  -15.4280  -15.6170 O.2   208  PHE208     -0.2718
    114  CB        13.2870  -18.3150  -14.4990 C.3   208  PHE208      0.0547
    115  CG        12.2330  -17.9390  -13.5120 C.ar  208  PHE208     -0.0202
    116  CD1       10.8910  -18.1780  -13.8030 C.ar  208  PHE208     -0.0042
    117  CD2       12.5590  -17.2790  -12.3360 C.ar  208  PHE208     -0.0042
    118  CE1        9.8930  -17.7910  -12.9060 C.ar  208  PHE208     -0.0003
    119  CE2       11.5780  -16.9040  -11.4350 C.ar  208  PHE208     -0.0003
    120  CZ        10.2400  -17.1560  -11.7170 C.ar  208  PHE208     -0.0000
    121  N         14.0540  -15.3520  -14.8340 N.am  209  LEU209     -0.1980
    122  CA        13.8600  -14.0000  -14.3240 C.3   209  LEU209      0.1596
    123  C         13.6940  -12.9990  -15.4620 C.2   209  LEU209      0.2287
    124  O         12.8560  -12.0940  -15.3750 O.2   209  LEU209     -0.2864
    125  CB        15.0270  -13.6040  -13.4130 C.3   209  LEU209      0.0297
    126  CG        14.8190  -12.3280  -12.6070 C.3   209  LEU209      0.0022
    127  CD1       13.5110  -12.4220  -11.7950 C.3   209  LEU209      0.0001
    128  CD2       16.0240  -12.1390  -11.6850 C.3   209  LEU209      0.0001
    129  N         13.1960  -11.2200   -8.1740 N.3   221  PHE221     -0.1227
    130  CA        13.0740  -12.6740   -8.1300 C.3   221  PHE221      0.1736
    131  C         11.9890  -13.0930   -7.1500 C.2   221  PHE221      0.2595
    132  O         11.1590  -13.9550   -7.4520 O.2   221  PHE221     -0.2718
    133  CB        14.4260  -13.2780   -7.7300 C.3   221  PHE221      0.0547
    134  CG        14.4130  -14.7780   -7.5440 C.ar  221  PHE221     -0.0202
    135  CD1       14.4780  -15.6270   -8.6360 C.ar  221  PHE221     -0.0042
    136  CD2       14.3580  -15.3290   -6.2670 C.ar  221  PHE221     -0.0042
    137  CE1       14.4910  -17.0120   -8.4560 C.ar  221  PHE221     -0.0003
    138  CE2       14.3700  -16.7030   -6.0730 C.ar  221  PHE221     -0.0003
    139  CZ        14.4420  -17.5510   -7.1760 C.ar  221  PHE221     -0.0000
    140  N         11.9880  -12.4960   -5.9570 N.am  222  GLU222     -0.1979
    141  CA        10.9970  -12.8770   -4.9670 C.3   222  GLU222      0.1602
    142  C          9.5930  -12.5590   -5.4550 C.2   222  GLU222      0.2287
    143  O          8.6570  -13.3220   -5.1980 O.2   222  GLU222     -0.2864
    144  CB        11.2690  -12.1720   -3.6380 C.3   222  GLU222      0.0415
    145  CG        12.5110  -12.6810   -2.9030 C.3   222  GLU222      0.1163
    146  CD        13.8100  -12.0640   -3.4050 C.2   222  GLU222      0.3649
    147  OE1       13.7700  -11.2130   -4.3290 O.co2 222  GLU222     -0.2457
    148  OE2       14.8840  -12.4440   -2.8770 O.co2 222  GLU222     -0.2457
    149  N         22.6960  -23.7690   -6.7500 N.3   311  GLY311     -0.1210
    150  CA        22.5500  -22.4920   -7.4180 C.3   311  GLY311      0.1956
    151  C         21.3410  -21.7140   -6.9120 C.2   311  GLY311      0.2612
    152  O         20.3750  -22.2700   -6.3800 O.2   311  GLY311     -0.2717
    153  N         21.3760  -20.3990   -7.1130 N.am  312  ASN312     -0.1960
    154  CA        20.3810  -19.5800   -6.4340 C.3   312  ASN312      0.1819
    155  C         19.0540  -19.5060   -7.1680 C.2   312  ASN312      0.2621
    156  O         18.1080  -18.9270   -6.6280 O.2   312  ASN312     -0.2715
    157  CB        20.9510  -18.1900   -6.1730 C.3   312  ASN312      0.1195
    158  CG        21.8930  -18.1970   -4.9870 C.2   312  ASN312      0.2630
    159  OD1       21.5410  -18.6920   -3.9210 O.2   312  ASN312     -0.2716
    160  ND2       23.0990  -17.6940   -5.1760 N.am  312  ASN312     -0.0877
    161  N         18.9390  -20.1080   -8.3580 N.am  313  PHE313     -0.1974
    162  CA        17.6030  -20.2970   -8.9090 C.3   313  PHE313      0.1639
    163  C         16.7010  -21.0160   -7.9210 C.2   313  PHE313      0.2290
    164  O         15.4890  -20.7660   -7.8890 O.2   313  PHE313     -0.2864
    165  CB        17.6590  -21.0830  -10.2090 C.3   313  PHE313      0.0560
    166  CG        16.2920  -21.4240  -10.7580 C.ar  313  PHE313     -0.0200
    167  CD1       15.4550  -20.4200  -11.2140 C.ar  313  PHE313     -0.0042
    168  CD2       15.8530  -22.7440  -10.8040 C.ar  313  PHE313     -0.0042
    169  CE1       14.1860  -20.7240  -11.7200 C.ar  313  PHE313     -0.0003
    170  CE2       14.5970  -23.0640  -11.3200 C.ar  313  PHE313     -0.0003
    171  CZ        13.7590  -22.0480  -11.7670 C.ar  313  PHE313     -0.0000
    172  N         17.0330  -20.9090   -4.4730 N.3   315  ARG315     -0.1245
    173  CA        16.8550  -20.3320   -3.1450 C.3   315  ARG315      0.1563
    174  C         15.4190  -19.8520   -2.9850 C.2   315  ARG315      0.2260
    175  O         14.8170  -19.3130   -3.9210 O.2   315  ARG315     -0.2867
    176  CB        17.8560  -19.2040   -2.8600 C.3   315  ARG315      0.0307
    177  CG        17.7110  -17.9250   -3.6350 C.3   315  ARG315      0.0489
    178  CD        18.5470  -16.8010   -2.9740 C.3   315  ARG315      0.2205
    179  NE        17.9200  -16.3440   -1.7520 N.pl3 315  ARG315     -0.0865
    180  CZ        16.9360  -15.4460   -1.7020 C.cat 315  ARG315      0.5346
    181  NH1       16.4730  -14.8830   -2.8130 N.pl3 315  ARG315      0.1354
    182  NH2       16.4130  -15.1120   -0.5340 N.pl3 315  ARG315      0.1354
    183  N         23.5350  -21.3860   -2.9930 N.3   345  GLY345     -0.1225
    184  CA        24.4260  -20.9360   -4.0330 C.3   345  GLY345      0.1811
    185  C         25.7990  -20.5140   -3.5500 C.2   345  GLY345      0.2280
    186  O         26.5010  -19.8110   -4.2780 O.2   345  GLY345     -0.2866
@<TRIPOS>BOND
     1   109   108    2
     2    99   100    1
     3    99    98    1
     4   108   107    1
     5   110   111    1
     6    95    94    2
     7   100   101    2
     8    98    94   am
     9   107   106    1
    10    94    93    1
    11   111   112    1
    12   111   114    1
    13   113   112    2
    14   123   124    2
    15   123   122    1
    16   112   121   am
    17   106   104   am
    18    96    93    1
    19    96    97    1
    20   121   122    1
    21    93    92    1
    22    70    69    2
    23   102   103    1
    24   114   115    1
    25   122   125    1
    26   104   105    2
    27   104   103    1
    28    68    69    1
    29    68    67    1
    30    78    77   ar
    31    14    15    1
    32    14    13    1
    33   116   115   ar
    34   116   118   ar
    35    16    15    2
    36   115   117   ar
    37    92    90   am
    38   125   126    1
    39    91    90    2
    40    15    17   am
    41    79    77   ar
    42    77    76    1
    43    22    21    1
    44    90    89    1
    45   118   120   ar
    46    13    11   am
    47    83    82    2
    48   126   127    1
    49   126   128    1
    50   117   119   ar
    51    75    76    1
    52    75    72    1
    53    17    18    1
    54    88    89    1
    55    11    12    2
    56    11    10    1
    57   171   169   ar
    58   171   170   ar
    59   169   167   ar
    60    82    81    1
    61   120   119   ar
    62    21    18    1
    63    21    23    1
    64    71    72    1
    65    80    81    1
    66    18    19    1
    67   170   168   ar
    68   167   166   ar
    69    72    73    1
    70    84    81    1
    71    84    85    1
    72    10     9    1
    73   168   166   ar
    74   166   165    1
    75    73    74    2
    76    87    85   am
    77    85    86    2
    78   165   162    1
    79    19    20    2
    80    19    24   am
    81    24    25    1
    82   162   161    1
    83   162   163    1
    84   135   137   ar
    85   135   134   ar
    86   137   139   ar
    87     7     6   ar
    88   161   155   am
    89   129   130    1
    90   130   133    1
    91   130   131    1
    92    27    26    2
    93   163   164    2
    94    25    26    1
    95    25    28    1
    96   133   134    1
    97    40    39    1
    98   134   136   ar
    99    62    63    2
   100    62    61    1
   101   132   131    2
   102   150   151    1
   103   150   149    1
   104    64    61    1
   105    64    65    1
   106     6     8   ar
   107     6     5    1
   108    29    28    1
   109    29    31    1
   110    29    30    1
   111   139   138   ar
   112   155   156    2
   113   155   154    1
   114   131   140   am
   115   153   151   am
   116   153   154    1
   117    61    60    1
   118     3     4    2
   119     3     2    1
   120   151   152    2
   121   154   157    1
   122   136   138   ar
   123    39    38    1
   124     2     5    1
   125     2     1    1
   126   157   158    1
   127    65    66    1
   128   140   141    1
   129    60    66    1
   130   142   143    2
   131   142   141    1
   132   160   158   am
   133    38    37    1
   134   158   159    2
   135   141   144    1
   136   172   173    1
   137   147   146   ar
   138   186   185    2
   139    32    33    1
   140   184   185    1
   141   184   183    1
   142   175   174    2
   143    37    36    1
   144   144   145    1
   145   177   178    1
   146   177   176    1
   147   146   145    1
   148   146   148   ar
   149    36    33    1
   150   173   174    1
   151   173   176    1
   152    33    34    1
   153   178   179    1
   154    35    34    2
   155   181   180    1
   156   179   180    2
   157   180   182    1
   158    53    50    1
   159    53    54    1
   160    51    50    1
   161    51    52    2
   162    55    54    1
   163    55    56    1
   164    59    57    1
   165    50    49    1
   166    56    57    2
   167    57    58    1
   168    48    46    1
   169    46    45    1
   170    41    42    1
   171    45    42    1
   172    45    47    1
   173    44    43    2
   174    42    43    1
