@<TRIPOS>MOLECULE
tmp/5kprA01.pdb
 84 77 0 0 0
SMALL
GASTEIGER

@<TRIPOS>ATOM
      1  N         27.4420  -14.1080  -12.8530 N.3    13  GLY13      -0.1225
      2  CA        26.8090  -13.2320  -13.8270 C.3    13  GLY13       0.1811
      3  C         25.7280  -12.3510  -13.2400 C.2    13  GLY13       0.2280
      4  O         25.4620  -11.2750  -13.7830 O.2    13  GLY13      -0.2866
      5  N         32.9550  -15.9420  -13.1310 N.3   106  GLY106     -0.1225
      6  CA        33.4210  -15.1740  -14.2810 C.3   106  GLY106      0.1811
      7  C         33.9080  -13.7890  -13.9090 C.2   106  GLY106      0.2280
      8  O         34.8230  -13.2570  -14.5370 O.2   106  GLY106     -0.2866
      9  N         35.8230  -21.5520  -11.5810 N.3   128  GLU128     -0.1231
     10  CA        34.4510  -21.4770  -11.0820 C.3   128  GLU128      0.1699
     11  C         33.9020  -22.8500  -10.7080 C.2   128  GLU128      0.2592
     12  O         33.2650  -23.0160   -9.6590 O.2   128  GLU128     -0.2718
     13  CB        33.5660  -20.8100  -12.1400 C.3   128  GLU128      0.0402
     14  CG        32.0780  -20.9030  -11.8650 C.3   128  GLU128      0.1161
     15  CD        31.2500  -20.3590  -13.0190 C.2   128  GLU128      0.3649
     16  OE1       31.8010  -19.5930  -13.8410 O.co2 128  GLU128     -0.2457
     17  OE2       30.0510  -20.7060  -13.1060 O.co2 128  GLU128     -0.2457
     18  N         34.1260  -23.8460  -11.5590 N.am  129  LEU129     -0.1980
     19  CA        33.5460  -25.1580  -11.3110 C.3   129  LEU129      0.1596
     20  C         34.3920  -25.9750  -10.3350 C.2   129  LEU129      0.2287
     21  O         33.8400  -26.7500   -9.5460 O.2   129  LEU129     -0.2864
     22  CB        33.3340  -25.8800  -12.6530 C.3   129  LEU129      0.0297
     23  CG        32.3940  -25.0850  -13.5860 C.3   129  LEU129      0.0022
     24  CD1       32.2350  -25.7290  -14.9780 C.3   129  LEU129      0.0001
     25  CD2       31.0320  -24.8940  -12.9300 C.3   129  LEU129      0.0001
     26  N         24.2370  -27.0180  -11.5620 N.3   179  ASN179     -0.1240
     27  CA        24.3970  -25.7000  -10.9510 C.3   179  ASN179      0.1653
     28  C         23.5410  -24.7080  -11.7190 C.2   179  ASN179      0.2266
     29  O         23.8960  -24.3140  -12.8330 O.2   179  ASN179     -0.2867
     30  CB        25.8580  -25.2710  -10.9560 C.3   179  ASN179      0.1155
     31  CG        26.0780  -23.9480  -10.2420 C.2   179  ASN179      0.2627
     32  OD1       25.3590  -23.6060   -9.2920 O.2   179  ASN179     -0.2716
     33  ND2       27.0810  -23.2060  -10.6880 N.am  179  ASN179     -0.0877
     34  N         22.7060  -18.0430  -13.4510 N.3   182  SER182     -0.1202
     35  CA        22.1900  -17.3500  -14.6360 C.3   182  SER182      0.2020
     36  C         21.9470  -18.3430  -15.7670 C.2   182  SER182      0.2619
     37  O         20.8750  -18.3540  -16.3940 O.2   182  SER182     -0.2717
     38  CB        23.1680  -16.2520  -15.0870 C.3   182  SER182      0.2103
     39  OG        23.5050  -15.3750  -14.0180 O.3   182  SER182     -0.2182
     40  N         22.9440  -19.1830  -16.0400 N.am  183  GLY183     -0.1942
     41  CA        22.8270  -20.3120  -16.9400 C.3   183  GLY183      0.2014
     42  C         23.0970  -21.5580  -16.1190 C.2   183  GLY183      0.2639
     43  O         23.2240  -21.4520  -14.8940 O.2   183  GLY183     -0.2714
     44  N         23.2010  -22.7240  -16.7510 N.am  184  VAL184     -0.1963
     45  CA        23.2840  -24.0000  -16.0400 C.3   184  VAL184      0.1727
     46  C         24.5320  -24.7470  -16.4860 C.2   184  VAL184      0.2616
     47  O         24.7220  -24.9700  -17.6860 O.2   184  VAL184     -0.2715
     48  CB        22.0350  -24.8620  -16.3040 C.3   184  VAL184      0.0290
     49  CG1       22.0780  -26.1710  -15.4610 C.3   184  VAL184      0.0023
     50  CG2       20.7540  -24.0610  -16.0300 C.3   184  VAL184      0.0023
     51  N         25.3730  -25.1490  -15.5290 N.am  185  SER185     -0.1950
     52  CA        26.4700  -26.0730  -15.7940 C.3   185  SER185      0.1924
     53  C         26.1490  -27.4170  -15.1550 C.2   185  SER185      0.2314
     54  O         25.6410  -27.4640  -14.0340 O.2   185  SER185     -0.2863
     55  CB        27.8090  -25.5730  -15.2280 C.3   185  SER185      0.2116
     56  OG        28.4030  -24.5940  -16.0730 O.3   185  SER185     -0.2180
     57  N         32.7820  -31.3170  -16.9550 N.3   197  ARG197     -0.1245
     58  CA        31.5590  -30.6050  -17.3090 C.3   197  ARG197      0.1563
     59  C         30.8780  -31.3650  -18.4400 C.2   197  ARG197      0.2260
     60  O         31.3520  -31.3460  -19.5820 O.2   197  ARG197     -0.2867
     61  CB        31.8720  -29.1680  -17.7230 C.3   197  ARG197      0.0307
     62  CG        30.6230  -28.3450  -17.9760 C.3   197  ARG197      0.0489
     63  CD        30.9820  -26.9220  -18.3920 C.3   197  ARG197      0.2205
     64  NE        29.8050  -26.0640  -18.4910 N.pl3 197  ARG197     -0.0865
     65  CZ        29.0730  -25.9190  -19.5940 C.cat 197  ARG197      0.5346
     66  NH1       29.3760  -26.5960  -20.6960 N.pl3 197  ARG197      0.1354
     67  NH2       28.0260  -25.1000  -19.5890 N.pl3 197  ARG197      0.1354
     68  N         25.8070  -28.0900  -20.5390 N.3   200  GLY200     -0.1210
     69  CA        25.0880  -27.0900  -19.7750 C.3   200  GLY200      0.1956
     70  C         23.8690  -26.7090  -20.5800 C.2   200  GLY200      0.2613
     71  O         23.5950  -27.2910  -21.6330 O.2   200  GLY200     -0.2717
     72  N         23.1260  -25.7370  -20.0670 N.am  201  THR201     -0.1938
     73  CA        22.0510  -25.1420  -20.8510 C.3   201  THR201      0.2028
     74  C         22.0010  -23.6590  -20.5370 C.2   201  THR201      0.2642
     75  O         22.1760  -23.2600  -19.3830 O.2   201  THR201     -0.2714
     76  CB        20.6810  -25.8110  -20.5890 C.3   201  THR201      0.1808
     77  OG1       19.6370  -25.0300  -21.1820 O.3   201  THR201     -0.2208
     78  CG2       20.3810  -25.9620  -19.1260 C.3   201  THR201      0.0379
     79  N         21.7880  -22.8410  -21.5670 N.am  202  SER202     -0.1949
     80  CA        21.6070  -21.4140  -21.3170 C.3   202  SER202      0.1924
     81  C         20.2050  -21.0680  -20.8320 C.2   202  SER202      0.2314
     82  O         19.9430  -19.8940  -20.5510 O.2   202  SER202     -0.2863
     83  CB        21.9210  -20.6070  -22.5780 C.3   202  SER202      0.2116
     84  OG        21.0310  -20.9730  -23.6270 O.3   202  SER202     -0.2180
@<TRIPOS>BOND
     1    84    83    1
     2    83    80    1
     3    71    70    2
     4    79    80    1
     5    79    74   am
     6    80    81    1
     7    77    76    1
     8    73    76    1
     9    73    74    1
    10    73    72    1
    11    81    82    2
    12    66    65    1
    13    76    78    1
    14    70    72   am
    15    70    69    1
    16    68    69    1
    17    74    75    2
    18    65    67    1
    19    65    64    2
    20    60    59    2
    21    64    63    1
    22    59    58    1
    23    63    62    1
    24    62    61    1
    25    61    58    1
    26    47    46    2
    27    58    57    1
    28    41    42    1
    29    41    40    1
    30    44    42   am
    31    44    45    1
    32    46    45    1
    33    46    51   am
    34    37    36    2
    35    48    45    1
    36    48    50    1
    37    48    49    1
    38    42    43    2
    39    56    55    1
    40    40    36   am
    41    52    51    1
    42    52    55    1
    43    52    53    1
    44    36    35    1
    45    53    54    2
    46    38    35    1
    47    38    39    1
    48    24    23    1
    49    35    34    1
    50     8     7    2
    51     6     7    1
    52     6     5    1
    53    16    15   ar
    54     2     3    1
    55     2     1    1
    56     4     3    2
    57    23    25    1
    58    23    22    1
    59    17    15   ar
    60    15    14    1
    61    29    28    2
    62    22    19    1
    63    13    14    1
    64    13    10    1
    65    28    27    1
    66     9    10    1
    67    26    27    1
    68    18    19    1
    69    18    11   am
    70    19    20    1
    71    10    11    1
    72    30    27    1
    73    30    31    1
    74    11    12    2
    75    33    31   am
    76    20    21    2
    77    31    32    2
