@<TRIPOS>MOLECULE
tmp/5kpzA00.pdb
 101 93 0 0 0
SMALL
GASTEIGER

@<TRIPOS>ATOM
      1  N         26.9020   18.4530    1.7230 N.3     9  GLY9       -0.1210
      2  CA        27.0020   17.4970    0.6460 C.3     9  GLY9        0.1956
      3  C         25.8710   17.6060   -0.3600 C.2     9  GLY9        0.2612
      4  O         25.0000   18.4760   -0.2910 O.2     9  GLY9       -0.2717
      5  N         25.8960   16.6740   -1.3150 N.am   10  GLY10      -0.1956
      6  CA        24.8080   16.5730   -2.2750 C.3    10  GLY10       0.1869
      7  C         23.5150   16.1120   -1.6470 C.2    10  GLY10       0.2309
      8  O         22.4340   16.4580   -2.1260 O.2    10  GLY10      -0.2863
      9  N         26.3100   17.9900    7.1170 N.3    14  LYS14      -0.1245
     10  CA        26.8960   17.5190    8.3610 C.3    14  LYS14       0.1561
     11  C         27.4530   18.7140    9.1190 C.2    14  LYS14       0.2260
     12  O         28.1070   19.5810    8.5310 O.2    14  LYS14      -0.2867
     13  CB        27.9830   16.4800    8.1100 C.3    14  LYS14       0.0271
     14  CG        27.4770   15.0860    7.7380 C.3    14  LYS14       0.0035
     15  CD        26.9970   14.9460    6.2920 C.3    14  LYS14       0.0206
     16  CE        27.9690   15.5570    5.2840 C.3    14  LYS14       0.1093
     17  NZ        27.5650   15.0790    3.9250 N.3    14  LYS14      -0.1314
     18  N         30.5000   20.5470   -1.8010 N.3   102  GLY102     -0.1225
     19  CA        29.9850   21.2650   -2.9560 C.3   102  GLY102      0.1811
     20  C         29.0330   22.3870   -2.5960 C.2   102  GLY102      0.2280
     21  O         28.9840   23.4050   -3.2870 O.2   102  GLY102     -0.2866
     22  N         37.0650   20.2970    0.0590 N.3   124  GLU124     -0.1231
     23  CA        36.4300   19.0920    0.5850 C.3   124  GLU124      0.1699
     24  C         37.4650   18.0320    0.9610 C.2   124  GLU124      0.2592
     25  O         37.4050   17.4500    2.0480 O.2   124  GLU124     -0.2718
     26  CB        35.4260   18.5640   -0.4530 C.3   124  GLU124      0.0402
     27  CG        34.4810   17.4310   -0.0140 C.3   124  GLU124      0.1161
     28  CD        33.4760   17.0260   -1.1240 C.2   124  GLU124      0.3649
     29  OE1       33.0290   17.9190   -1.8820 O.co2 124  GLU124     -0.2457
     30  OE2       33.1350   15.8180   -1.2420 O.co2 124  GLU124     -0.2457
     31  N         38.4310   17.7700    0.0760 N.am  125  LEU125     -0.1980
     32  CA        39.4130   16.7190    0.3410 C.3   125  LEU125      0.1596
     33  C         40.3370   17.1090    1.4860 C.2   125  LEU125      0.2287
     34  O         40.6780   16.2810    2.3400 O.2   125  LEU125     -0.2864
     35  CB        40.2280   16.4270   -0.9230 C.3   125  LEU125      0.0297
     36  CG        39.4420   16.2680   -2.2270 C.3   125  LEU125      0.0022
     37  CD1       40.4000   15.8870   -3.3560 C.3   125  LEU125      0.0001
     38  CD2       38.3340   15.2350   -2.0870 C.3   125  LEU125      0.0001
     39  N         35.5400    7.5680   -0.0150 N.3   175  ASN175     -0.1240
     40  CA        34.4420    8.3680    0.5160 C.3   175  ASN175      0.1653
     41  C         33.1610    8.0510   -0.2480 C.2   175  ASN175      0.2266
     42  O         32.9800    8.5230   -1.3750 O.2   175  ASN175     -0.2867
     43  CB        34.7900    9.8490    0.3920 C.3   175  ASN175      0.1155
     44  CG        33.7600   10.7570    1.0320 C.2   175  ASN175      0.2627
     45  OD1       32.8450   10.3040    1.7170 O.2   175  ASN175     -0.2716
     46  ND2       33.9290   12.0550    0.8350 N.am  175  ASN175     -0.0877
     47  N         29.6860    8.8720   -0.4910 N.3   177  GLY177     -0.1210
     48  CA        28.5300    9.7360   -0.3030 C.3   177  GLY177      0.1956
     49  C         27.4840    9.5440   -1.3950 C.2   177  GLY177      0.2613
     50  O         27.2030    8.4070   -1.7680 O.2   177  GLY177     -0.2717
     51  N         26.8960   10.6360   -1.9050 N.am  178  SER178     -0.1938
     52  CA        26.0820   10.5590   -3.1200 C.3   178  SER178      0.2055
     53  C         26.8290    9.8150   -4.2190 C.2   178  SER178      0.2644
     54  O         26.3130    8.8550   -4.8030 O.2   178  SER178     -0.2714
     55  CB        25.7030   11.9670   -3.6010 C.3   178  SER178      0.2130
     56  OG        25.1700   12.7490   -2.5350 O.3   178  SER178     -0.2179
     57  N         28.0450   10.2700   -4.5230 N.am  179  GLY179     -0.1939
     58  CA        28.9810    9.5660   -5.3530 C.3   179  GLY179      0.2014
     59  C         30.1320    9.0240   -4.5300 C.2   179  GLY179      0.2639
     60  O         30.0370    8.8760   -3.3050 O.2   179  GLY179     -0.2714
     61  N         31.2380    8.7290   -5.2050 N.am  180  VAL180     -0.1963
     62  CA        32.3910    8.1120   -4.5600 C.3   180  VAL180      0.1727
     63  C         33.6430    8.8420   -5.0050 C.2   180  VAL180      0.2616
     64  O         33.8850    8.9730   -6.2110 O.2   180  VAL180     -0.2715
     65  CB        32.5030    6.6110   -4.8910 C.3   180  VAL180      0.0290
     66  CG1       33.6730    6.0030   -4.1400 C.3   180  VAL180      0.0023
     67  CG2       31.2010    5.8740   -4.5830 C.3   180  VAL180      0.0023
     68  N         34.4230    9.3310   -4.0420 N.am  181  SER181     -0.1950
     69  CA        35.7650    9.8410   -4.3040 C.3   181  SER181      0.1924
     70  C         36.7810    8.9570   -3.5970 C.2   181  SER181      0.2314
     71  O         36.5590    8.5320   -2.4610 O.2   181  SER181     -0.2863
     72  CB        35.9480   11.2900   -3.8250 C.3   181  SER181      0.2116
     73  OG        34.8630   12.1000   -4.2230 O.3   181  SER181     -0.2180
     74  N         43.3270   12.9440   -4.9990 N.3   193  ARG193     -0.1245
     75  CA        42.2000   12.1810   -5.5250 C.3   193  ARG193      0.1563
     76  C         42.6900   11.3390   -6.7010 C.2   193  ARG193      0.2260
     77  O         43.2030   11.8880   -7.6730 O.2   193  ARG193     -0.2867
     78  CB        41.0800   13.1350   -5.9550 C.3   193  ARG193      0.0307
     79  CG        39.7680   12.4490   -6.3480 C.3   193  ARG193      0.0489
     80  CD        38.7000   13.4390   -6.7610 C.3   193  ARG193      0.2205
     81  NE        37.4140   12.7680   -6.9360 N.pl3 193  ARG193     -0.0865
     82  CZ        36.9730   12.2750   -8.0910 C.cat 193  ARG193      0.5346
     83  NH1       37.7100   12.3770   -9.1980 N.pl3 193  ARG193      0.1354
     84  NH2       35.7890   11.6750   -8.1360 N.pl3 193  ARG193      0.1354
     85  N         37.2890    8.1800   -9.0010 N.3   196  GLY196     -0.1210
     86  CA        36.0480    8.1140   -8.2660 C.3   196  GLY196      0.1956
     87  C         35.0870    7.2840   -9.0750 C.2   196  GLY196      0.2613
     88  O         35.4500    6.6800  -10.0840 O.2   196  GLY196     -0.2717
     89  N         33.8510    7.2540   -8.6170 N.am  197  THR197     -0.1938
     90  CA        32.8040    6.6270   -9.3960 C.3   197  THR197      0.2028
     91  C         31.4950    7.3110   -9.0420 C.2   197  THR197      0.2642
     92  O         31.2780    7.6870   -7.8880 O.2   197  THR197     -0.2714
     93  CB        32.7350    5.1030   -9.1650 C.3   197  THR197      0.1808
     94  OG1       31.4870    4.5990   -9.6380 O.3   197  THR197     -0.2208
     95  CG2       32.8800    4.7270   -7.7110 C.3   197  THR197      0.0379
     96  N         30.6450    7.5020  -10.0490 N.am  198  SER198     -0.1949
     97  CA        29.3090    8.0290   -9.8080 C.3   198  SER198      0.1924
     98  C         28.3520    6.9680   -9.2910 C.2   198  SER198      0.2314
     99  O         27.1790    7.2650   -9.0870 O.2   198  SER198     -0.2863
    100  CB        28.7480    8.6500  -11.0940 C.3   198  SER198      0.2116
    101  OG        28.3770    7.6380  -12.0320 O.3   198  SER198     -0.2180
@<TRIPOS>BOND
     1   101   100    1
     2   100    97    1
     3    88    87    2
     4    96    97    1
     5    96    91   am
     6    97    98    1
     7    94    93    1
     8    90    93    1
     9    90    91    1
    10    90    89    1
    11    98    99    2
    12    83    82    1
    13    93    95    1
    14    87    89   am
    15    87    86    1
    16    91    92    2
    17    85    86    1
    18    84    82    1
    19    82    81    2
    20    77    76    2
    21    81    80    1
    22    80    79    1
    23    76    75    1
    24    79    78    1
    25    64    63    2
    26    78    75    1
    27    75    74    1
    28    58    59    1
    29    58    57    1
    30    61    62    1
    31    61    59   am
    32    63    62    1
    33    63    68   am
    34    65    67    1
    35    65    62    1
    36    65    66    1
    37    54    53    2
    38    59    60    2
    39    57    53   am
    40    69    68    1
    41    69    72    1
    42    69    70    1
    43    73    72    1
    44    53    52    1
    45    55    52    1
    46    55    56    1
    47    70    71    2
    48    37    36    1
    49    21    20    2
    50    52    51    1
    51    19    20    1
    52    19    18    1
    53     6     7    1
    54     6     5    1
    55    36    38    1
    56    36    35    1
    57     8     7    2
    58    51    49   am
    59    29    28   ar
    60    50    49    2
    61    49    48    1
    62    42    41    2
    63     5     3   am
    64    30    28   ar
    65    28    27    1
    66    35    32    1
    67    47    48    1
    68    26    27    1
    69    26    23    1
    70     3     4    2
    71     3     2    1
    72    41    40    1
    73    39    40    1
    74    22    23    1
    75    31    32    1
    76    31    24   am
    77    32    33    1
    78    43    40    1
    79    43    44    1
    80    23    24    1
    81     2     1    1
    82    46    44   am
    83    24    25    2
    84    44    45    2
    85    33    34    2
    86    17    16    1
    87    16    15    1
    88    15    14    1
    89     9    10    1
    90    14    13    1
    91    13    10    1
    92    10    11    1
    93    12    11    2
