@<TRIPOS>MOLECULE
tmp/5kq4C00.pdb
 163 161 0 0 0
SMALL
GASTEIGER

@<TRIPOS>ATOM
      1  N         13.7030   -8.8710   14.6130 N.3    44  TRP44      -0.1241
      2  CA        13.6260   -9.0880   13.1720 C.3    44  TRP44       0.1605
      3  C         14.1070   -7.8620   12.4050 C.2    44  TRP44       0.2264
      4  O         14.8010   -7.9850   11.3900 O.2    44  TRP44      -0.2867
      5  CB        12.1920   -9.4460   12.7810 C.3    44  TRP44       0.0550
      6  CG        11.8960   -9.1730   11.3490 C.ar   44  TRP44       0.0003
      7  CD1       12.2340   -9.9520   10.2820 C.ar   44  TRP44       0.0946
      8  CD2       11.2020   -8.0380   10.8160 C.ar   44  TRP44       0.0152
      9  NE1       11.7970   -9.3720    9.1170 N.ar   44  TRP44      -0.2442
     10  CE2       11.1570   -8.1970    9.4170 C.ar   44  TRP44       0.0810
     11  CE3       10.6170   -6.9010   11.3850 C.ar   44  TRP44       0.0012
     12  CZ2       10.5450   -7.2620    8.5780 C.ar   44  TRP44       0.0191
     13  CZ3       10.0100   -5.9740   10.5510 C.ar   44  TRP44       0.0001
     14  CH2        9.9810   -6.1610    9.1630 C.ar   44  TRP44       0.0015
     15  N         17.3070   -5.8780    8.5030 N.3    49  PHE49      -0.1241
     16  CA        17.5570   -4.5840    7.8810 C.3    49  PHE49       0.1605
     17  C         18.8260   -3.9140    8.3800 C.2    49  PHE49       0.2264
     18  O         19.6180   -3.4260    7.5670 O.2    49  PHE49      -0.2867
     19  CB        16.3520   -3.6630    8.1130 C.3    49  PHE49       0.0534
     20  CG        15.1070   -4.1100    7.4110 C.ar   49  PHE49      -0.0203
     21  CD1       15.1440   -4.4860    6.0790 C.ar   49  PHE49      -0.0042
     22  CD2       13.9000   -4.1790    8.0910 C.ar   49  PHE49      -0.0042
     23  CE1       13.9910   -4.9080    5.4310 C.ar   49  PHE49      -0.0003
     24  CE2       12.7480   -4.6030    7.4510 C.ar   49  PHE49      -0.0003
     25  CZ        12.7930   -4.9680    6.1230 C.ar   49  PHE49      -0.0000
     26  N         11.8200  -15.9730   -4.1470 N.3   115  VAL115     -0.1245
     27  CA        10.4850  -15.6230   -4.6170 C.3   115  VAL115      0.1561
     28  C         10.1680  -14.1960   -4.1880 C.2   115  VAL115      0.2260
     29  O         10.5730  -13.7580   -3.1060 O.2   115  VAL115     -0.2867
     30  CB         9.4170  -16.6060   -4.0910 C.3   115  VAL115      0.0252
     31  CG1        9.6060  -17.9780   -4.7190 C.3   115  VAL115      0.0019
     32  CG2        9.4710  -16.7030   -2.5750 C.3   115  VAL115      0.0019
     33  N          6.9840  -11.1350   -4.0670 N.3   117  GLY117     -0.1210
     34  CA         5.5800  -10.8030   -4.1630 C.3   117  GLY117      0.1956
     35  C          5.3210   -9.7130   -5.1830 C.2   117  GLY117      0.2612
     36  O          6.2230   -9.2000   -5.8450 O.2   117  GLY117     -0.2717
     37  N          4.0470   -9.3480   -5.3040 N.am  118  TRP118     -0.1962
     38  CA         3.6560   -8.3890   -6.3290 C.3   118  TRP118      0.1771
     39  C          3.9980   -6.9580   -5.9340 C.2   118  TRP118      0.2619
     40  O          4.3610   -6.1440   -6.7920 O.2   118  TRP118     -0.2715
     41  CB         2.1640   -8.5130   -6.6140 C.3   118  TRP118      0.0590
     42  CG         1.8090   -9.8070   -7.2490 C.ar  118  TRP118      0.0006
     43  CD1        1.2220  -10.8810   -6.6510 C.ar  118  TRP118      0.0946
     44  CD2        2.0300  -10.1760   -8.6140 C.ar  118  TRP118      0.0152
     45  NE1        1.0540  -11.8940   -7.5610 N.ar  118  TRP118     -0.2442
     46  CE2        1.5430  -11.4870   -8.7750 C.ar  118  TRP118      0.0810
     47  CE3        2.5890   -9.5230   -9.7170 C.ar  118  TRP118      0.0012
     48  CZ2        1.5970  -12.1580   -9.9950 C.ar  118  TRP118      0.0191
     49  CZ3        2.6430  -10.1910  -10.9260 C.ar  118  TRP118      0.0001
     50  CH2        2.1500  -11.4940  -11.0560 C.ar  118  TRP118      0.0015
     51  N          3.8880   -6.6340   -4.6500 N.am  119  LYS119     -0.1977
     52  CA         4.0480   -5.2580   -4.2100 C.3   119  LYS119      0.1596
     53  C          5.4960   -4.8040   -4.3590 C.2   119  LYS119      0.2287
     54  O          6.4390   -5.5950   -4.2520 O.2   119  LYS119     -0.2864
     55  CB         3.6070   -5.1140   -2.7540 C.3   119  LYS119      0.0298
     56  CG         3.1430   -3.7160   -2.3770 C.3   119  LYS119      0.0038
     57  CD         1.6960   -3.7430   -1.9110 C.3   119  LYS119      0.0206
     58  CE         1.0280   -2.3810   -2.0330 C.3   119  LYS119      0.1093
     59  NZ        -0.4200   -2.4720   -1.7020 N.3   119  LYS119     -0.1314
     60  N          6.8820   -3.0950   -2.1790 N.3   121  SER121     -0.1202
     61  CA         7.4490   -3.2920   -0.8500 C.3   121  SER121      0.2020
     62  C          7.9030   -4.7310   -0.6380 C.2   121  SER121      0.2619
     63  O          8.8270   -4.9790    0.1470 O.2   121  SER121     -0.2717
     64  CB         6.4330   -2.9100    0.2240 C.3   121  SER121      0.2103
     65  OG         5.4360   -3.9090    0.3570 O.3   121  SER121     -0.2182
     66  N          7.2650   -5.6870   -1.3130 N.am  122  SER122     -0.1937
     67  CA         7.6410   -7.0870   -1.1590 C.3   122  SER122      0.2055
     68  C          9.0890   -7.3020   -1.5840 C.2   122  SER122      0.2644
     69  O          9.5170   -6.8280   -2.6390 O.2   122  SER122     -0.2714
     70  CB         6.7080   -7.9790   -1.9800 C.3   122  SER122      0.2130
     71  OG         5.5000   -8.2440   -1.2860 O.3   122  SER122     -0.2179
     72  N          9.8420   -8.0180   -0.7540 N.am  123  GLY123     -0.1939
     73  CA        11.2190   -8.3380   -1.0620 C.3   123  GLY123      0.2014
     74  C         11.4080   -9.8030   -1.3920 C.2   123  GLY123      0.2639
     75  O         10.5230  -10.6260   -1.1410 O.2   123  GLY123     -0.2714
     76  N         12.5610  -10.1340   -1.9680 N.am  124  TRP124     -0.1959
     77  CA        12.8720  -11.5200   -2.2770 C.3   124  TRP124      0.1771
     78  C         13.0270  -12.3190   -0.9900 C.2   124  TRP124      0.2620
     79  O         13.5270  -11.8120    0.0190 O.2   124  TRP124     -0.2715
     80  CB        14.1500  -11.6140   -3.1110 C.3   124  TRP124      0.0590
     81  CG        14.0440  -11.0110   -4.4800 C.ar  124  TRP124      0.0006
     82  CD1       14.3340   -9.7260   -4.8340 C.ar  124  TRP124      0.0946
     83  CD2       13.6220  -11.6710   -5.6790 C.ar  124  TRP124      0.0152
     84  NE1       14.1200   -9.5450   -6.1790 N.ar  124  TRP124     -0.2442
     85  CE2       13.6820  -10.7250   -6.7200 C.ar  124  TRP124      0.0810
     86  CE3       13.1970  -12.9710   -5.9750 C.ar  124  TRP124      0.0012
     87  CZ2       13.3330  -11.0350   -8.0320 C.ar  124  TRP124      0.0191
     88  CZ3       12.8540  -13.2750   -7.2800 C.ar  124  TRP124      0.0001
     89  CH2       12.9210  -12.3090   -8.2910 C.ar  124  TRP124      0.0015
     90  N         12.5860  -13.5760   -1.0280 N.am  125  GLY125     -0.1954
     91  CA        12.7050  -14.4490    0.1210 C.3   125  GLY125      0.1869
     92  C         12.7320  -15.8970   -0.3170 C.2   125  GLY125      0.2309
     93  O         12.4830  -16.2240   -1.4790 O.2   125  GLY125     -0.2863
     94  N          8.5430  -20.4380    1.4910 N.3   128  LYS128     -0.1245
     95  CA         8.2530  -20.9100    2.8360 C.3   128  LYS128      0.1561
     96  C          6.8250  -20.5270    3.1880 C.2   128  LYS128      0.2260
     97  O          6.2310  -19.6450    2.5610 O.2   128  LYS128     -0.2867
     98  CB         9.2240  -20.3170    3.8550 C.3   128  LYS128      0.0271
     99  CG         9.1390  -18.8060    3.9460 C.3   128  LYS128      0.0035
    100  CD        10.1290  -18.2700    4.9580 C.3   128  LYS128      0.0206
    101  CE         9.8730  -16.8070    5.2780 C.3   128  LYS128      0.1093
    102  NZ        10.0220  -15.9340    4.0860 N.3   128  LYS128     -0.1314
    103  N          3.3940  -21.2370    6.4160 N.3   130  LYS130     -0.1245
    104  CA         2.9400  -21.7530    7.6960 C.3   130  LYS130      0.1561
    105  C          2.3560  -23.1530    7.5530 C.2   130  LYS130      0.2260
    106  O          1.7270  -23.4890    6.5450 O.2   130  LYS130     -0.2867
    107  CB         1.9050  -20.8110    8.3090 C.3   130  LYS130      0.0271
    108  CG         2.4890  -19.4810    8.7810 C.3   130  LYS130      0.0035
    109  CD         1.7630  -18.2920    8.1620 C.3   130  LYS130      0.0206
    110  CE         2.5090  -17.7380    6.9580 C.3   130  LYS130      0.1093
    111  NZ         3.7470  -17.0070    7.3530 N.3   130  LYS130     -0.1314
    112  N         10.8560  -13.0190   14.1270 N.3   168  ARG168     -0.1245
    113  CA         9.5710  -12.3210   13.9920 C.3   168  ARG168      0.1563
    114  C          8.4100  -13.1660   14.5120 C.2   168  ARG168      0.2260
    115  O          7.3420  -13.2410   13.9000 O.2   168  ARG168     -0.2867
    116  CB         9.3270  -11.8910   12.5440 C.3   168  ARG168      0.0307
    117  CG         8.4260  -10.6720   12.4110 C.3   168  ARG168      0.0489
    118  CD         8.2670  -10.2140   10.9720 C.3   168  ARG168      0.2205
    119  NE         7.6500   -8.8920   10.9190 N.pl3 168  ARG168     -0.0865
    120  CZ         7.1890   -8.3170    9.8120 C.cat 168  ARG168      0.5346
    121  NH1        7.2620   -8.9460    8.6470 N.pl3 168  ARG168      0.1354
    122  NH2        6.6450   -7.1100    9.8730 N.pl3 168  ARG168      0.1354
    123  N          8.1940  -16.3690   14.6110 N.3   170  GLN170     -0.1245
    124  CA         7.9980  -17.5700   13.8140 C.3   170  GLN170      0.1566
    125  C          9.1350  -18.5470   14.0680 C.2   170  GLN170      0.2260
    126  O         10.2950  -18.1410   14.1860 O.2   170  GLN170     -0.2867
    127  CB         7.9340  -17.2380   12.3210 C.3   170  GLN170      0.0367
    128  CG         6.7490  -16.3870   11.9330 C.3   170  GLN170      0.0905
    129  CD         6.8000  -15.9380   10.4860 C.2   170  GLN170      0.2608
    130  OE1        7.5580  -16.4780    9.6760 O.2   170  GLN170     -0.2717
    131  NE2        5.9840  -14.9430   10.1520 N.am  170  GLN170     -0.0878
    132  N         -0.1690  -14.2500   -6.2240 N.3   191  GLU191     -0.1245
    133  CA         0.5170  -14.0780   -4.9480 C.3   191  GLU191      0.1567
    134  C          2.0290  -13.9460   -5.1350 C.2   191  GLU191      0.2260
    135  O          2.6590  -13.0380   -4.5850 O.2   191  GLU191     -0.2867
    136  CB         0.2050  -15.2440   -4.0080 C.3   191  GLU191      0.0388
    137  CG         1.1180  -15.2950   -2.7940 C.3   191  GLU191      0.1160
    138  CD         0.3900  -15.6920   -1.5290 C.2   191  GLU191      0.3649
    139  OE1        0.9640  -16.4490   -0.7160 O.co2 191  GLU191     -0.2457
    140  OE2       -0.7590  -15.2380   -1.3500 O.co2 191  GLU191     -0.2457
    141  N         15.2730   -7.6460    0.5520 N.3   214  PHE214     -0.1227
    142  CA        15.1580   -9.0550    0.8960 C.3   214  PHE214      0.1736
    143  C         14.4180   -9.2050    2.2150 C.2   214  PHE214      0.2595
    144  O         14.5960   -8.4000    3.1350 O.2   214  PHE214     -0.2718
    145  CB        16.5300   -9.7150    0.9970 C.3   214  PHE214      0.0547
    146  CG        17.3260   -9.6460   -0.2670 C.ar  214  PHE214     -0.0202
    147  CD1       17.2680  -10.6710   -1.1970 C.ar  214  PHE214     -0.0042
    148  CD2       18.1290   -8.5530   -0.5310 C.ar  214  PHE214     -0.0042
    149  CE1       18.0040  -10.6090   -2.3660 C.ar  214  PHE214     -0.0003
    150  CE2       18.8640   -8.4840   -1.6960 C.ar  214  PHE214     -0.0003
    151  CZ        18.8030   -9.5120   -2.6140 C.ar  214  PHE214     -0.0000
    152  N         13.5950  -10.2460    2.3070 N.am  215  TYR215     -0.1976
    153  CA        12.8060  -10.5260    3.5000 C.3   215  TYR215      0.1639
    154  C         13.2320  -11.8680    4.0720 C.2   215  TYR215      0.2290
    155  O         13.0880  -12.9010    3.4080 O.2   215  TYR215     -0.2864
    156  CB        11.3110  -10.5310    3.1830 C.3   215  TYR215      0.0560
    157  CG        10.4130  -10.8310    4.3690 C.ar  215  TYR215     -0.0198
    158  CD1       10.2170   -9.8960    5.3780 C.ar  215  TYR215     -0.0009
    159  CD2        9.7380  -12.0440    4.4640 C.ar  215  TYR215     -0.0009
    160  CE1        9.3830  -10.1660    6.4560 C.ar  215  TYR215      0.0417
    161  CE2        8.9070  -12.3210    5.5360 C.ar  215  TYR215      0.0417
    162  CZ         8.7330  -11.3800    6.5250 C.ar  215  TYR215      0.1957
    163  OH         7.9040  -11.6640    7.5870 O.3   215  TYR215     -0.2866
@<TRIPOS>BOND
     1    50    49   ar
     2    50    48   ar
     3    49    47   ar
     4    48    46   ar
     5    47    44   ar
     6    46    44   ar
     7    46    45   ar
     8    44    42   ar
     9    89    87   ar
    10    89    88   ar
    11    87    85   ar
    12    45    43   ar
    13    88    86   ar
    14    42    43   ar
    15    42    41    1
    16    40    39    2
    17    85    84   ar
    18    85    83   ar
    19    41    38    1
    20    38    39    1
    21    38    37    1
    22   132   133    1
    23    84    82   ar
    24    86    83   ar
    25    39    51   am
    26    36    35    2
    27    83    81   ar
    28    37    35   am
    29    35    34    1
    30   134   133    1
    31   134   135    2
    32   133   136    1
    33    82    81   ar
    34    31    30    1
    35    51    52    1
    36    27    28    1
    37    27    26    1
    38    27    30    1
    39    81    80    1
    40    53    54    2
    41    53    52    1
    42    52    55    1
    43    28    29    2
    44    34    33    1
    45    30    32    1
    46   136   137    1
    47    80    77    1
    48   137   138    1
    49    55    56    1
    50    69    68    2
    51   151   149   ar
    52   151   150   ar
    53    56    57    1
    54   149   147   ar
    55    77    76    1
    56    77    78    1
    57    60    61    1
    58    58    57    1
    59    58    59    1
    60    70    71    1
    61    70    67    1
    62    76    74   am
    63   150   148   ar
    64    68    67    1
    65    68    72   am
    66   138   140   ar
    67   138   139   ar
    68    93    92    2
    69    74    75    2
    70    74    73    1
    71    66    67    1
    72    66    62   am
    73   147   146   ar
    74    73    72    1
    75    90    78   am
    76    90    91    1
    77    78    79    2
    78    61    62    1
    79    61    64    1
    80    62    63    2
    81   148   146   ar
    82    92    91    1
    83   146   145    1
    84    64    65    1
    85   141   142    1
    86   142   145    1
    87   142   143    1
    88    94    95    1
    89   143   152   am
    90   143   144    2
    91   152   153    1
    92    97    96    2
    93    95    96    1
    94    95    98    1
    95   156   153    1
    96   156   157    1
    97   155   154    2
    98   153   154    1
    99    98    99    1
   100    99   100    1
   101   102   101    1
   102   157   159   ar
   103   157   158   ar
   104   159   161   ar
   105   100   101    1
   106   158   160   ar
   107    23    21   ar
   108    23    25   ar
   109   161   162   ar
   110    21    20   ar
   111    25    24   ar
   112   103   104    1
   113   160   162   ar
   114   162   163    1
   115   106   105    2
   116   110   111    1
   117   110   109    1
   118    20    22   ar
   119    20    19    1
   120    24    22   ar
   121   105   104    1
   122    18    17    2
   123   104   107    1
   124    16    19    1
   125    16    17    1
   126    16    15    1
   127   109   108    1
   128   107   108    1
   129    12    14   ar
   130    12    10   ar
   131   121   120    1
   132     9    10   ar
   133     9     7   ar
   134    14    13   ar
   135    10     8   ar
   136   130   129    2
   137   120   122    1
   138   120   119    2
   139   131   129   am
   140     7     6   ar
   141   129   128    1
   142    13    11   ar
   143     8     6   ar
   144     8    11   ar
   145   119   118    1
   146   118   117    1
   147     6     5    1
   148     4     3    2
   149   128   127    1
   150   127   124    1
   151     3     2    1
   152   117   116    1
   153   116   113    1
   154     5     2    1
   155     2     1    1
   156   124   125    1
   157   124   123    1
   158   115   114    2
   159   113   112    1
   160   113   114    1
   161   125   126    2
