@<TRIPOS>MOLECULE
tmp/5kq4F00.pdb
 206 197 0 0 0
SMALL
GASTEIGER

@<TRIPOS>ATOM
      1  N         -7.0280    0.1340  -45.1320 N.3    42  GLU42      -0.1245
      2  CA        -7.7300   -0.8280  -44.2870 C.3    42  GLU42       0.1567
      3  C         -7.7940   -0.3500  -42.8410 C.2    42  GLU42       0.2260
      4  O         -8.8010   -0.5650  -42.1550 O.2    42  GLU42      -0.2867
      5  CB        -7.0640   -2.2040  -44.3720 C.3    42  GLU42       0.0388
      6  CG        -7.7100   -3.2320  -43.4550 C.3    42  GLU42       0.1160
      7  CD        -7.6890   -4.6390  -44.0130 C.2    42  GLU42       0.3649
      8  OE1       -6.6030   -5.1170  -44.4020 O.co2  42  GLU42      -0.2457
      9  OE2       -8.7660   -5.2680  -44.0570 O.co2  42  GLU42      -0.2457
     10  N        -10.6270    1.7840  -42.7370 N.3    45  HIS45      -0.1226
     11  CA       -11.8440    0.9760  -42.7340 C.3    45  HIS45       0.1752
     12  C        -12.1220    0.4180  -41.3450 C.2    45  HIS45       0.2596
     13  O        -13.2630    0.4480  -40.8630 O.2    45  HIS45      -0.2718
     14  CB       -11.7210   -0.1570  -43.7530 C.3    45  HIS45       0.0759
     15  CG       -12.9050   -1.0750  -43.7840 C.ar   45  HIS45       0.0818
     16  ND1      -12.8040   -2.4290  -43.5460 N.ar   45  HIS45      -0.2268
     17  CD2      -14.2150   -0.8330  -44.0300 C.ar   45  HIS45       0.1154
     18  CE1      -14.0000   -2.9820  -43.6440 C.ar   45  HIS45       0.1986
     19  NE2      -14.8740   -2.0350  -43.9350 N.ar   45  HIS45      -0.2212
     20  N        -11.0810   -0.0940  -40.6850 N.am   46  TRP46      -0.1976
     21  CA       -11.2280   -0.6070  -39.3270 C.3    46  TRP46       0.1640
     22  C        -11.7020    0.4860  -38.3790 C.2    46  TRP46       0.2290
     23  O        -12.5980    0.2650  -37.5530 O.2    46  TRP46      -0.2864
     24  CB        -9.8990   -1.1950  -38.8500 C.3    46  TRP46       0.0576
     25  CG        -9.5090   -2.4550  -39.5540 C.ar   46  TRP46       0.0006
     26  CD1      -10.2810   -3.1900  -40.4050 C.ar   46  TRP46       0.0946
     27  CD2       -8.2490   -3.1320  -39.4700 C.ar   46  TRP46       0.0152
     28  NE1       -9.5800   -4.2840  -40.8580 N.ar   46  TRP46      -0.2442
     29  CE2       -8.3300   -4.2700  -40.2960 C.ar   46  TRP46       0.0810
     30  CE3       -7.0610   -2.8870  -38.7760 C.ar   46  TRP46       0.0012
     31  CZ2       -7.2670   -5.1600  -40.4470 C.ar   46  TRP46       0.0191
     32  CZ3       -6.0070   -3.7710  -38.9280 C.ar   46  TRP46       0.0001
     33  CH2       -6.1190   -4.8940  -39.7560 C.ar   46  TRP46       0.0015
     34  N        -15.3810    1.1680  -38.9450 N.3    49  GLU49      -0.1231
     35  CA       -16.2860    0.1140  -38.5020 C.3    49  GLU49       0.1699
     36  C        -16.3470    0.0150  -36.9820 C.2    49  GLU49       0.2592
     37  O        -17.4230   -0.2030  -36.4150 O.2    49  GLU49      -0.2718
     38  CB       -15.8550   -1.2260  -39.1040 C.3    49  GLU49       0.0402
     39  CG       -16.7430   -2.4030  -38.7260 C.3    49  GLU49       0.1161
     40  CD       -18.1810   -2.2120  -39.1580 C.2    49  GLU49       0.3649
     41  OE1      -19.0910   -2.5410  -38.3680 O.co2  49  GLU49      -0.2457
     42  OE2      -18.4020   -1.7290  -40.2870 O.co2  49  GLU49      -0.2457
     43  N        -15.2090    0.1770  -36.3080 N.am   50  ASP50      -0.1974
     44  CA       -15.1430   -0.0370  -34.8670 C.3    50  ASP50       0.1709
     45  C        -15.5020    1.1970  -34.0530 C.2    50  ASP50       0.2293
     46  O        -16.0650    1.0610  -32.9610 O.2    50  ASP50      -0.2864
     47  CB       -13.7400   -0.4990  -34.4710 C.3    50  ASP50       0.1436
     48  CG       -13.3430   -1.7960  -35.1390 C.2    50  ASP50       0.3671
     49  OD1      -14.2380   -2.6010  -35.4660 O.co2  50  ASP50      -0.2456
     50  OD2      -12.1280   -2.0100  -35.3340 O.co2  50  ASP50      -0.2456
     51  N         -5.3260   -7.2250  -55.7920 N.3    91  ASP91      -0.1225
     52  CA        -4.7870   -8.3760  -55.0720 C.3    91  ASP91       0.1805
     53  C         -4.8700   -8.1700  -53.5660 C.2    91  ASP91       0.2597
     54  O         -5.1360   -9.1190  -52.8190 O.2    91  ASP91      -0.2718
     55  CB        -3.3390   -8.6330  -55.4910 C.3    91  ASP91       0.1424
     56  CG        -2.6490   -9.6670  -54.6130 C.2    91  ASP91       0.3668
     57  OD1       -2.8180  -10.8770  -54.8720 O.co2  91  ASP91      -0.2456
     58  OD2       -1.9340   -9.2740  -53.6680 O.co2  91  ASP91      -0.2456
     59  N         -4.6360   -6.9390  -53.1050 N.am   92  PHE92      -0.1976
     60  CA        -4.7960   -6.6310  -51.6880 C.3    92  PHE92       0.1639
     61  C         -6.2200   -6.8980  -51.2150 C.2    92  PHE92       0.2290
     62  O         -6.4310   -7.2530  -50.0490 O.2    92  PHE92      -0.2864
     63  CB        -4.4050   -5.1740  -51.4300 C.3    92  PHE92       0.0560
     64  CG        -4.6440   -4.7170  -50.0210 C.ar   92  PHE92      -0.0200
     65  CD1       -3.9160   -5.2510  -48.9700 C.ar   92  PHE92      -0.0042
     66  CD2       -5.5880   -3.7430  -49.7480 C.ar   92  PHE92      -0.0042
     67  CE1       -4.1320   -4.8300  -47.6690 C.ar   92  PHE92      -0.0003
     68  CE2       -5.8080   -3.3160  -48.4510 C.ar   92  PHE92      -0.0003
     69  CZ        -5.0770   -3.8600  -47.4100 C.ar   92  PHE92      -0.0000
     70  N         -6.9360  -11.3540  -51.7880 N.3    95  TYR95      -0.1227
     71  CA        -5.9660  -12.4050  -51.4990 C.3    95  TYR95       0.1736
     72  C         -6.4720  -13.3990  -50.4600 C.2    95  TYR95       0.2595
     73  O         -5.9240  -14.5000  -50.3570 O.2    95  TYR95      -0.2718
     74  CB        -4.6390  -11.7960  -51.0340 C.3    95  TYR95       0.0548
     75  CG        -4.6120  -11.3170  -49.5960 C.ar   95  TYR95      -0.0200
     76  CD1       -4.2050  -12.1610  -48.5690 C.ar   95  TYR95      -0.0009
     77  CD2       -4.9700  -10.0170  -49.2710 C.ar   95  TYR95      -0.0009
     78  CE1       -4.1720  -11.7290  -47.2580 C.ar   95  TYR95       0.0417
     79  CE2       -4.9360   -9.5730  -47.9640 C.ar   95  TYR95       0.0417
     80  CZ        -4.5380  -10.4330  -46.9610 C.ar   95  TYR95       0.1957
     81  OH        -4.5070   -9.9900  -45.6570 O.3    95  TYR95      -0.2866
     82  N         -7.5070  -13.0480  -49.6960 N.am   96  LYS96      -0.1980
     83  CA        -8.0250  -13.9580  -48.6840 C.3    96  LYS96       0.1596
     84  C         -8.9970  -14.9870  -49.2480 C.2    96  LYS96       0.2287
     85  O         -9.3670  -15.9230  -48.5280 O.2    96  LYS96      -0.2864
     86  CB        -8.6990  -13.1660  -47.5660 C.3    96  LYS96       0.0298
     87  CG        -7.7180  -12.4420  -46.6620 C.3    96  LYS96       0.0038
     88  CD        -8.4440  -11.6310  -45.6070 C.3    96  LYS96       0.0206
     89  CE        -7.4680  -10.9350  -44.6760 C.3    96  LYS96       0.1093
     90  NZ        -7.3480  -11.6250  -43.3650 N.3    96  LYS96      -0.1314
     91  N         -8.1730  -17.1980  -51.1590 N.3    98  ARG98      -0.1231
     92  CA        -7.3720  -18.4150  -51.2160 C.3    98  ARG98       0.1694
     93  C         -7.0910  -19.0050  -49.8380 C.2    98  ARG98       0.2591
     94  O         -6.5130  -20.0940  -49.7500 O.2    98  ARG98      -0.2718
     95  CB        -6.0450  -18.1380  -51.9390 C.3    98  ARG98       0.0321
     96  CG        -4.8860  -17.8120  -51.0030 C.3    98  ARG98       0.0489
     97  CD        -4.0020  -16.6780  -51.5000 C.3    98  ARG98       0.2205
     98  NE        -3.0830  -16.2380  -50.4510 N.pl3  98  ARG98      -0.0865
     99  CZ        -2.3680  -15.1180  -50.4930 C.cat  98  ARG98       0.5346
    100  NH1       -2.4570  -14.3050  -51.5350 N.pl3  98  ARG98       0.1354
    101  NH2       -1.5620  -14.8090  -49.4850 N.pl3  98  ARG98       0.1354
    102  N         -7.4870  -18.3230  -48.7660 N.am   99  ILE99      -0.1980
    103  CA        -7.1810  -18.7590  -47.4050 C.3    99  ILE99       0.1595
    104  C         -8.4810  -19.0300  -46.6530 C.2    99  ILE99       0.2287
    105  O         -8.8970  -18.2050  -45.8260 O.2    99  ILE99      -0.2864
    106  CB        -6.3300  -17.7120  -46.6680 C.3    99  ILE99       0.0276
    107  CG1       -5.1980  -17.2050  -47.5640 C.3    99  ILE99       0.0022
    108  CG2       -5.7410  -18.2950  -45.3980 C.3    99  ILE99       0.0022
    109  CD1       -4.2900  -16.1890  -46.8960 C.3    99  ILE99       0.0001
    110  N        -10.9770  -20.4940  -43.8100 N.3   101  VAL101     -0.1245
    111  CA       -10.8350  -20.8220  -42.3990 C.3   101  VAL101      0.1561
    112  C        -12.1120  -21.4960  -41.9180 C.2   101  VAL101      0.2260
    113  O        -13.2130  -21.2060  -42.3970 O.2   101  VAL101     -0.2867
    114  CB       -10.5070  -19.5780  -41.5340 C.3   101  VAL101      0.0252
    115  CG1       -9.2810  -18.8520  -42.0780 C.3   101  VAL101      0.0019
    116  CG2      -11.6930  -18.6410  -41.4550 C.3   101  VAL101      0.0019
    117  N         -4.0620   -5.2920  -30.6750 N.3   123  SER123     -0.1202
    118  CA        -5.4500   -5.3280  -30.2360 C.3   123  SER123      0.2020
    119  C         -6.1040   -6.4900  -30.9720 C.2   123  SER123      0.2619
    120  O         -6.8390   -6.3010  -31.9350 O.2   123  SER123     -0.2717
    121  CB        -6.2170   -3.9210  -30.4650 C.3   123  SER123      0.2103
    122  OG        -7.5290   -3.9380  -29.9190 O.3   123  SER123     -0.2182
    123  N         -5.8520   -7.7080  -30.4820 N.am  124  SER124     -0.1951
    124  CA        -6.3170   -8.8960  -31.1900 C.3   124  SER124      0.1924
    125  C         -7.8360   -8.9870  -31.1870 C.2   124  SER124      0.2314
    126  O         -8.4480   -9.3060  -32.2140 O.2   124  SER124     -0.2863
    127  CB        -5.7020  -10.1470  -30.5660 C.3   124  SER124      0.2116
    128  OG        -5.6700  -10.0380  -29.1520 O.3   124  SER124     -0.2180
    129  N        -12.5870  -13.4820  -30.4640 N.3   127  GLY127     -0.1225
    130  CA       -13.0470  -14.1630  -31.6570 C.3   127  GLY127      0.1811
    131  C        -13.3100  -15.6260  -31.3810 C.2   127  GLY127      0.2280
    132  O        -12.9210  -16.1660  -30.3440 O.2   127  GLY127     -0.2866
    133  N        -10.7930  -20.4120  -34.6930 N.3   130  LYS130     -0.1245
    134  CA       -10.7750  -20.5360  -36.1430 C.3   130  LYS130      0.1561
    135  C         -9.3310  -20.6200  -36.6120 C.2   130  LYS130      0.2260
    136  O         -8.3990  -20.2670  -35.8840 O.2   130  LYS130     -0.2867
    137  CB       -11.4680  -19.3520  -36.8190 C.3   130  LYS130      0.0271
    138  CG       -10.7070  -18.0500  -36.6700 C.3   130  LYS130      0.0035
    139  CD       -11.0060  -17.0850  -37.7970 C.3   130  LYS130      0.0206
    140  CE       -10.1070  -15.8630  -37.7180 C.3   130  LYS130      0.1093
    141  NZ       -10.3220  -14.9310  -38.8590 N.3   130  LYS130     -0.1314
    142  N         -6.7430  -21.6890  -40.4850 N.3   132  LYS132     -0.1245
    143  CA        -6.6300  -22.0670  -41.8850 C.3   132  LYS132      0.1561
    144  C         -6.7810  -23.5790  -42.0590 C.2   132  LYS132      0.2260
    145  O         -6.6150  -24.3620  -41.1190 O.2   132  LYS132     -0.2867
    146  CB        -5.2840  -21.5990  -42.4410 C.3   132  LYS132      0.0271
    147  CG        -5.0520  -20.0970  -42.3080 C.3   132  LYS132      0.0035
    148  CD        -3.5820  -19.7450  -42.4780 C.3   132  LYS132      0.0206
    149  CE        -2.7840  -20.0720  -41.2240 C.3   132  LYS132      0.1093
    150  NZ        -3.1650  -19.1880  -40.0890 N.3   132  LYS132     -0.1314
    151  N        -16.1510  -12.7050  -45.6780 N.3   169  ILE169     -0.1231
    152  CA       -15.7300  -11.4940  -44.9800 C.3   169  ILE169      0.1692
    153  C        -14.3730  -11.0910  -45.5390 C.2   169  ILE169      0.2591
    154  O        -13.3920  -11.8280  -45.3810 O.2   169  ILE169     -0.2718
    155  CB       -15.6520  -11.6990  -43.4610 C.3   169  ILE169      0.0266
    156  CG1      -16.9470  -12.3230  -42.9380 C.3   169  ILE169      0.0019
    157  CG2      -15.3740  -10.3750  -42.7590 C.3   169  ILE169      0.0020
    158  CD1      -16.8460  -12.8530  -41.5280 C.3   169  ILE169      0.0001
    159  N        -14.3130   -9.9230  -46.1830 N.am  170  ARG170     -0.1980
    160  CA       -13.0800   -9.4170  -46.7880 C.3   170  ARG170      0.1597
    161  C        -12.5090  -10.4320  -47.7820 C.2   170  ARG170      0.2287
    162  O        -11.3040  -10.6890  -47.8310 O.2   170  ARG170     -0.2864
    163  CB       -12.0550   -9.0500  -45.7130 C.3   170  ARG170      0.0334
    164  CG       -11.0040   -8.0480  -46.1500 C.3   170  ARG170      0.0492
    165  CD        -9.7150   -8.2670  -45.3720 C.3   170  ARG170      0.2205
    166  NE        -8.6780   -7.2940  -45.7070 N.pl3 170  ARG170     -0.0865
    167  CZ        -7.9460   -7.3310  -46.8160 C.cat 170  ARG170      0.5346
    168  NH1       -7.0240   -6.4050  -47.0310 N.pl3 170  ARG170      0.1354
    169  NH2       -8.1440   -8.2870  -47.7140 N.pl3 170  ARG170      0.1354
    170  N        -12.5630  -13.4620  -47.7020 N.3   172  GLN172     -0.1245
    171  CA       -12.2670  -14.7250  -47.0370 C.3   172  GLN172      0.1566
    172  C        -13.5450  -15.5030  -46.7480 C.2   172  GLN172      0.2260
    173  O        -14.5040  -14.9550  -46.1970 O.2   172  GLN172     -0.2867
    174  CB       -11.5000  -14.4720  -45.7350 C.3   172  GLN172      0.0367
    175  CG       -11.1460  -15.7430  -44.9820 C.3   172  GLN172      0.0905
    176  CD       -10.0870  -15.5340  -43.9170 C.2   172  GLN172      0.2608
    177  OE1      -10.3480  -14.9410  -42.8670 O.2   172  GLN172     -0.2717
    178  NE2       -8.8870  -16.0450  -44.1730 N.am  172  GLN172     -0.0878
    179  N        -14.4030   -2.5130  -31.1690 N.3   220  ASN220     -0.1240
    180  CA       -13.1130   -2.8970  -31.7240 C.3   220  ASN220      0.1653
    181  C        -12.5250   -4.1330  -31.0560 C.2   220  ASN220      0.2266
    182  O        -11.4920   -4.6260  -31.5170 O.2   220  ASN220     -0.2867
    183  CB       -12.1250   -1.7360  -31.6110 C.3   220  ASN220      0.1155
    184  CG       -11.8170   -1.3690  -30.1740 C.2   220  ASN220      0.2627
    185  OD1      -12.7180   -1.2480  -29.3430 O.2   220  ASN220     -0.2716
    186  ND2      -10.5370   -1.1980  -29.8720 N.am  220  ASN220     -0.0877
    187  N        -14.6190   -7.4020  -33.2090 N.3   223  TYR223     -0.1227
    188  CA       -14.8620   -7.1870  -34.6330 C.3   223  TYR223      0.1736
    189  C        -15.0380   -8.4980  -35.3910 C.2   223  TYR223      0.2595
    190  O        -15.7890   -8.5520  -36.3730 O.2   223  TYR223     -0.2718
    191  CB       -13.7200   -6.3640  -35.2460 C.3   223  TYR223      0.0548
    192  CG       -12.3390   -6.9730  -35.0930 C.ar  223  TYR223     -0.0200
    193  CD1      -11.8840   -7.9460  -35.9770 C.ar  223  TYR223     -0.0009
    194  CD2      -11.4840   -6.5570  -34.0820 C.ar  223  TYR223     -0.0009
    195  CE1      -10.6240   -8.4990  -35.8450 C.ar  223  TYR223      0.0417
    196  CE2      -10.2210   -7.1010  -33.9460 C.ar  223  TYR223      0.0417
    197  CZ        -9.7970   -8.0710  -34.8290 C.ar  223  TYR223      0.1957
    198  OH        -8.5390   -8.6110  -34.6870 O.3   223  TYR223     -0.2866
    199  N        -14.3700   -9.5650  -34.9500 N.am  224  MET224     -0.1979
    200  CA       -14.4400  -10.8230  -35.6840 C.3   224  MET224      0.1605
    201  C        -15.8030  -11.4850  -35.5250 C.2   224  MET224      0.2287
    202  O        -16.3320  -12.0640  -36.4820 O.2   224  MET224     -0.2864
    203  CB       -13.3250  -11.7610  -35.2210 C.3   224  MET224      0.0413
    204  CG       -13.2470  -13.0740  -36.0050 C.3   224  MET224      0.0598
    205  SD       -14.3190  -14.3880  -35.3740 S.3   224  MET224     -0.1393
    206  CE       -14.6390  -15.3290  -36.8660 C.3   224  MET224      0.0692
@<TRIPOS>BOND
     1    51    52    1
     2    55    52    1
     3    55    56    1
     4    52    53    1
     5    57    56   ar
     6    56    58   ar
     7    53    59   am
     8    53    54    2
     9    59    60    1
    10    95    92    1
    11    95    96    1
    12    70    71    1
    13    60    63    1
    14    60    61    1
    15   100    99    1
    16    97    96    1
    17    97    98    1
    18    71    74    1
    19    71    72    1
    20    63    64    1
    21    92    91    1
    22    92    93    1
    23    61    62    2
    24    74    75    1
    25    99    98    2
    26    99   101    1
    27    72    73    2
    28    72    82   am
    29    64    66   ar
    30    64    65   ar
    31    93    94    2
    32    93   102   am
    33    66    68   ar
    34    82    83    1
    35    75    77   ar
    36    75    76   ar
    37    77    79   ar
    38    84    83    1
    39    84    85    2
    40    65    67   ar
    41   102   103    1
    42    83    86    1
    43    76    78   ar
    44    68    69   ar
    45    79    80   ar
    46   162   161    2
    47   161   160    1
    48   169   167    1
    49   170   171    1
    50    67    69   ar
    51    86    87    1
    52   107   109    1
    53   107   106    1
    54   103   106    1
    55   103   104    1
    56    78    80   ar
    57   171   172    1
    58   171   174    1
    59   168   167    1
    60    80    81    1
    61   167   166    2
    62   160   159    1
    63   160   163    1
    64   172   173    2
    65   106   108    1
    66    87    88    1
    67   104   105    2
    68   159   153   am
    69   164   163    1
    70   164   165    1
    71   174   175    1
    72   166   165    1
    73   151   152    1
    74    88    89    1
    75   153   154    2
    76   153   152    1
    77     1     2    1
    78   175   176    1
    79   152   155    1
    80    89    90    1
    81     8     7   ar
    82     5     2    1
    83     5     6    1
    84     2     3    1
    85   178   176   am
    86     9     7   ar
    87    17    19   ar
    88    17    15   ar
    89     7     6    1
    90    19    18   ar
    91   176   177    2
    92   110   111    1
    93    15    14    1
    94    15    16   ar
    95    14    11    1
    96    18    16   ar
    97   155   156    1
    98   155   157    1
    99   156   158    1
   100     3     4    2
   101    10    11    1
   102    11    12    1
   103   148   147    1
   104   148   149    1
   105   146   147    1
   106   146   143    1
   107   111   112    1
   108   111   114    1
   109   113   112    2
   110   115   114    1
   111   144   143    1
   112   144   145    2
   113   143   142    1
   114   114   116    1
   115    12    13    2
   116    12    20   am
   117   149   150    1
   118    28    26   ar
   119    28    29   ar
   120    20    21    1
   121    31    29   ar
   122    31    33   ar
   123    26    25   ar
   124    29    27   ar
   125    42    40   ar
   126    33    32   ar
   127    25    27   ar
   128    25    24    1
   129    27    30   ar
   130    21    24    1
   131    21    22    1
   132    40    39    1
   133    40    41   ar
   134    38    39    1
   135    38    35    1
   136    34    35    1
   137    32    30   ar
   138   141   140    1
   139    35    36    1
   140    22    23    2
   141   139   140    1
   142   139   138    1
   143    36    37    2
   144    36    43   am
   145   206   205    1
   146   137   138    1
   147   137   134    1
   148   135   134    1
   149   135   136    2
   150   202   201    2
   151   190   189    2
   152    43    44    1
   153   134   133    1
   154   204   205    1
   155   204   203    1
   156   193   195   ar
   157   193   192   ar
   158   195   197   ar
   159   200   201    1
   160   200   203    1
   161   200   199    1
   162    49    48   ar
   163   189   199   am
   164   189   188    1
   165    50    48   ar
   166   191   192    1
   167   191   188    1
   168    48    47    1
   169   192   194   ar
   170    44    47    1
   171    44    45    1
   172   197   198    1
   173   197   196   ar
   174   188   187    1
   175   194   196   ar
   176    45    46    2
   177   126   125    2
   178   120   119    2
   179   180   183    1
   180   180   179    1
   181   180   181    1
   182   130   131    1
   183   130   129    1
   184   183   184    1
   185   182   181    2
   186   131   132    2
   187   124   125    1
   188   124   127    1
   189   124   123    1
   190   119   123   am
   191   119   118    1
   192   117   118    1
   193   127   128    1
   194   121   118    1
   195   121   122    1
   196   184   186   am
   197   184   185    2
