@<TRIPOS>MOLECULE
tmp/5kq5A01.pdb
 89 81 0 0 0
SMALL
GASTEIGER

@<TRIPOS>ATOM
      1  N         56.5990  -81.0480  -39.6090 N.3     2  VAL2       -0.1245
      2  CA        55.5350  -80.0450  -39.4870 C.3     2  VAL2        0.1561
      3  C         55.7190  -79.3040  -38.1540 C.2     2  VAL2        0.2260
      4  O         55.4730  -79.8660  -37.0860 O.2     2  VAL2       -0.2867
      5  CB        54.1170  -80.6580  -39.6730 C.3     2  VAL2        0.0252
      6  CG1       53.0270  -79.6180  -39.4590 C.3     2  VAL2        0.0019
      7  CG2       53.9690  -81.2920  -41.0480 C.3     2  VAL2        0.0019
      8  N         54.8950  -81.1550  -34.7350 N.3     9  LEU9       -0.1231
      9  CA        53.5890  -81.7920  -34.5980 C.3     9  LEU9        0.1693
     10  C         53.7120  -83.2600  -34.9370 C.2     9  LEU9        0.2593
     11  O         54.4170  -83.6350  -35.8800 O.2     9  LEU9       -0.2718
     12  CB        52.5210  -81.1240  -35.4730 C.3     9  LEU9        0.0284
     13  CG        52.0350  -79.7500  -35.0230 C.3     9  LEU9        0.0019
     14  CD1       51.2390  -79.0910  -36.1070 C.3     9  LEU9        0.0001
     15  CD2       51.1940  -79.8330  -33.7660 C.3     9  LEU9        0.0001
     16  N         53.0930  -84.0790  -34.1080 N.am   10  GLY10      -0.1942
     17  CA        53.1150  -85.5190  -34.2580 C.3    10  GLY10       0.2014
     18  C         51.7220  -86.0810  -34.2830 C.2    10  GLY10       0.2638
     19  O         50.7680  -85.4040  -34.6700 O.2    10  GLY10      -0.2714
     20  N         51.6200  -87.3220  -33.8360 N.am   11  ASP11      -0.1971
     21  CA        50.4130  -88.1370  -33.7880 C.3    11  ASP11       0.1709
     22  C         49.2170  -87.4590  -33.1220 C.2    11  ASP11       0.2293
     23  O         49.3830  -86.7620  -32.1190 O.2    11  ASP11      -0.2864
     24  CB        50.7150  -89.4630  -33.0590 C.3    11  ASP11       0.1436
     25  CG        51.9380  -90.2260  -33.5580 C.2    11  ASP11       0.3671
     26  OD1       51.8030  -90.9830  -34.5600 O.co2  11  ASP11      -0.2456
     27  OD2       53.0170  -90.1120  -32.9110 O.co2  11  ASP11      -0.2456
     28  N         40.9280  -81.5540  -33.5980 N.3    20  LYS20      -0.1245
     29  CA        41.9210  -82.5940  -33.3010 C.3    20  LYS20       0.1561
     30  C         42.9450  -82.0670  -32.3170 C.2    20  LYS20       0.2260
     31  O         43.2130  -80.8630  -32.3090 O.2    20  LYS20      -0.2867
     32  CB        42.6610  -83.0290  -34.5720 C.3    20  LYS20       0.0271
     33  CG        42.0540  -84.1890  -35.3300 C.3    20  LYS20       0.0035
     34  CD        42.9160  -84.5320  -36.5430 C.3    20  LYS20       0.0206
     35  CE        42.3140  -85.6020  -37.4300 C.3    20  LYS20       0.1093
     36  NZ        43.0140  -85.6880  -38.7450 N.3    20  LYS20      -0.1314
     37  N         47.0040  -82.8400  -31.0410 N.3    22  LYS22      -0.1245
     38  CA        48.2140  -83.5350  -31.4910 C.3    22  LYS22       0.1561
     39  C         49.3870  -83.3380  -30.5610 C.2    22  LYS22       0.2260
     40  O         49.4190  -82.3360  -29.8520 O.2    22  LYS22      -0.2867
     41  CB        48.5880  -83.0730  -32.9100 C.3    22  LYS22       0.0271
     42  CG        47.6520  -83.6010  -33.9830 C.3    22  LYS22       0.0035
     43  CD        48.0550  -83.1530  -35.3620 C.3    22  LYS22       0.0206
     44  CE        47.3850  -83.9870  -36.4210 C.3    22  LYS22       0.1093
     45  NZ        47.9900  -85.3400  -36.5020 N.3    22  LYS22      -0.1314
     46  N         43.8690  -78.0360  -32.5860 N.3    37  ILE37      -0.1245
     47  CA        43.7860  -77.3360  -33.8770 C.3    37  ILE37       0.1561
     48  C         42.3340  -76.9420  -34.2230 C.2    37  ILE37       0.2260
     49  O         41.5050  -77.8200  -34.5000 O.2    37  ILE37      -0.2867
     50  CB        44.4680  -78.1120  -35.0450 C.3    37  ILE37       0.0252
     51  CG1       45.8360  -78.6950  -34.6360 C.3    37  ILE37       0.0019
     52  CG2       44.5710  -77.2120  -36.2950 C.3    37  ILE37       0.0019
     53  CD1       46.4260  -79.7060  -35.6000 C.3    37  ILE37       0.0001
     54  N         40.1420  -75.0240  -36.9530 N.3    39  ASN39      -0.1240
     55  CA        40.0230  -74.3890  -38.2590 C.3    39  ASN39       0.1653
     56  C         39.1340  -73.1800  -38.1210 C.2    39  ASN39       0.2266
     57  O         37.9880  -73.3160  -37.6990 O.2    39  ASN39      -0.2867
     58  CB        39.4210  -75.3300  -39.2800 C.3    39  ASN39       0.1155
     59  CG        39.6090  -74.8880  -40.7110 C.2    39  ASN39       0.2627
     60  OD1       39.3210  -73.7530  -41.1120 O.2    39  ASN39      -0.2716
     61  ND2       40.0970  -75.7960  -41.5290 N.am   39  ASN39      -0.0877
     62  N         35.9160  -73.6520  -39.9330 N.3    42  LYS42      -0.1245
     63  CA        35.0280  -74.6060  -39.2590 C.3    42  LYS42       0.1561
     64  C         34.4760  -74.0250  -37.9670 C.2    42  LYS42       0.2260
     65  O         33.3410  -74.3360  -37.6160 O.2    42  LYS42      -0.2867
     66  CB        35.7110  -75.9510  -39.0010 C.3    42  LYS42       0.0271
     67  CG        34.7700  -76.9490  -38.3630 C.3    42  LYS42       0.0035
     68  CD        35.3610  -78.3410  -38.3500 C.3    42  LYS42       0.0206
     69  CE        35.8980  -78.6930  -36.9850 C.3    42  LYS42       0.1093
     70  NZ        37.0910  -77.9060  -36.6120 N.3    42  LYS42      -0.1314
     71  N         43.9660  -71.7640  -39.6720 N.3    79  ASP79      -0.1239
     72  CA        43.5740  -72.4110  -38.4140 C.3    79  ASP79       0.1674
     73  C         44.1420  -71.6840  -37.1760 C.2    79  ASP79       0.2266
     74  O         44.9220  -70.7410  -37.3070 O.2    79  ASP79      -0.2867
     75  CB        44.0600  -73.8860  -38.4170 C.3    79  ASP79       0.1410
     76  CG        43.8500  -74.6490  -39.7280 C.2    79  ASP79       0.3668
     77  OD1       42.7570  -75.2180  -39.9140 O.co2  79  ASP79      -0.2456
     78  OD2       44.7920  -74.6840  -40.5620 O.co2  79  ASP79      -0.2456
     79  N         45.9130  -72.5350  -33.2520 N.3    81  PHE81      -0.1241
     80  CA        46.5780  -73.5750  -32.4880 C.3    81  PHE81       0.1605
     81  C         46.6210  -73.2800  -31.0000 C.2    81  PHE81       0.2264
     82  O         47.1410  -72.2450  -30.5880 O.2    81  PHE81      -0.2867
     83  CB        47.9990  -73.7880  -33.0180 C.3    81  PHE81       0.0534
     84  CG        48.0760  -74.3560  -34.4090 C.ar   81  PHE81      -0.0203
     85  CD1       48.0810  -75.7280  -34.6170 C.ar   81  PHE81      -0.0042
     86  CD2       48.1720  -73.5210  -35.5120 C.ar   81  PHE81      -0.0042
     87  CE1       48.1730  -76.2540  -35.9010 C.ar   81  PHE81      -0.0003
     88  CE2       48.2550  -74.0490  -36.7990 C.ar   81  PHE81      -0.0003
     89  CZ        48.2570  -75.4130  -36.9830 C.ar   81  PHE81      -0.0000
@<TRIPOS>BOND
     1    61    59   am
     2    60    59    2
     3     7     5    1
     4    59    58    1
     5    78    76   ar
     6    62    63    1
     7    77    76   ar
     8    76    75    1
     9     5     2    1
    10     5     6    1
    11    71    72    1
    12     1     2    1
    13     2     3    1
    14    58    55    1
    15    63    66    1
    16    63    64    1
    17    66    67    1
    18    36    35    1
    19    75    72    1
    20    72    73    1
    21    67    68    1
    22    68    69    1
    23    55    56    1
    24    55    54    1
    25     3     4    2
    26    56    57    2
    27    64    65    2
    28    35    34    1
    29    74    73    2
    30    69    70    1
    31    89    88   ar
    32    89    87   ar
    33    88    86   ar
    34    34    33    1
    35    45    44    1
    36    44    43    1
    37    52    50    1
    38    14    13    1
    39    87    85   ar
    40    11    10    2
    41    53    51    1
    42    86    84   ar
    43    12    13    1
    44    12     9    1
    45    43    42    1
    46    33    32    1
    47    50    51    1
    48    50    47    1
    49    13    15    1
    50    10     9    1
    51    10    16   am
    52     8     9    1
    53    19    18    2
    54    85    84   ar
    55    32    29    1
    56    26    25   ar
    57    49    48    2
    58    84    83    1
    59    18    17    1
    60    18    20   am
    61    17    16    1
    62    48    47    1
    63    42    41    1
    64    47    46    1
    65    20    21    1
    66    21    22    1
    67    21    24    1
    68    28    29    1
    69    25    24    1
    70    25    27   ar
    71    29    30    1
    72    79    80    1
    73    22    23    2
    74    83    80    1
    75    41    38    1
    76    80    81    1
    77    30    31    2
    78    38    37    1
    79    38    39    1
    80    81    82    2
    81    39    40    2
