@<TRIPOS>MOLECULE
tmp/5kqdA00.pdb
 165 156 0 0 0
SMALL
GASTEIGER

@<TRIPOS>ATOM
      1  N         28.9600   84.8910  115.1670 N.3     7  ASP7       -0.1225
      2  CA        27.5040   84.9740  115.0610 C.3     7  ASP7        0.1805
      3  C         27.1950   86.4180  114.6990 C.2     7  ASP7        0.2598
      4  O         27.4030   87.3250  115.5100 O.2     7  ASP7       -0.2718
      5  CB        26.8170   84.5740  116.3700 C.3     7  ASP7        0.1424
      6  CG        25.2830   84.6280  116.2970 C.2     7  ASP7        0.3668
      7  OD1       24.7180   85.3750  115.4750 O.co2   7  ASP7       -0.2456
      8  OD2       24.6360   83.9240  117.0970 O.co2   7  ASP7       -0.2456
      9  N         26.7000   86.6300  113.4950 N.am    8  ILE8       -0.1966
     10  CA        26.5370   87.9630  112.9500 C.3     8  ILE8        0.1727
     11  C         25.0470   88.2180  112.8070 C.2     8  ILE8        0.2617
     12  O         24.3740   87.6770  111.9190 O.2     8  ILE8       -0.2715
     13  CB        27.2780   88.1210  111.6260 C.3     8  ILE8        0.0290
     14  CG1       28.7560   87.8190  111.8480 C.3     8  ILE8        0.0022
     15  CG2       27.1240   89.5230  111.1160 C.3     8  ILE8        0.0023
     16  CD1       29.5590   87.7360  110.5830 C.3     8  ILE8        0.0001
     17  N         24.5320   89.0320  113.7160 N.am    9  GLY9       -0.1940
     18  CA        23.1860   89.5290  113.6150 C.3     9  GLY9        0.2014
     19  C         23.1560   90.9010  112.9980 C.2     9  GLY9        0.2639
     20  O         24.1700   91.4390  112.5670 O.2     9  GLY9       -0.2714
     21  N         21.9620   91.4870  112.9810 N.am   10  GLY10      -0.1939
     22  CA        21.7620   92.7060  112.2220 C.3    10  GLY10       0.2014
     23  C         22.2450   93.9300  112.9510 C.2    10  GLY10       0.2640
     24  O         22.4660   94.9830  112.3410 O.2    10  GLY10      -0.2714
     25  N         22.4090   93.8130  114.2580 N.am   11  THR11      -0.1936
     26  CA        22.9790   94.8680  115.0660 C.3    11  THR11       0.2028
     27  C         24.2740   94.4560  115.7530 C.2    11  THR11       0.2642
     28  O         25.1330   95.3130  115.9710 O.2    11  THR11      -0.2714
     29  CB        21.9490   95.3280  116.1020 C.3    11  THR11       0.1808
     30  OG1       21.9450   94.4190  117.2040 O.3    11  THR11      -0.2208
     31  CG2       20.5500   95.3270  115.4750 C.3    11  THR11       0.0379
     32  N         24.4750   93.1610  116.0330 N.am   12  LEU12      -0.1977
     33  CA        25.6150   92.7260  116.8300 C.3    12  LEU12       0.1596
     34  C         26.2900   91.4840  116.2810 C.2    12  LEU12       0.2287
     35  O         25.6930   90.6870  115.5540 O.2    12  LEU12      -0.2864
     36  CB        25.2180   92.4330  118.2590 C.3    12  LEU12       0.0297
     37  CG        24.9280   93.7210  119.0130 C.3    12  LEU12       0.0022
     38  CD1       23.9260   93.4680  120.0670 C.3    12  LEU12       0.0001
     39  CD2       26.1920   94.2560  119.6100 C.3    12  LEU12       0.0001
     40  N         28.5040   88.1780  117.7430 N.3    14  LYS14      -0.1245
     41  CA        28.9100   87.3540  118.8710 C.3    14  LYS14       0.1561
     42  C         30.0220   86.4360  118.3840 C.2    14  LYS14       0.2260
     43  O         29.9270   85.8720  117.2890 O.2    14  LYS14      -0.2867
     44  CB        27.7260   86.5420  119.4020 C.3    14  LYS14       0.0271
     45  CG        26.4250   87.3370  119.6410 C.3    14  LYS14       0.0035
     46  CD        25.5430   87.4230  118.3740 C.3    14  LYS14       0.0206
     47  CE        24.1900   88.0730  118.6710 C.3    14  LYS14       0.1093
     48  NZ        23.3980   88.4190  117.4570 N.3    14  LYS14      -0.1314
     49  N         21.9240   85.9580  110.0560 N.3    75  GLY75      -0.1210
     50  CA        21.1950   86.8780  109.2040 C.3    75  GLY75       0.1956
     51  C         22.0060   88.0970  108.8290 C.2    75  GLY75       0.2612
     52  O         21.8230   88.6620  107.7500 O.2    75  GLY75      -0.2717
     53  N         22.9250   88.5090  109.6980 N.am   76  GLY76      -0.1956
     54  CA        23.6730   89.7210  109.4300 C.3    76  GLY76       0.1869
     55  C         24.7770   89.5430  108.4110 C.2    76  GLY76       0.2309
     56  O         25.1740   90.5060  107.7530 O.2    76  GLY76      -0.2863
     57  N         25.1170   88.0060  105.4980 N.3    78  TYR78      -0.1227
     58  CA        24.9010   88.1470  104.0670 C.3    78  TYR78       0.1736
     59  C         24.9950   89.6090  103.6420 C.2    78  TYR78       0.2595
     60  O         25.5470   89.9090  102.5790 O.2    78  TYR78      -0.2718
     61  CB        23.5660   87.4960  103.6840 C.3    78  TYR78       0.0548
     62  CG        22.3450   88.3840  103.6770 C.ar   78  TYR78      -0.0200
     63  CD1       21.9220   89.0420  104.8280 C.ar   78  TYR78      -0.0009
     64  CD2       21.5830   88.5170  102.5180 C.ar   78  TYR78      -0.0009
     65  CE1       20.7990   89.8400  104.8110 C.ar   78  TYR78       0.0417
     66  CE2       20.4590   89.3050  102.4930 C.ar   78  TYR78       0.0417
     67  CZ        20.0700   89.9640  103.6370 C.ar   78  TYR78       0.1957
     68  OH        18.9440   90.7480  103.5920 O.3    78  TYR78      -0.2866
     69  N         24.5440   90.5310  104.4890 N.am   79  LYS79      -0.1980
     70  CA        24.5990   91.9500  104.1740 C.3    79  LYS79       0.1596
     71  C         25.9270   92.5960  104.5390 C.2    79  LYS79       0.2287
     72  O         26.1220   93.7720  104.2310 O.2    79  LYS79      -0.2864
     73  CB        23.4670   92.6970  104.8880 C.3    79  LYS79       0.0298
     74  CG        23.5330   92.6740  106.3750 C.3    79  LYS79       0.0038
     75  CD        22.5240   93.6730  106.9500 C.3    79  LYS79       0.0206
     76  CE        22.4920   93.4480  108.4370 C.3    79  LYS79       0.1093
     77  NZ        21.6720   94.5290  109.0360 N.3    79  LYS79      -0.1314
     78  N         22.1670   79.3950  111.3350 N.3    88  GLU88      -0.1231
     79  CA        22.2000   79.7150  112.7550 C.3    88  GLU88       0.1699
     80  C         21.7140   78.5510  113.6110 C.2    88  GLU88       0.2592
     81  O         22.3770   78.1680  114.5800 O.2    88  GLU88      -0.2718
     82  CB        21.3610   80.9560  113.0210 C.3    88  GLU88       0.0402
     83  CG        21.3090   81.2820  114.4800 C.3    88  GLU88       0.1161
     84  CD        22.5630   81.9800  114.9390 C.2    88  GLU88       0.3649
     85  OE1       23.4560   82.1990  114.0920 O.co2  88  GLU88      -0.2457
     86  OE2       22.6630   82.3000  116.1440 O.co2  88  GLU88      -0.2457
     87  N         20.5720   77.9620  113.2610 N.am   89  LEU89      -0.1980
     88  CA        20.0300   76.8790  114.0730 C.3    89  LEU89       0.1596
     89  C         20.9600   75.6790  114.1120 C.2    89  LEU89       0.2287
     90  O         21.1580   75.0850  115.1750 O.2    89  LEU89      -0.2864
     91  CB        18.6570   76.4810  113.5580 C.3    89  LEU89       0.0297
     92  CG        17.7140   77.6570  113.7840 C.3    89  LEU89       0.0022
     93  CD1       16.2810   77.2310  113.5630 C.3    89  LEU89       0.0001
     94  CD2       17.9240   78.2300  115.1790 C.3    89  LEU89       0.0001
     95  N         14.0370   78.7590  120.9940 N.3   133  ASN133     -0.1240
     96  CA        14.8960   79.8700  120.6220 C.3   133  ASN133      0.1653
     97  C         14.0560   81.1200  120.4580 C.2   133  ASN133      0.2266
     98  O         13.2160   81.1890  119.5590 O.2   133  ASN133     -0.2867
     99  CB        15.6560   79.6090  119.3330 C.3   133  ASN133      0.1155
    100  CG        16.6500   80.6870  119.0660 C.2   133  ASN133      0.2627
    101  OD1       17.4190   81.0560  119.9480 O.2   133  ASN133     -0.2716
    102  ND2       16.5970   81.2580  117.8800 N.am  133  ASN133     -0.0877
    103  N         14.1370   84.7440  119.4370 N.3   135  GLY135     -0.1210
    104  CA        14.7290   85.9120  118.8440 C.3   135  GLY135      0.1956
    105  C         13.6270   86.9170  118.6340 C.2   135  GLY135      0.2613
    106  O         12.8140   87.1370  119.5360 O.2   135  GLY135     -0.2717
    107  N         13.5830   87.5280  117.4500 N.am  136  SER136     -0.1938
    108  CA        12.4200   88.3230  117.0860 C.3   136  SER136      0.2055
    109  C         11.1570   87.4800  117.1430 C.2   136  SER136      0.2644
    110  O         10.1030   87.9510  117.5760 O.2   136  SER136     -0.2714
    111  CB        12.6180   88.9280  115.7010 C.3   136  SER136      0.2130
    112  OG        13.0190   87.9370  114.7750 O.3   136  SER136     -0.2179
    113  N         11.2500   86.2240  116.7110 N.am  137  GLY137     -0.1939
    114  CA        10.2090   85.2480  116.9390 C.3   137  GLY137      0.2014
    115  C         10.8210   84.0160  117.5740 C.2   137  GLY137      0.2639
    116  O         12.0190   83.9710  117.8530 O.2   137  GLY137     -0.2714
    117  N          9.9770   83.0220  117.7930 N.am  138  VAL138     -0.1963
    118  CA        10.3780   81.8340  118.5290 C.3   138  VAL138      0.1727
    119  C         10.2900   80.6330  117.6120 C.2   138  VAL138      0.2616
    120  O          9.2760   80.4340  116.9350 O.2   138  VAL138     -0.2715
    121  CB         9.5180   81.6340  119.7830 C.3   138  VAL138      0.0290
    122  CG1       10.0390   80.4600  120.5890 C.3   138  VAL138      0.0023
    123  CG2        9.5350   82.9050  120.6060 C.3   138  VAL138      0.0023
    124  N         11.3600   79.8530  117.5710 N.am  139  SER139     -0.1950
    125  CA        11.3840   78.5820  116.8670 C.3   139  SER139      0.1924
    126  C         11.7240   77.5010  117.8690 C.2   139  SER139      0.2314
    127  O         12.6480   77.6700  118.6650 O.2   139  SER139     -0.2863
    128  CB        12.3900   78.5900  115.7250 C.3   139  SER139      0.2116
    129  OG        11.7050   78.6580  114.4890 O.3   139  SER139     -0.2180
    130  N         12.7580   71.6330  113.3710 N.3   151  ARG151     -0.1245
    131  CA        11.9130   72.6800  113.9230 C.3   151  ARG151      0.1563
    132  C         10.4690   72.2180  113.8590 C.2   151  ARG151      0.2260
    133  O          9.8670   72.1890  112.7850 O.2   151  ARG151     -0.2867
    134  CB        12.0860   73.9710  113.1500 C.3   151  ARG151      0.0307
    135  CG        11.1290   75.0070  113.6250 C.3   151  ARG151      0.0489
    136  CD        11.1010   76.1510  112.6800 C.3   151  ARG151      0.2205
    137  NE        10.3990   77.3000  113.2370 N.pl3 151  ARG151     -0.0865
    138  CZ         9.0850   77.4810  113.1990 C.cat 151  ARG151      0.5346
    139  NH1        8.2970   76.5830  112.6250 N.pl3 151  ARG151      0.1354
    140  NH2        8.5590   78.5750  113.7260 N.pl3 151  ARG151      0.1354
    141  N          6.6720   76.9230  116.0440 N.3   154  GLY154     -0.1210
    142  CA         7.1430   78.2080  116.5150 C.3   154  GLY154      0.1956
    143  C          5.9600   79.1100  116.7530 C.2   154  GLY154      0.2613
    144  O          4.8130   78.7530  116.4800 O.2   154  GLY154     -0.2717
    145  N          6.2500   80.2890  117.2900 N.am  155  THR155     -0.1938
    146  CA         5.2400   81.3250  117.4490 C.3   155  THR155      0.2028
    147  C          5.8170   82.6520  116.9730 C.2   155  THR155      0.2642
    148  O          7.0230   82.8960  117.0650 O.2   155  THR155     -0.2714
    149  CB         4.7430   81.4460  118.8980 C.3   155  THR155      0.1808
    150  OG1        3.5980   82.3020  118.9330 O.3   155  THR155     -0.2208
    151  CG2        5.8230   82.0230  119.7970 C.3   155  THR155      0.0379
    152  N          4.9480   83.4970  116.4320 N.am  156  SER156     -0.1949
    153  CA         5.3770   84.7970  115.9530 C.3   156  SER156      0.1924
    154  C          5.4340   85.8300  117.0610 C.2   156  SER156      0.2314
    155  O          5.7710   86.9840  116.7940 O.2   156  SER156     -0.2863
    156  CB         4.4560   85.2740  114.8310 C.3   156  SER156      0.2116
    157  OG         3.1940   85.6270  115.3400 O.3   156  SER156     -0.2180
    158  N         18.8790   85.3460  121.5750 N.3   266  ASN266     -0.1240
    159  CA        19.4200   86.6510  121.9210 C.3   266  ASN266      0.1653
    160  C         18.5340   87.3930  122.9180 C.2   266  ASN266      0.2266
    161  O         19.0050   88.3100  123.5920 O.2   266  ASN266     -0.2867
    162  CB        19.6050   87.4800  120.6480 C.3   266  ASN266      0.1155
    163  CG        18.3070   87.6690  119.8820 C.2   266  ASN266      0.2627
    164  OD1       17.2340   87.7950  120.4740 O.2   266  ASN266     -0.2716
    165  ND2       18.3980   87.6850  118.5590 N.am  266  ASN266     -0.0877
@<TRIPOS>BOND
     1    66    64   ar
     2    66    67   ar
     3    64    62   ar
     4    60    59    2
     5    68    67    1
     6    67    65   ar
     7    59    58    1
     8    59    69   am
     9    62    61    1
    10    62    63   ar
    11    61    58    1
    12    58    57    1
    13    70    69    1
    14    70    71    1
    15    70    73    1
    16    72    71    2
    17    65    63   ar
    18    73    74    1
    19    74    75    1
    20    75    76    1
    21    52    51    2
    22    56    55    2
    23    55    54    1
    24    76    77    1
    25    51    50    1
    26    51    53   am
    27    50    49    1
    28    54    53    1
    29    16    14    1
    30    15    13    1
    31    78    79    1
    32    13    14    1
    33    13    10    1
    34    12    11    2
    35    22    23    1
    36    22    21    1
    37    24    23    2
    38    20    19    2
    39   139   138    1
    40   136   137    1
    41   136   135    1
    42    79    82    1
    43    79    80    1
    44   133   132    2
    45    11    10    1
    46    11    17   am
    47    10     9    1
    48    23    25   am
    49    21    19   am
    50    19    18    1
    51    82    83    1
    52   134   135    1
    53   134   131    1
    54   138   137    2
    55   138   140    1
    56    87    80   am
    57    87    88    1
    58   130   131    1
    59     9     3   am
    60    91    92    1
    61    91    88    1
    62    93    92    1
    63    80    81    2
    64    18    17    1
    65    92    94    1
    66   132   131    1
    67    88    89    1
    68    85    84   ar
    69    89    90    2
    70    25    26    1
    71    83    84    1
    72   129   128    1
    73     3     2    1
    74     3     4    2
    75   112   111    1
    76   156   157    1
    77   156   153    1
    78    84    86   ar
    79     2     1    1
    80     2     5    1
    81    26    27    1
    82    26    29    1
    83    31    29    1
    84     7     6   ar
    85    35    34    2
    86   111   108    1
    87   128   125    1
    88    27    28    2
    89    27    32   am
    90   153   152    1
    91   153   154    1
    92    32    33    1
    93   141   142    1
    94    29    30    1
    95    34    33    1
    96     6     5    1
    97     6     8   ar
    98   152   147   am
    99   144   143    2
   100   142   143    1
   101   113   114    1
   102   113   109   am
   103   143   145   am
   104   155   154    2
   105    33    36    1
   106   125   124    1
   107   125   126    1
   108   120   119    2
   109   114   115    1
   110   147   148    2
   111   147   146    1
   112   108   109    1
   113   108   107    1
   114   109   110    2
   115    43    42    2
   116   145   146    1
   117   146   149    1
   118   107   105   am
   119    48    47    1
   120   124   119   am
   121   115   117   am
   122   115   116    2
   123   119   118    1
   124    40    41    1
   125   117   118    1
   126   126   127    2
   127   102   100   am
   128    36    37    1
   129    46    47    1
   130    46    45    1
   131    42    41    1
   132   118   121    1
   133   165   163   am
   134   105   104    1
   135   105   106    2
   136   104   103    1
   137    41    44    1
   138   149   150    1
   139   149   151    1
   140    37    39    1
   141    37    38    1
   142   100    99    1
   143   100   101    2
   144    99    96    1
   145    44    45    1
   146    98    97    2
   147   121   122    1
   148   121   123    1
   149   163   164    2
   150   163   162    1
   151    97    96    1
   152    96    95    1
   153   162   159    1
   154   158   159    1
   155   159   160    1
   156   160   161    2
