@<TRIPOS>MOLECULE
tmp/5kqfA00.pdb
 157 150 0 0 0
SMALL
GASTEIGER

@<TRIPOS>ATOM
      1  N         25.9530   43.4110   -1.1240 N.3    14  GLN14      -0.1245
      2  CA        26.1890   42.1500   -1.8540 C.3    14  GLN14       0.1566
      3  C         25.1890   41.0430   -1.4950 C.2    14  GLN14       0.2260
      4  O         25.3080   39.9080   -1.9810 O.2    14  GLN14      -0.2867
      5  CB        27.6380   41.6650   -1.6780 C.3    14  GLN14       0.0367
      6  CG        28.6600   42.5000   -2.4670 C.3    14  GLN14       0.0905
      7  CD        30.1020   42.0280   -2.3140 C.2    14  GLN14       0.2608
      8  OE1       30.3940   41.0620   -1.6010 O.2    14  GLN14      -0.2717
      9  NE2       31.0200   42.7210   -2.9930 N.am   14  GLN14      -0.0878
     10  N         22.6540   32.9720   -1.6830 N.3    32  LEU32      -0.1245
     11  CA        21.9140   34.2230   -1.4570 C.3    32  LEU32       0.1561
     12  C         20.4330   33.9530   -1.1490 C.2    32  LEU32       0.2260
     13  O         19.7570   33.2410   -1.8990 O.2    32  LEU32      -0.2867
     14  CB        22.0200   35.1350   -2.6830 C.3    32  LEU32       0.0270
     15  CG        21.4180   36.5340   -2.5090 C.3    32  LEU32       0.0019
     16  CD1       22.5540   37.5360   -2.5270 C.3    32  LEU32       0.0001
     17  CD2       20.4630   36.8410   -3.6250 C.3    32  LEU32       0.0001
     18  N         16.8010   35.0630   -1.2330 N.3    34  ASP34      -0.1239
     19  CA        16.0860   35.9660   -2.1280 C.3    34  ASP34       0.1674
     20  C         14.5750   35.7230   -2.1270 C.2    34  ASP34       0.2266
     21  O         14.0920   34.8250   -2.8010 O.2    34  ASP34      -0.2867
     22  CB        16.6190   35.8250   -3.5700 C.3    34  ASP34       0.1410
     23  CG        16.0260   36.8590   -4.5310 C.2    34  ASP34       0.3668
     24  OD1       15.5590   37.9170   -4.0900 O.co2  34  ASP34      -0.2456
     25  OD2       16.0590   36.6320   -5.7550 O.co2  34  ASP34      -0.2456
     26  N         12.5880   37.5790   -3.5580 N.3    36  GLY36      -0.1210
     27  CA        12.1020   38.1620   -4.7980 C.3    36  GLY36       0.1956
     28  C         12.2110   37.3060   -6.0430 C.2    36  GLY36       0.2612
     29  O         12.0160   37.8030   -7.1390 O.2    36  GLY36      -0.2717
     30  N         12.5200   36.0270   -5.8870 N.am   37  SER37      -0.1952
     31  CA        12.5850   35.1110   -7.0260 C.3    37  SER37       0.1924
     32  C         12.2340   33.7410   -6.4960 C.2    37  SER37       0.2314
     33  O         12.0830   33.5820   -5.2790 O.2    37  SER37      -0.2863
     34  CB        13.9880   35.1100   -7.6740 C.3    37  SER37       0.2116
     35  OG        14.9680   34.5430   -6.8100 O.3    37  SER37      -0.2180
     36  N         17.5390   39.0870  -17.0310 N.3    73  TYR73      -0.1227
     37  CA        17.0480   40.1710  -16.1920 C.3    73  TYR73       0.1736
     38  C         17.3340   41.4760  -16.9360 C.2    73  TYR73       0.2596
     39  O         17.9000   41.4450  -18.0330 O.2    73  TYR73      -0.2718
     40  CB        17.6990   40.1240  -14.7960 C.3    73  TYR73       0.0548
     41  CG        17.2520   38.9280  -13.9730 C.ar   73  TYR73      -0.0200
     42  CD1       15.9410   38.8420  -13.5050 C.ar   73  TYR73      -0.0009
     43  CD2       18.1270   37.8810  -13.6710 C.ar   73  TYR73      -0.0009
     44  CE1       15.5070   37.7580  -12.7610 C.ar   73  TYR73       0.0417
     45  CE2       17.6970   36.7820  -12.9130 C.ar   73  TYR73       0.0417
     46  CZ        16.3790   36.7310  -12.4680 C.ar   73  TYR73       0.1957
     47  OH        15.9020   35.6640  -11.7280 O.3    73  TYR73      -0.2866
     48  N         16.9340   42.6100  -16.3640 N.am   74  THR74      -0.1939
     49  CA        17.1000   43.9060  -17.0350 C.3    74  THR74       0.2028
     50  C         18.5550   44.1710  -17.4530 C.2    74  THR74       0.2642
     51  O         18.8220   44.6170  -18.5830 O.2    74  THR74      -0.2714
     52  CB        16.5710   45.0690  -16.1730 C.3    74  THR74       0.1808
     53  OG1       15.4100   44.6440  -15.4510 O.3    74  THR74      -0.2208
     54  CG2       16.2070   46.2580  -17.0560 C.3    74  THR74       0.0379
     55  N         19.4820   43.9040  -16.5340 N.am   75  GLN75      -0.1976
     56  CA        20.9060   43.8730  -16.8480 C.3    75  GLN75       0.1601
     57  C         21.4760   42.5470  -16.3430 C.2    75  GLN75       0.2287
     58  O         21.4750   42.2790  -15.1390 O.2    75  GLN75      -0.2864
     59  CB        21.6390   45.0600  -16.2110 C.3    75  GLN75       0.0394
     60  CG        21.2290   46.3740  -16.8490 C.3    75  GLN75       0.0908
     61  CD        21.7030   46.4970  -18.2840 C.2    75  GLN75       0.2608
     62  OE1       22.7760   45.9990  -18.6480 O.2    75  GLN75      -0.2717
     63  NE2       20.9460   47.1530  -19.0820 N.am   75  GLN75      -0.0878
     64  N         21.2740   34.5080  -16.3150 N.3    78  TRP78      -0.1241
     65  CA        21.8970   33.2050  -16.1350 C.3    78  TRP78       0.1605
     66  C         21.1720   32.1550  -16.9560 C.2    78  TRP78       0.2264
     67  O         19.9990   32.3110  -17.3160 O.2    78  TRP78      -0.2867
     68  CB        22.0470   32.8010  -14.6540 C.3    78  TRP78       0.0550
     69  CG        20.7740   32.6070  -13.8740 C.ar   78  TRP78       0.0003
     70  CD1       20.1800   33.5160  -13.0370 C.ar   78  TRP78       0.0946
     71  CD2       19.9650   31.4230  -13.8170 C.ar   78  TRP78       0.0152
     72  NE1       19.0470   32.9700  -12.4730 N.ar   78  TRP78      -0.2442
     73  CE2       18.8930   31.6900  -12.9340 C.ar   78  TRP78       0.0810
     74  CE3       20.0380   30.1640  -14.4300 C.ar   78  TRP78       0.0012
     75  CZ2       17.8980   30.7500  -12.6570 C.ar   78  TRP78       0.0191
     76  CZ3       19.0530   29.2370  -14.1560 C.ar   78  TRP78       0.0001
     77  CH2       17.9890   29.5360  -13.2770 C.ar   78  TRP78       0.0015
     78  N         26.7210   39.3990  -15.5900 N.3   109  LYS109     -0.1231
     79  CA        26.3130   40.3840  -14.5730 C.3   109  LYS109      0.1693
     80  C         25.4230   39.7790  -13.4640 C.2   109  LYS109      0.2592
     81  O         24.5390   40.4560  -12.9130 O.2   109  LYS109     -0.2718
     82  CB        25.6420   41.6040  -15.2300 C.3   109  LYS109      0.0285
     83  CG        26.5760   42.4940  -16.0680 C.3   109  LYS109      0.0035
     84  CD        25.7500   43.4490  -16.9500 C.3   109  LYS109      0.0206
     85  CE        26.5140   44.7130  -17.3370 C.3   109  LYS109      0.1093
     86  NZ        27.5610   44.4350  -18.3630 N.3   109  LYS109     -0.1314
     87  N         25.6660   38.5090  -13.1470 N.am  110  PHE110     -0.1976
     88  CA        24.8600   37.7810  -12.1630 C.3   110  PHE110      0.1639
     89  C         25.6700   37.5660  -10.8900 C.2   110  PHE110      0.2290
     90  O         25.3240   38.0850   -9.8340 O.2   110  PHE110     -0.2864
     91  CB        24.3600   36.4520  -12.7420 C.3   110  PHE110      0.0560
     92  CG        23.5730   35.6100  -11.7750 C.ar  110  PHE110     -0.0200
     93  CD1       22.2810   35.9740  -11.3950 C.ar  110  PHE110     -0.0042
     94  CD2       24.1250   34.4370  -11.2470 C.ar  110  PHE110     -0.0042
     95  CE1       21.5460   35.1820  -10.5130 C.ar  110  PHE110     -0.0003
     96  CE2       23.3960   33.6360  -10.3640 C.ar  110  PHE110     -0.0003
     97  CZ        22.1030   34.0030  -10.0040 C.ar  110  PHE110     -0.0000
     98  N         28.7680   38.2870   -8.4590 N.3   112  ILE112     -0.1245
     99  CA        29.4450   39.5300   -8.1010 C.3   112  ILE112      0.1561
    100  C         30.9270   39.2400   -7.8730 C.2   112  ILE112      0.2260
    101  O         31.2690   38.3330   -7.1120 O.2   112  ILE112     -0.2867
    102  CB        28.8060   40.1560   -6.8270 C.3   112  ILE112      0.0252
    103  CG1       27.2910   40.3360   -7.0320 C.3   112  ILE112      0.0019
    104  CG2       29.5010   41.4720   -6.4530 C.3   112  ILE112      0.0019
    105  CD1       26.5030   40.8500   -5.7960 C.3   112  ILE112      0.0001
    106  N         29.2170   34.3340   -2.1320 N.3   117  TRP117     -0.1241
    107  CA        28.1230   33.4070   -2.4360 C.3   117  TRP117      0.1605
    108  C         28.2270   32.8900   -3.8680 C.2   117  TRP117      0.2264
    109  O         28.8330   33.5350   -4.7150 O.2   117  TRP117     -0.2867
    110  CB        26.7440   34.0290   -2.1550 C.3   117  TRP117      0.0550
    111  CG        26.4050   35.3220   -2.8970 C.ar  117  TRP117      0.0003
    112  CD1       26.5160   36.5880   -2.4050 C.ar  117  TRP117      0.0946
    113  CD2       25.8550   35.4550   -4.2270 C.ar  117  TRP117      0.0152
    114  NE1       26.0960   37.5020   -3.3470 N.ar  117  TRP117     -0.2442
    115  CE2       25.6860   36.8370   -4.4720 C.ar  117  TRP117      0.0810
    116  CE3       25.5110   34.5400   -5.2420 C.ar  117  TRP117      0.0012
    117  CZ2       25.1750   37.3370   -5.6920 C.ar  117  TRP117      0.0191
    118  CZ3       25.0110   35.0350   -6.4550 C.ar  117  TRP117      0.0001
    119  CH2       24.8470   36.4250   -6.6660 C.ar  117  TRP117      0.0015
    120  N         21.7330   31.1510   -5.6500 N.3   120  ILE120     -0.1245
    121  CA        20.5950   31.9310   -5.1530 C.3   120  ILE120      0.1561
    122  C         19.4880   30.9870   -4.7060 C.2   120  ILE120      0.2260
    123  O         19.2040   29.9930   -5.3950 O.2   120  ILE120     -0.2867
    124  CB        20.0680   32.9680   -6.2040 C.3   120  ILE120      0.0252
    125  CG1       18.9800   33.8650   -5.6160 C.3   120  ILE120      0.0019
    126  CG2       19.6410   32.2920   -7.5260 C.3   120  ILE120      0.0019
    127  CD1       18.7100   35.0670   -6.4840 C.3   120  ILE120      0.0001
    128  N         11.3010   42.0380   -0.7210 N.3   217  ASP217     -0.1239
    129  CA        12.3880   41.4280   -1.5090 C.3   217  ASP217      0.1674
    130  C         13.7710   41.5290   -0.8420 C.2   217  ASP217      0.2266
    131  O         14.4430   42.5380   -0.9510 O.2   217  ASP217     -0.2867
    132  CB        12.4190   42.0860   -2.8960 C.3   217  ASP217      0.1410
    133  CG        13.3720   41.4030   -3.8570 C.2   217  ASP217      0.3668
    134  OD1       13.9800   40.3710   -3.4880 O.co2 217  ASP217     -0.2456
    135  OD2       13.5020   41.9110   -4.9980 O.co2 217  ASP217     -0.2456
    136  N         16.3760   40.2430   -1.8010 N.3   219  GLY219     -0.1210
    137  CA        17.4080   40.2160   -2.8520 C.3   219  GLY219      0.1956
    138  C         17.6730   41.5630   -3.5030 C.2   219  GLY219      0.2612
    139  O         18.5000   41.6650   -4.4200 O.2   219  GLY219     -0.2717
    140  N         16.9630   42.5890   -3.0320 N.am  220  THR220     -0.1952
    141  CA        17.1310   43.9740   -3.4840 C.3   220  THR220      0.1897
    142  C         17.6290   44.8130   -2.3230 C.2   220  THR220      0.2313
    143  O         17.1570   44.6810   -1.1980 O.2   220  THR220     -0.2863
    144  CB        15.8010   44.5630   -4.0350 C.3   220  THR220      0.1794
    145  OG1       15.3940   43.7980   -5.1630 O.3   220  THR220     -0.2208
    146  CG2       15.9520   46.0340   -4.4660 C.3   220  THR220      0.0378
    147  N         12.6930   50.7360   -3.5160 N.3   224  ARG224     -0.1245
    148  CA        12.3990   51.2140   -4.8550 C.3   224  ARG224      0.1563
    149  C         10.9290   51.6390   -4.8880 C.2   224  ARG224      0.2260
    150  O         10.0770   50.9510   -4.3310 O.2   224  ARG224     -0.2867
    151  CB        12.6840   50.1230   -5.8830 C.3   224  ARG224      0.0307
    152  CG        14.1220   49.5550   -5.8140 C.3   224  ARG224      0.0489
    153  CD        14.3440   48.5110   -6.8870 C.3   224  ARG224      0.2205
    154  NE        14.2240   49.0960   -8.2220 N.pl3 224  ARG224     -0.0865
    155  CZ        13.7010   48.4780   -9.2770 C.cat 224  ARG224      0.5346
    156  NH1       13.2370   47.2390   -9.1720 N.pl3 224  ARG224      0.1354
    157  NH2       13.6350   49.1050  -10.4480 N.pl3 224  ARG224      0.1354
@<TRIPOS>BOND
     1    63    61   am
     2    62    61    2
     3    51    50    2
     4    86    85    1
     5    61    60    1
     6    39    38    2
     7    50    49    1
     8    50    55   am
     9    85    84    1
    10    67    66    2
    11    54    52    1
    12    49    48    1
    13    49    52    1
    14    36    37    1
    15    66    65    1
    16    84    83    1
    17    38    48   am
    18    38    37    1
    19    60    59    1
    20    56    55    1
    21    56    57    1
    22    56    59    1
    23    57    58    2
    24    64    65    1
    25    37    40    1
    26    52    53    1
    27    65    68    1
    28    83    82    1
    29    78    79    1
    30    82    79    1
    31    40    41    1
    32    68    69    1
    33    79    80    1
    34    74    76   ar
    35    74    71   ar
    36    76    77   ar
    37    41    43   ar
    38    41    42   ar
    39    69    71   ar
    40    69    70   ar
    41    71    73   ar
    42    43    45   ar
    43    42    44   ar
    44    80    87   am
    45    80    81    2
    46    77    75   ar
    47    87    88    1
    48    70    72   ar
    49    73    75   ar
    50    73    72   ar
    51    45    46   ar
    52    44    46   ar
    53    91    88    1
    54    91    92    1
    55    46    47    1
    56    88    89    1
    57    92    93   ar
    58    92    94   ar
    59    93    95   ar
    60    94    96   ar
    61    89    90    2
    62    95    97   ar
    63   157   155    1
    64    96    97   ar
    65   155   156    1
    66   155   154    2
    67    98    99    1
    68   154   153    1
    69    99   100    1
    70    99   102    1
    71   100   101    2
    72    34    31    1
    73    34    35    1
    74   126   124    1
    75    29    28    2
    76   103   102    1
    77   103   105    1
    78    31    32    1
    79    31    30    1
    80   153   152    1
    81   102   104    1
    82   119   118   ar
    83   119   117   ar
    84    32    33    2
    85   127   125    1
    86   118   116   ar
    87   124   125    1
    88   124   121    1
    89    28    30   am
    90    28    27    1
    91   151   152    1
    92   151   148    1
    93    25    23   ar
    94   117   115   ar
    95   120   121    1
    96   123   122    2
    97   116   113   ar
    98   145   144    1
    99   121   122    1
   100   135   133   ar
   101   149   148    1
   102   149   150    2
   103   148   147    1
   104    27    26    1
   105   109   108    2
   106    23    24   ar
   107    23    22    1
   108   115   113   ar
   109   115   114   ar
   110   146   144    1
   111   139   138    2
   112   113   111   ar
   113   144   141    1
   114   108   107    1
   115   133   134   ar
   116   133   132    1
   117    17    15    1
   118    22    19    1
   119   138   140   am
   120   138   137    1
   121   141   140    1
   122   141   142    1
   123   114   112   ar
   124     9     7   am
   125   111   112   ar
   126   111   110    1
   127   132   129    1
   128   137   136    1
   129    21    20    2
   130    14    15    1
   131    14    11    1
   132    16    15    1
   133     6     7    1
   134     6     5    1
   135   107   110    1
   136   107   106    1
   137   142   143    2
   138     7     8    2
   139    19    20    1
   140    19    18    1
   141     4     3    2
   142    13    12    2
   143     2     5    1
   144     2     3    1
   145     2     1    1
   146    10    11    1
   147   129   130    1
   148   129   128    1
   149    11    12    1
   150   131   130    2
