@<TRIPOS>MOLECULE
tmp/5kqgA00.pdb
 141 140 0 0 0
SMALL
GASTEIGER

@<TRIPOS>ATOM
      1  N         -4.9150    8.9560   -8.0590 N.3     9  CYS9       -0.1221
      2  CA        -5.3200    8.7720   -6.6610 C.3     9  CYS9        0.1808
      3  C         -5.4990   10.1530   -6.0350 C.2     9  CYS9        0.2601
      4  O         -5.5890   11.1500   -6.7560 O.2     9  CYS9       -0.2717
      5  CB        -4.3190    7.8870   -5.8910 C.3     9  CYS9        0.0970
      6  SG        -2.6350    8.5740   -5.7370 S.3     9  CYS9       -0.0800
      7  N         -5.6320   10.2210   -4.7110 N.am   10  LEU10      -0.1965
      8  CA        -5.8970   11.4960   -4.0560 C.3    10  LEU10       0.1728
      9  C         -4.6870   12.4220   -4.0520 C.2    10  LEU10       0.2617
     10  O         -4.7920   13.5930   -4.4050 O.2    10  LEU10      -0.2715
     11  CB        -6.3580   11.2470   -2.6060 C.3    10  LEU10       0.0311
     12  CG        -6.5500   12.5040   -1.7450 C.3    10  LEU10       0.0022
     13  CD1       -7.6830   13.3570   -2.2890 C.3    10  LEU10       0.0001
     14  CD2       -6.8310   12.1230   -0.3010 C.3    10  LEU10       0.0001
     15  N         -3.5470   11.8940   -3.6190 N.am   11  GLY11      -0.1940
     16  CA        -2.3440   12.7090   -3.5150 C.3    11  GLY11       0.2014
     17  C         -1.2990   12.5470   -4.6040 C.2    11  GLY11       0.2639
     18  O         -0.4690   13.4410   -4.7720 O.2    11  GLY11      -0.2714
     19  N         -1.3450   11.4330   -5.3360 N.am   12  ASN12      -0.1958
     20  CA        -0.3460   11.1050   -6.3670 C.3    12  ASN12       0.1819
     21  C          1.0400   10.9460   -5.7400 C.2    12  ASN12       0.2621
     22  O          2.0580   11.2370   -6.3770 O.2    12  ASN12      -0.2715
     23  CB        -0.3650   12.1430   -7.5110 C.3    12  ASN12       0.1195
     24  CG         0.5230   11.7570   -8.7050 C.2    12  ASN12       0.2630
     25  OD1        1.1680   12.6220   -9.3040 O.2    12  ASN12      -0.2716
     26  ND2        0.5270   10.4750   -9.0780 N.am   12  ASN12      -0.0877
     27  N          1.0680   10.4850   -4.4870 N.am   13  ILE13      -0.1963
     28  CA         2.3350   10.0820   -3.8760 C.3    13  ILE13       0.1727
     29  C          2.3850    8.6340   -3.3990 C.2    13  ILE13       0.2616
     30  O          3.4190    8.1960   -2.8800 O.2    13  ILE13      -0.2715
     31  CB         2.8290   11.0420   -2.7510 C.3    13  ILE13       0.0290
     32  CG1        1.8430   11.0840   -1.5850 C.3    13  ILE13       0.0022
     33  CG2        3.0640   12.4240   -3.3110 C.3    13  ILE13       0.0023
     34  CD1        2.4520   11.6950   -0.2840 C.3    13  ILE13       0.0001
     35  N          1.3080    7.8720   -3.5880 N.am   14  CYS14      -0.1954
     36  CA         1.3730    6.4590   -3.2430 C.3    14  CYS14       0.1843
     37  C          0.6560    5.5410   -4.2280 C.2    14  CYS14       0.2625
     38  O          1.3150    4.8890   -5.0410 O.2    14  CYS14      -0.2714
     39  CB         0.8920    6.2150   -1.8080 C.3    14  CYS14       0.0997
     40  SG         1.0020    4.4780   -1.3450 S.3    14  CYS14      -0.0797
     41  N         -0.6700    5.4930   -4.1770 N.am   15  ARG15      -0.1977
     42  CA        -1.3830    4.4960   -4.9750 C.3    15  ARG15       0.1597
     43  C         -1.1200    4.6450   -6.4710 C.2    15  ARG15       0.2287
     44  O         -0.7770    3.6640   -7.1500 O.2    15  ARG15      -0.2864
     45  CB        -2.8860    4.5100   -4.6750 C.3    15  ARG15       0.0334
     46  CG        -3.2300    3.9540   -3.2910 C.3    15  ARG15       0.0492
     47  CD        -4.6730    4.2520   -2.9300 C.3    15  ARG15       0.2205
     48  NE        -4.8880    5.6850   -2.7100 N.pl3  15  ARG15      -0.0865
     49  CZ        -6.0780    6.2560   -2.5760 C.cat  15  ARG15       0.5346
     50  NH1       -7.1840    5.5180   -2.6340 N.pl3  15  ARG15       0.1354
     51  NH2       -6.1580    7.5690   -2.3800 N.pl3  15  ARG15       0.1354
     52  N         -2.8680   18.4850   -2.5520 N.3    46  TYR46      -0.1227
     53  CA        -2.1860   18.3260   -1.2650 C.3    46  TYR46       0.1736
     54  C         -0.6810   18.1060   -1.3740 C.2    46  TYR46       0.2595
     55  O          0.0700   18.5130   -0.4780 O.2    46  TYR46      -0.2718
     56  CB        -2.7740   17.1660   -0.4590 C.3    46  TYR46       0.0548
     57  CG        -3.9790   17.5030    0.4010 C.ar   46  TYR46      -0.0200
     58  CD1       -3.8470   18.2990    1.5300 C.ar   46  TYR46      -0.0009
     59  CD2       -5.2360   16.9900    0.1010 C.ar   46  TYR46      -0.0009
     60  CE1       -4.9340   18.5820    2.3340 C.ar   46  TYR46       0.0417
     61  CE2       -6.3390   17.2710    0.8980 C.ar   46  TYR46       0.0417
     62  CZ        -6.1750   18.0770    2.0050 C.ar   46  TYR46       0.1957
     63  OH        -7.2460   18.3670    2.8250 O.3    46  TYR46      -0.2866
     64  N         -0.2380   17.4320   -2.4320 N.am   47  GLU47      -0.1979
     65  CA         1.1500   16.9790   -2.5080 C.3    47  GLU47       0.1602
     66  C          1.9100   17.4310   -3.7470 C.2    47  GLU47       0.2287
     67  O          2.9950   16.9070   -4.0270 O.2    47  GLU47      -0.2864
     68  CB         1.2060   15.4470   -2.4690 C.3    47  GLU47       0.0415
     69  CG         0.9460   14.8400   -1.1210 C.3    47  GLU47       0.1163
     70  CD         2.0580   15.1450   -0.1310 C.2    47  GLU47       0.3649
     71  OE1        3.2440   15.2070   -0.5330 O.co2  47  GLU47      -0.2457
     72  OE2        1.7430   15.3350    1.0390 O.co2  47  GLU47      -0.2457
     73  N          5.6350    8.7370   -1.4040 N.3    53  ASP53      -0.1239
     74  CA         5.8640    8.5390    0.0180 C.3    53  ASP53       0.1674
     75  C          6.8650    7.4080    0.2290 C.2    53  ASP53       0.2266
     76  O          6.7510    6.3510   -0.3990 O.2    53  ASP53      -0.2867
     77  CB         4.5680    8.2150    0.7330 C.3    53  ASP53       0.1410
     78  CG         4.7030    8.3580    2.2230 C.2    53  ASP53       0.3668
     79  OD1        5.1670    7.3890    2.8680 O.co2  53  ASP53      -0.2456
     80  OD2        4.3640    9.4470    2.7260 O.co2  53  ASP53      -0.2456
     81  N          7.1540    5.2540    2.4830 N.3    55  ARG55      -0.1245
     82  CA         6.5350    3.9860    2.8860 C.3    55  ARG55       0.1563
     83  C          6.1740    3.1470    1.6660 C.2    55  ARG55       0.2260
     84  O          6.3060    1.9190    1.6790 O.2    55  ARG55      -0.2867
     85  CB         5.3030    4.2180    3.7560 C.3    55  ARG55       0.0307
     86  CG         5.6760    4.7640    5.1320 C.3    55  ARG55       0.0489
     87  CD         4.4530    4.9540    5.9880 C.3    55  ARG55       0.2205
     88  NE         3.6620    6.0980    5.5520 N.pl3  55  ARG55      -0.0865
     89  CZ         2.3760    6.2710    5.8450 C.cat  55  ARG55       0.5346
     90  NH1        1.7200    5.3590    6.5550 N.pl3  55  ARG55       0.1354
     91  NH2        1.7460    7.3500    5.4130 N.pl3  55  ARG55       0.1354
     92  N         -6.9060    3.9740    0.4150 N.3   126  ASP126     -0.1225
     93  CA        -5.8090    4.8560    0.7890 C.3   126  ASP126      0.1790
     94  C         -5.0930    4.3080    2.0240 C.2   126  ASP126      0.2440
     95  O         -5.6950    4.2300    3.1010 O.2   126  ASP126     -0.2733
     96  CB        -6.3980    6.2320    1.0940 C.3   126  ASP126      0.1423
     97  CG        -5.3400    7.2840    1.3660 C.2   126  ASP126      0.3668
     98  OD1       -4.1650    6.9140    1.5440 O.co2 126  ASP126     -0.2456
     99  OD2       -5.7120    8.4760    1.3720 O.co2 126  ASP126     -0.2456
    100  N         -3.8090    3.9300    1.8860 N.am  127  PRO127     -0.2718
    101  CA        -3.0660    3.3760    3.0340 C.3   127  PRO127      0.1535
    102  C         -2.3890    4.4290    3.9110 C.2   127  PRO127      0.2599
    103  O         -1.5520    4.0610    4.7550 O.2   127  PRO127     -0.2715
    104  CB        -2.0060    2.5040    2.3640 C.3   127  PRO127      0.0310
    105  CG        -1.7090    3.2540    1.0670 C.3   127  PRO127      0.0237
    106  CD        -3.0300    3.8640    0.6310 C.3   127  PRO127      0.0939
    107  N         -2.7370    5.7020    3.7430 N.am  128  TYR128     -0.1960
    108  CA        -2.0560    6.7600    4.4880 C.3   128  TYR128      0.1771
    109  C         -1.9780    6.4970    6.0030 C.2   128  TYR128      0.2619
    110  O         -0.9180    6.6640    6.6100 O.2   128  TYR128     -0.2715
    111  CB        -2.6360    8.1660    4.2140 C.3   128  TYR128      0.0574
    112  CG        -1.7840    9.1900    4.9370 C.ar  128  TYR128     -0.0198
    113  CD1       -0.5460    9.5630    4.4250 C.ar  128  TYR128     -0.0009
    114  CD2       -2.1650    9.7030    6.1730 C.ar  128  TYR128     -0.0009
    115  CE1        0.2900   10.4530    5.1040 C.ar  128  TYR128      0.0417
    116  CE2       -1.3290   10.6000    6.8660 C.ar  128  TYR128      0.0417
    117  CZ        -0.1090   10.9620    6.3240 C.ar  128  TYR128      0.1957
    118  OH         0.7340   11.8350    6.9940 O.3   128  TYR128     -0.2866
    119  N         -3.0960    6.0910    6.6000 N.am  129  TYR129     -0.1974
    120  CA        -3.1450    5.8450    8.0440 C.3   129  TYR129      0.1639
    121  C         -3.0450    4.3520    8.3430 C.2   129  TYR129      0.2290
    122  O         -3.3840    3.9000    9.4420 O.2   129  TYR129     -0.2864
    123  CB        -4.4170    6.4610    8.6510 C.3   129  TYR129      0.0560
    124  CG        -4.3240    7.9560    8.8130 C.ar  129  TYR129     -0.0198
    125  CD1       -3.3680    8.5180    9.6560 C.ar  129  TYR129     -0.0009
    126  CD2       -5.1810    8.8190    8.1250 C.ar  129  TYR129     -0.0009
    127  CE1       -3.2620    9.8850    9.8060 C.ar  129  TYR129      0.0417
    128  CE2       -5.0860   10.1890    8.2790 C.ar  129  TYR129      0.0417
    129  CZ        -4.1180   10.7180    9.1220 C.ar  129  TYR129      0.1957
    130  OH        -3.9960   12.0840    9.2860 O.3   129  TYR129     -0.2866
    131  N          0.1290   -1.2600    2.6030 N.3   135  PHE135     -0.1241
    132  CA         0.8980   -0.8830    1.4170 C.3   135  PHE135      0.1605
    133  C          1.1220   -2.1070    0.5320 C.2   135  PHE135      0.2264
    134  O          0.9770   -2.0430   -0.6990 O.2   135  PHE135     -0.2867
    135  CB         2.2300   -0.2360    1.8180 C.3   135  PHE135      0.0534
    136  CG         2.0810    1.1670    2.3530 C.ar  135  PHE135     -0.0203
    137  CD1        1.6840    1.3890    3.6630 C.ar  135  PHE135     -0.0042
    138  CD2        2.2990    2.2630    1.5350 C.ar  135  PHE135     -0.0042
    139  CE1        1.5260    2.6700    4.1420 C.ar  135  PHE135     -0.0003
    140  CE2        2.1410    3.5530    2.0110 C.ar  135  PHE135     -0.0003
    141  CZ         1.7540    3.7580    3.3140 C.ar  135  PHE135     -0.0000
@<TRIPOS>BOND
     1    25    24    2
     2    26    24   am
     3    24    23    1
     4     1     2    1
     5    23    20    1
     6    44    43    2
     7     4     3    2
     8     2     3    1
     9     2     5    1
    10    43    42    1
    11    22    21    2
    12    20    21    1
    13    20    19    1
    14     3     7   am
    15     5     6    1
    16    21    27   am
    17    19    17   am
    18    38    37    2
    19    42    45    1
    20    42    41    1
    21    18    17    2
    22     7     8    1
    23    45    46    1
    24    17    16    1
    25    27    28    1
    26    10     9    2
    27    37    41   am
    28    37    36    1
    29     8     9    1
    30     8    11    1
    31     9    15   am
    32    67    66    2
    33    28    29    1
    34    28    31    1
    35    66    65    1
    36    15    16    1
    37    35    29   am
    38    35    36    1
    39    29    30    2
    40    33    31    1
    41    46    47    1
    42    36    39    1
    43    47    48    1
    44    31    32    1
    45    48    49    2
    46    50    49    1
    47    11    12    1
    48    49    51    1
    49    52    53    1
    50    65    68    1
    51    65    64    1
    52    68    69    1
    53    64    54   am
    54    13    12    1
    55    39    40    1
    56    12    14    1
    57    32    34    1
    58    73    74    1
    59    54    53    1
    60    54    55    2
    61    53    56    1
    62    69    70    1
    63   134   133    2
    64    71    70   ar
    65    56    57    1
    66    76    75    2
    67    70    72   ar
    68    74    75    1
    69    74    77    1
    70    59    57   ar
    71    59    61   ar
    72    57    58   ar
    73    92    93    1
    74   133   132    1
    75   106   105    1
    76   106   100    1
    77    77    78    1
    78    93    96    1
    79    93    94    1
    80    61    62   ar
    81   105   104    1
    82    96    97    1
    83    97    99   ar
    84    97    98   ar
    85   132   135    1
    86   132   131    1
    87    58    60   ar
    88   138   140   ar
    89   138   136   ar
    90    83    84    2
    91    83    82    1
    92   135   136    1
    93   100    94   am
    94   100   101    1
    95    62    60   ar
    96    62    63    1
    97   140   141   ar
    98    94    95    2
    99    78    80   ar
   100    78    79   ar
   101   136   137   ar
   102   104   101    1
   103    81    82    1
   104    82    85    1
   105   101   102    1
   106   141   139   ar
   107   137   139   ar
   108   107   102   am
   109   107   108    1
   110    85    86    1
   111   102   103    2
   112   111   108    1
   113   111   112    1
   114   113   112   ar
   115   113   115   ar
   116   108   109    1
   117   112   114   ar
   118   115   117   ar
   119    86    87    1
   120    91    89    1
   121    88    89    2
   122    88    87    1
   123    89    90    1
   124   109   119   am
   125   109   110    2
   126   114   116   ar
   127   117   116   ar
   128   117   118    1
   129   119   120    1
   130   120   121    1
   131   120   123    1
   132   126   128   ar
   133   126   124   ar
   134   128   129   ar
   135   121   122    2
   136   123   124    1
   137   124   125   ar
   138   129   130    1
   139   129   127   ar
   140   125   127   ar
