@<TRIPOS>MOLECULE
tmp/5kqlA00.pdb
 141 140 0 0 0
SMALL
GASTEIGER

@<TRIPOS>ATOM
      1  N          4.8740    9.2890    8.1960 N.3     9  CYS9       -0.1221
      2  CA         5.3130    9.1350    6.8080 C.3     9  CYS9        0.1808
      3  C          5.4640   10.5110    6.1740 C.2     9  CYS9        0.2601
      4  O          5.4620   11.5260    6.8840 O.2     9  CYS9       -0.2717
      5  CB         4.3510    8.2330    6.0140 C.3     9  CYS9        0.0970
      6  SG         2.6500    8.8410    5.8310 S.3     9  CYS9       -0.0800
      7  N          5.6240   10.5620    4.8580 N.am   10  LEU10      -0.1965
      8  CA         5.8910   11.8360    4.1970 C.3    10  LEU10       0.1728
      9  C          4.6680   12.7500    4.1530 C.2    10  LEU10       0.2617
     10  O          4.7520   13.9190    4.5110 O.2    10  LEU10      -0.2715
     11  CB         6.3990   11.5970    2.7760 C.3    10  LEU10       0.0311
     12  CG         6.6090   12.8720    1.9550 C.3    10  LEU10       0.0022
     13  CD1        7.7400   13.7020    2.5340 C.3    10  LEU10       0.0001
     14  CD2        6.9000   12.4970    0.5130 C.3    10  LEU10       0.0001
     15  N          3.5250   12.2050    3.7300 N.am   11  GLY11      -0.1940
     16  CA         2.3180   13.0000    3.5910 C.3    11  GLY11       0.2014
     17  C          1.2850   12.8390    4.6920 C.2    11  GLY11       0.2639
     18  O          0.4280   13.7030    4.8430 O.2    11  GLY11      -0.2714
     19  N          1.3540   11.7360    5.4460 N.am   12  ASN12      -0.1958
     20  CA         0.3280   11.3920    6.4430 C.3    12  ASN12       0.1819
     21  C         -1.0650   11.2260    5.8250 C.2    12  ASN12       0.2621
     22  O         -2.0730   11.5290    6.4590 O.2    12  ASN12      -0.2715
     23  CB         0.3200   12.4230    7.5860 C.3    12  ASN12       0.1195
     24  CG        -0.5800   12.0290    8.7730 C.2    12  ASN12       0.2630
     25  OD1       -1.2620   12.8880    9.3350 O.2    12  ASN12      -0.2716
     26  ND2       -0.5540   10.7640    9.1740 N.am   12  ASN12      -0.0877
     27  N         -1.1060   10.7220    4.5920 N.am   13  ILE13      -0.1963
     28  CA        -2.3760   10.2980    3.9990 C.3    13  ILE13       0.1727
     29  C         -2.3780    8.8450    3.5490 C.2    13  ILE13       0.2616
     30  O         -3.4210    8.3420    3.1370 O.2    13  ILE13      -0.2715
     31  CB        -2.8850   11.2290    2.8540 C.3    13  ILE13       0.0290
     32  CG1       -1.9380   11.2070    1.6550 C.3    13  ILE13       0.0022
     33  CG2       -3.1320   12.6390    3.3760 C.3    13  ILE13       0.0023
     34  CD1       -2.5400   11.8890    0.4230 C.3    13  ILE13       0.0001
     35  N         -1.2460    8.1550    3.6340 N.am   14  CYS14      -0.1954
     36  CA        -1.2720    6.7400    3.3130 C.3    14  CYS14       0.1843
     37  C         -0.5700    5.8380    4.3220 C.2    14  CYS14       0.2625
     38  O         -1.2380    5.1820    5.1160 O.2    14  CYS14      -0.2714
     39  CB        -0.7710    6.4760    1.8930 C.3    14  CYS14       0.0997
     40  SG        -0.8900    4.7200    1.4350 S.3    14  CYS14      -0.0797
     41  N          0.7600    5.7880    4.2880 N.am   15  ARG15      -0.1977
     42  CA         1.4560    4.7750    5.0720 C.3    15  ARG15       0.1597
     43  C          1.1730    4.9260    6.5650 C.2    15  ARG15       0.2287
     44  O          0.8020    3.9450    7.2260 O.2    15  ARG15      -0.2864
     45  CB         2.9560    4.7980    4.7830 C.3    15  ARG15       0.0334
     46  CG         3.3060    4.2710    3.3930 C.3    15  ARG15       0.0492
     47  CD         4.7510    4.5570    3.0450 C.3    15  ARG15       0.2205
     48  NE         4.9500    5.9890    2.8350 N.pl3  15  ARG15      -0.0865
     49  CZ         6.1340    6.5850    2.7270 C.cat  15  ARG15       0.5346
     50  NH1        7.2600    5.8840    2.8080 N.pl3  15  ARG15       0.1354
     51  NH2        6.1900    7.8990    2.5500 N.pl3  15  ARG15       0.1354
     52  N          2.8150   18.7050    2.6220 N.3    46  TYR46      -0.1227
     53  CA         2.1550   18.5050    1.3330 C.3    46  TYR46       0.1736
     54  C          0.6470   18.2900    1.4180 C.2    46  TYR46       0.2595
     55  O         -0.0780   18.6930    0.5030 O.2    46  TYR46      -0.2718
     56  CB         2.7570   17.3020    0.6070 C.3    46  TYR46       0.0548
     57  CG         3.9040   17.6110   -0.3300 C.ar   46  TYR46      -0.0200
     58  CD1        3.6820   18.2750   -1.5330 C.ar   46  TYR46      -0.0009
     59  CD2        5.2010   17.1970   -0.0320 C.ar   46  TYR46      -0.0009
     60  CE1        4.7180   18.5290   -2.4100 C.ar   46  TYR46       0.0417
     61  CE2        6.2500   17.4580   -0.9170 C.ar   46  TYR46       0.0417
     62  CZ         5.9940   18.1240   -2.0960 C.ar   46  TYR46       0.1957
     63  OH         7.0050   18.3860   -2.9960 O.3    46  TYR46      -0.2866
     64  N          0.1770   17.6210    2.4710 N.am   47  GLU47      -0.1979
     65  CA        -1.2080   17.1410    2.4810 C.3    47  GLU47       0.1602
     66  C         -2.0000   17.5740    3.7110 C.2    47  GLU47       0.2287
     67  O         -3.0830   17.0430    3.9800 O.2    47  GLU47      -0.2864
     68  CB        -1.2240   15.6100    2.3910 C.3    47  GLU47       0.0415
     69  CG        -0.7600   15.0650    1.0440 C.3    47  GLU47       0.1163
     70  CD        -1.7940   15.2680   -0.0590 C.2    47  GLU47       0.3649
     71  OE1       -2.9930   15.3920    0.2620 O.co2  47  GLU47      -0.2457
     72  OE2       -1.4020   15.2830   -1.2380 O.co2  47  GLU47      -0.2457
     73  N         -5.5910    8.8410    1.5850 N.3    53  ASP53      -0.1239
     74  CA        -5.7850    8.6320    0.1630 C.3    53  ASP53       0.1674
     75  C         -6.7740    7.4910   -0.0720 C.2    53  ASP53       0.2266
     76  O         -6.6850    6.4470    0.5660 O.2    53  ASP53      -0.2867
     77  CB        -4.4640    8.3530   -0.5400 C.3    53  ASP53       0.1410
     78  CG        -4.5950    8.4600   -2.0320 C.2    53  ASP53       0.3668
     79  OD1       -5.1110    7.4980   -2.6580 O.co2  53  ASP53      -0.2456
     80  OD2       -4.2270    9.5280   -2.5710 O.co2  53  ASP53      -0.2456
     81  N         -7.0140    5.3530   -2.3650 N.3    55  ARG55      -0.1245
     82  CA        -6.3880    4.1000   -2.7730 C.3    55  ARG55       0.1563
     83  C         -6.0250    3.2610   -1.5390 C.2    55  ARG55       0.2260
     84  O         -6.1210    2.0280   -1.5570 O.2    55  ARG55      -0.2867
     85  CB        -5.1610    4.3510   -3.6540 C.3    55  ARG55       0.0307
     86  CG        -5.5240    4.8290   -5.0600 C.3    55  ARG55       0.0489
     87  CD        -4.2740    5.0020   -5.9140 C.3    55  ARG55       0.2205
     88  NE        -3.5030    6.1750   -5.5290 N.pl3  55  ARG55      -0.0865
     89  CZ        -2.2170    6.3660   -5.8230 C.cat  55  ARG55       0.5346
     90  NH1       -1.5400    5.4400   -6.4860 N.pl3  55  ARG55       0.1354
     91  NH2       -1.6090    7.4740   -5.4270 N.pl3  55  ARG55       0.1354
     92  N          6.9820    4.2820   -0.2370 N.3   126  ASP126     -0.1225
     93  CA         5.8820    5.1630   -0.6310 C.3   126  ASP126      0.1790
     94  C          5.1860    4.6000   -1.8730 C.2   126  ASP126      0.2440
     95  O          5.8020    4.5280   -2.9470 O.2   126  ASP126     -0.2733
     96  CB         6.4620    6.5510   -0.9280 C.3   126  ASP126      0.1423
     97  CG         5.4080    7.5770   -1.2740 C.2   126  ASP126      0.3668
     98  OD1        4.2350    7.1910   -1.4500 O.co2 126  ASP126     -0.2456
     99  OD2        5.7650    8.7720   -1.3910 O.co2 126  ASP126     -0.2456
    100  N          3.9090    4.1890   -1.7450 N.am  127  PRO127     -0.2718
    101  CA         3.1800    3.6110   -2.8870 C.3   127  PRO127      0.1535
    102  C          2.5130    4.6430   -3.8070 C.2   127  PRO127      0.2599
    103  O          1.7340    4.2280   -4.6850 O.2   127  PRO127     -0.2715
    104  CB         2.1080    2.7560   -2.2160 C.3   127  PRO127      0.0310
    105  CG         1.7840    3.5330   -0.9390 C.3   127  PRO127      0.0237
    106  CD         3.1090    4.1630   -0.5010 C.3   127  PRO127      0.0939
    107  N          2.7850    5.9380   -3.6260 N.am  128  TYR128     -0.1960
    108  CA         2.0950    6.9730   -4.4070 C.3   128  TYR128      0.1771
    109  C          2.1200    6.7100   -5.9130 C.2   128  TYR128      0.2619
    110  O          1.0950    6.8230   -6.5900 O.2   128  TYR128     -0.2715
    111  CB         2.6290    8.3850   -4.1140 C.3   128  TYR128      0.0574
    112  CG         1.7770    9.4500   -4.7750 C.ar  128  TYR128     -0.0198
    113  CD1        0.6070    9.8850   -4.1740 C.ar  128  TYR128     -0.0009
    114  CD2        2.1130    9.9730   -6.0140 C.ar  128  TYR128     -0.0009
    115  CE1       -0.2000   10.8430   -4.7730 C.ar  128  TYR128      0.0417
    116  CE2        1.3100   10.9320   -6.6240 C.ar  128  TYR128      0.0417
    117  CZ         0.1560   11.3490   -5.9980 C.ar  128  TYR128      0.1957
    118  OH        -0.6350   12.2930   -6.6100 O.3   128  TYR128     -0.2866
    119  N          3.2910    6.3660   -6.4400 N.am  129  TYR129     -0.1974
    120  CA         3.4240    6.1370   -7.8790 C.3   129  TYR129      0.1639
    121  C          3.3360    4.6590   -8.2310 C.2   129  TYR129      0.2290
    122  O          3.7450    4.2470   -9.3140 O.2   129  TYR129     -0.2864
    123  CB         4.7220    6.7740   -8.4230 C.3   129  TYR129      0.0560
    124  CG         4.6480    8.2940   -8.4550 C.ar  129  TYR129     -0.0198
    125  CD1        3.8770    8.9480   -9.4140 C.ar  129  TYR129     -0.0009
    126  CD2        5.3250    9.0710   -7.5190 C.ar  129  TYR129     -0.0009
    127  CE1        3.7870   10.3320   -9.4420 C.ar  129  TYR129      0.0417
    128  CE2        5.2390   10.4550   -7.5370 C.ar  129  TYR129      0.0417
    129  CZ         4.4660   11.0770   -8.5000 C.ar  129  TYR129      0.1957
    130  OH         4.3740   12.4540   -8.5340 O.3   129  TYR129     -0.2866
    131  N          0.0700   -0.9600   -2.4030 N.3   135  PHE135     -0.1241
    132  CA        -0.7340   -0.6330   -1.2260 C.3   135  PHE135      0.1605
    133  C         -0.9600   -1.8720   -0.3470 C.2   135  PHE135      0.2264
    134  O         -0.8610   -1.8060    0.8880 O.2   135  PHE135     -0.2867
    135  CB        -2.0670    0.0090   -1.6300 C.3   135  PHE135      0.0534
    136  CG        -1.9150    1.4000   -2.2060 C.ar  135  PHE135     -0.0203
    137  CD1       -1.5440    1.5830   -3.5350 C.ar  135  PHE135     -0.0042
    138  CD2       -2.1060    2.5220   -1.4060 C.ar  135  PHE135     -0.0042
    139  CE1       -1.3850    2.8650   -4.0570 C.ar  135  PHE135     -0.0003
    140  CE2       -1.9490    3.8050   -1.9320 C.ar  135  PHE135     -0.0003
    141  CZ        -1.5880    3.9740   -3.2530 C.ar  135  PHE135     -0.0000
@<TRIPOS>BOND
     1   127   125   ar
     2   127   129   ar
     3   125   124   ar
     4   122   121    2
     5   130   129    1
     6   129   128   ar
     7   124   123    1
     8   124   126   ar
     9   123   120    1
    10   121   120    1
    11   120   119    1
    12   128   126   ar
    13   116   114   ar
    14   116   117   ar
    15   118   117    1
    16   110   109    2
    17    90    89    1
    18   119   109   am
    19   114   112   ar
    20   117   115   ar
    21    87    88    1
    22    87    86    1
    23   109   108    1
    24    89    88    2
    25    89    91    1
    26    86    85    1
    27   112   113   ar
    28   112   111    1
    29   115   113   ar
    30   103   102    2
    31   108   111    1
    32   108   107    1
    33   139   137   ar
    34   139   141   ar
    35   102   107   am
    36   102   101    1
    37    85    82    1
    38   137   136   ar
    39   141   140   ar
    40    63    62    1
    41    95    94    2
    42   101   104    1
    43   101   100    1
    44    82    81    1
    45    82    83    1
    46    79    78   ar
    47    80    78   ar
    48    60    62   ar
    49    60    58   ar
    50   131   132    1
    51   104   105    1
    52   136   135    1
    53   136   138   ar
    54    62    61   ar
    55    78    77    1
    56   140   138   ar
    57    94   100   am
    58    94    93    1
    59   100   106    1
    60   135   132    1
    61    84    83    2
    62    58    57   ar
    63    98    97   ar
    64    99    97   ar
    65    97    96    1
    66    72    70   ar
    67   132   133    1
    68   105   106    1
    69    96    93    1
    70    61    59   ar
    71    93    92    1
    72    77    74    1
    73   133   134    2
    74    57    59   ar
    75    57    56    1
    76    75    74    1
    77    75    76    2
    78    70    71   ar
    79    70    69    1
    80    74    73    1
    81    34    32    1
    82    55    54    2
    83    14    12    1
    84    56    53    1
    85    69    68    1
    86    53    54    1
    87    53    52    1
    88    54    64   am
    89    40    39    1
    90    32    31    1
    91    39    36    1
    92    12    13    1
    93    12    11    1
    94    68    65    1
    95    64    65    1
    96    65    66    1
    97    51    49    1
    98    49    50    1
    99    49    48    2
   100    11     8    1
   101    48    47    1
   102    31    33    1
   103    31    28    1
   104    47    46    1
   105    30    29    2
   106    36    35    1
   107    36    37    1
   108    46    45    1
   109    29    35   am
   110    29    28    1
   111    16    15    1
   112    16    17    1
   113    66    67    2
   114    15     9   am
   115    28    27    1
   116     9     8    1
   117     9    10    2
   118     8     7    1
   119    41    37   am
   120    41    42    1
   121    37    38    2
   122    27    21   am
   123    17    18    2
   124    17    19   am
   125    45    42    1
   126     7     3   am
   127    42    43    1
   128    19    20    1
   129    21    20    1
   130    21    22    2
   131     6     5    1
   132     5     2    1
   133     3     2    1
   134     3     4    2
   135    20    23    1
   136    43    44    2
   137     2     1    1
   138    23    24    1
   139    24    26   am
   140    24    25    2
