@<TRIPOS>MOLECULE
tmp/5kqsA00.pdb
 115 108 0 0 0
SMALL
GASTEIGER

@<TRIPOS>ATOM
      1  N         49.7770   17.3740    5.3180 N.3     9  LYS9       -0.1245
      2  CA        49.4790   17.1700    3.9040 C.3     9  LYS9        0.1561
      3  C         50.1670   18.2180    3.0390 C.2     9  LYS9        0.2260
      4  O         50.7050   17.8960    1.9730 O.2     9  LYS9       -0.2867
      5  CB        47.9690   17.1800    3.6830 C.3     9  LYS9        0.0271
      6  CG        47.5370   16.8720    2.2450 C.3     9  LYS9        0.0035
      7  CD        47.9200   15.4440    1.8270 C.3     9  LYS9        0.0206
      8  CE        47.0620   15.0060    0.6460 C.3     9  LYS9        0.1093
      9  NZ        47.3980   13.6530    0.0960 N.3     9  LYS9       -0.1314
     10  N         53.8270   17.3540    2.9080 N.3    12  LEU12      -0.1231
     11  CA        54.0100   16.1750    2.0710 C.3    12  LEU12       0.1693
     12  C         54.0940   16.5640    0.6010 C.2    12  LEU12       0.2592
     13  O         55.0120   16.1420   -0.1130 O.2    12  LEU12      -0.2718
     14  CB        52.8550   15.1970    2.3060 C.3    12  LEU12       0.0284
     15  CG        52.9550   13.8710    1.5460 C.3    12  LEU12       0.0019
     16  CD1       54.0750   12.9920    2.1100 C.3    12  LEU12       0.0001
     17  CD2       51.6040   13.1470    1.5820 C.3    12  LEU12       0.0001
     18  N         53.1520   17.3920    0.1380 N.am   13  ASN13      -0.1974
     19  CA        53.1200   17.7850   -1.2640 C.3    13  ASN13       0.1688
     20  C         54.3090   18.6530   -1.6590 C.2    13  ASN13       0.2292
     21  O         54.5980   18.7690   -2.8540 O.2    13  ASN13      -0.2864
     22  CB        51.8060   18.5030   -1.5910 C.3    13  ASN13       0.1181
     23  CG        50.6130   17.5560   -1.6100 C.2    13  ASN13       0.2629
     24  OD1       50.7520   16.3820   -1.9430 O.2    13  ASN13      -0.2716
     25  ND2       49.4390   18.0700   -1.2780 N.am   13  ASN13      -0.0877
     26  N         57.4420   18.0220   -0.7110 N.3    15  MET15      -0.1230
     27  CA        58.6680   17.2360   -0.7190 C.3    15  MET15       0.1702
     28  C         59.1430   16.9700   -2.1420 C.2    15  MET15       0.2593
     29  O         58.3440   16.7740   -3.0610 O.2    15  MET15      -0.2718
     30  CB        58.4280   15.8900   -0.0400 C.3    15  MET15       0.0401
     31  CG        58.2320   15.9860    1.4460 C.3    15  MET15       0.0596
     32  SD        58.0320   14.3420    2.1490 S.3    15  MET15      -0.1393
     33  CE        58.4800   14.6890    3.8490 C.3    15  MET15       0.0692
     34  N         60.4650   16.9440   -2.3120 N.am   16  SER16      -0.1938
     35  CA        61.0250   16.4830   -3.5710 C.3    16  SER16       0.2055
     36  C         60.7090   15.0040   -3.7590 C.2    16  SER16       0.2642
     37  O         60.3360   14.2970   -2.8170 O.2    16  SER16      -0.2714
     38  CB        62.5390   16.6770   -3.5910 C.3    16  SER16       0.2130
     39  OG        63.1760   15.7380   -2.7390 O.3    16  SER16      -0.2179
     40  N         60.8540   14.5370   -5.0030 N.am   17  ALA17      -0.1977
     41  CA        60.5530   13.1390   -5.2940 C.3    17  ALA17       0.1597
     42  C         61.4610   12.2100   -4.4990 C.2    17  ALA17       0.2287
     43  O         61.0120   11.1730   -3.9920 O.2    17  ALA17      -0.2864
     44  CB        60.6870   12.8720   -6.7940 C.3    17  ALA17       0.0319
     45  N         60.3340   12.3050   -0.8280 N.3    20  PHE20      -0.1241
     46  CA        59.0860   11.5700   -0.6810 C.3    20  PHE20       0.1605
     47  C         59.3150   10.0630   -0.6890 C.2    20  PHE20       0.2264
     48  O         58.7250    9.3380    0.1180 O.2    20  PHE20      -0.2867
     49  CB        58.1180   11.9790   -1.7910 C.3    20  PHE20       0.0534
     50  CG        56.8460   11.1960   -1.7870 C.ar   20  PHE20      -0.0203
     51  CD1       55.7880   11.5880   -0.9900 C.ar   20  PHE20      -0.0042
     52  CD2       56.7090   10.0620   -2.5720 C.ar   20  PHE20      -0.0042
     53  CE1       54.6210   10.8550   -0.9710 C.ar   20  PHE20      -0.0003
     54  CE2       55.5390    9.3300   -2.5630 C.ar   20  PHE20      -0.0003
     55  CZ        54.4900    9.7320   -1.7600 C.ar   20  PHE20      -0.0000
     56  N         58.0770    7.9850    2.6660 N.3    24  LYS24      -0.1245
     57  CA        56.8720    7.1590    2.5790 C.3    24  LYS24       0.1561
     58  C         56.9560    5.9160    3.4600 C.2    24  LYS24       0.2260
     59  O         55.9610    5.4910    4.0520 O.2    24  LYS24      -0.2867
     60  CB        56.6420    6.7670    1.1170 C.3    24  LYS24       0.0271
     61  CG        55.4770    5.8260    0.8790 C.3    24  LYS24       0.0035
     62  CD        55.4780    5.2870   -0.5440 C.3    24  LYS24       0.0206
     63  CE        54.7550    6.1980   -1.5070 C.3    24  LYS24       0.1093
     64  NZ        54.6760    5.5950   -2.8680 N.3    24  LYS24      -0.1314
     65  N         40.2080    6.5710   -2.2150 N.3   143  GLU143     -0.1231
     66  CA        41.3240    6.8020   -3.1280 C.3   143  GLU143      0.1699
     67  C         42.0520    8.0850   -2.7380 C.2   143  GLU143      0.2593
     68  O         41.4260    9.1380   -2.6180 O.2   143  GLU143     -0.2718
     69  CB        40.7830    6.9420   -4.5520 C.3   143  GLU143      0.0402
     70  CG        41.8300    7.2570   -5.6050 C.3   143  GLU143      0.1161
     71  CD        41.2190    7.5280   -6.9730 C.2   143  GLU143      0.3649
     72  OE1       41.9730    7.5400   -7.9690 O.co2 143  GLU143     -0.2457
     73  OE2       39.9910    7.7300   -7.0580 O.co2 143  GLU143     -0.2457
     74  N         43.3700    7.9920   -2.5570 N.am  144  SER144     -0.1938
     75  CA        44.1590    9.1550   -2.1620 C.3   144  SER144      0.2055
     76  C         44.0710   10.2430   -3.2180 C.2   144  SER144      0.2644
     77  O         43.8900    9.9810   -4.4130 O.2   144  SER144     -0.2714
     78  CB        45.6320    8.7710   -2.0120 C.3   144  SER144      0.2130
     79  OG        45.8370    7.9180   -0.9000 O.3   144  SER144     -0.2179
     80  N         44.2350   11.4840   -2.7710 N.am  145  SER145     -0.1935
     81  CA        44.3480   12.6190   -3.6710 C.3   145  SER145      0.2055
     82  C         45.3390   13.5920   -3.0630 C.2   145  SER145      0.2643
     83  O         45.4080   13.7350   -1.8440 O.2   145  SER145     -0.2714
     84  CB        43.0130   13.3590   -3.8140 C.3   145  SER145      0.2130
     85  OG        43.1850   14.5530   -4.5600 O.3   145  SER145     -0.2179
     86  N         46.1140   14.2600   -3.9190 N.am  146  SER146     -0.1949
     87  CA        46.9910   15.3000   -3.3980 C.3   146  SER146      0.1924
     88  C         46.2090   16.4680   -2.8040 C.2   146  SER146      0.2314
     89  O         46.7760   17.2490   -2.0370 O.2   146  SER146     -0.2863
     90  CB        47.9640   15.7650   -4.4820 C.3   146  SER146      0.2116
     91  OG        47.2550   16.3320   -5.5670 O.3   146  SER146     -0.2180
     92  N         51.4410    3.4240    5.0220 N.3   207  ARG207     -0.1245
     93  CA        52.5900    4.2430    4.6680 C.3   207  ARG207      0.1563
     94  C         52.4340    5.6460    5.2480 C.2   207  ARG207      0.2260
     95  O         51.3270    6.1140    5.5210 O.2   207  ARG207     -0.2867
     96  CB        52.7420    4.3020    3.1480 C.3   207  ARG207      0.0307
     97  CG        53.1200    2.9450    2.5470 C.3   207  ARG207      0.0489
     98  CD        53.3890    3.0140    1.0580 C.3   207  ARG207      0.2205
     99  NE        52.2290    3.4430    0.2840 N.pl3 207  ARG207     -0.0865
    100  CZ        51.4400    2.6180   -0.3980 C.cat 207  ARG207      0.5346
    101  NH1       51.6860    1.3150   -0.4000 N.pl3 207  ARG207      0.1354
    102  NH2       50.4080    3.0950   -1.0790 N.pl3 207  ARG207      0.1354
    103  N         52.7670    8.3030    3.7040 N.3   209  SER209     -0.1202
    104  CA        52.2000    9.1790    2.6840 C.3   209  SER209      0.2020
    105  C         50.6740    9.2230    2.7040 C.2   209  SER209      0.2619
    106  O         50.0790    9.9130    1.8700 O.2   209  SER209     -0.2717
    107  CB        52.6840    8.7550    1.2970 C.3   209  SER209      0.2103
    108  OG        52.4710    7.3680    1.1060 O.3   209  SER209     -0.2182
    109  N         50.0240    8.4950    3.6080 N.am  210  THR210     -0.1952
    110  CA        48.5810    8.5970    3.7790 C.3   210  THR210      0.1897
    111  C         48.2550    8.7490    5.2560 C.2   210  THR210      0.2313
    112  O         48.9470    8.2100    6.1180 O.2   210  THR210     -0.2863
    113  CB        47.8540    7.3690    3.2120 C.3   210  THR210      0.1794
    114  OG1       46.4380    7.4990    3.4480 O.3   210  THR210     -0.2208
    115  CG2       48.3560    6.0780    3.8690 C.3   210  THR210      0.0378
@<TRIPOS>BOND
     1    72    71   ar
     2    73    71   ar
     3    71    70    1
     4    44    41    1
     5    70    69    1
     6    91    90    1
     7    41    40    1
     8    41    42    1
     9    40    36   am
    10    85    84    1
    11    69    66    1
    12    42    43    2
    13    90    87    1
    14    77    76    2
    15    86    87    1
    16    86    82   am
    17    84    81    1
    18    36    35    1
    19    36    37    2
    20    81    82    1
    21    81    80    1
    22    38    35    1
    23    38    39    1
    24    35    34    1
    25    87    88    1
    26    76    80   am
    27    76    75    1
    28    66    67    1
    29    66    65    1
    30    82    83    2
    31    29    28    2
    32    64    63    1
    33    21    20    2
    34    88    89    2
    35    67    68    2
    36    67    74   am
    37    52    54   ar
    38    52    50   ar
    39    54    55   ar
    40    74    75    1
    41    34    28   am
    42    75    78    1
    43    28    27    1
    44    78    79    1
    45    24    23    2
    46    49    50    1
    47    49    46    1
    48    50    51   ar
    49    55    53   ar
    50    20    19    1
    51    23    22    1
    52    23    25   am
    53    22    19    1
    54    63    62    1
    55    19    18    1
    56   102   100    1
    57    51    53   ar
    58    45    46    1
    59    27    26    1
    60    27    30    1
    61    47    46    1
    62    47    48    2
    63    62    61    1
    64   101   100    1
    65   100    99    2
    66    13    12    2
    67    30    31    1
    68     9     8    1
    69    18    12   am
    70    99    98    1
    71    12    11    1
    72     8     7    1
    73    61    60    1
    74    98    97    1
    75   108   107    1
    76    60    57    1
    77   107   104    1
    78    31    32    1
    79    15    17    1
    80    15    16    1
    81    15    14    1
    82     7     6    1
    83   106   105    2
    84     4     3    2
    85    11    14    1
    86    11    10    1
    87    32    33    1
    88     6     5    1
    89    97    96    1
    90    57    56    1
    91    57    58    1
    92   104   105    1
    93   104   103    1
    94   105   109   am
    95     3     2    1
    96    96    93    1
    97   113   114    1
    98   113   110    1
    99   113   115    1
   100    58    59    2
   101   109   110    1
   102     5     2    1
   103   110   111    1
   104     2     1    1
   105    93    92    1
   106    93    94    1
   107    94    95    2
   108   111   112    2
