@<TRIPOS>MOLECULE
tmp/5kqtA00.pdb
 114 108 0 0 0
SMALL
GASTEIGER

@<TRIPOS>ATOM
      1  N        -17.3100   34.0880   17.3150 N.3    57  TYR57      -0.1241
      2  CA       -17.9330   33.1270   18.2200 C.3    57  TYR57       0.1605
      3  C        -18.4890   33.7610   19.5030 C.2    57  TYR57       0.2264
      4  O        -18.4690   33.1160   20.5480 O.2    57  TYR57      -0.2867
      5  CB       -16.9670   32.0280   18.6520 C.3    57  TYR57       0.0534
      6  CG       -15.9000   31.5650   17.7150 C.ar   57  TYR57      -0.0201
      7  CD1      -14.7060   32.2650   17.6150 C.ar   57  TYR57      -0.0009
      8  CD2      -16.0150   30.3530   17.0230 C.ar   57  TYR57      -0.0009
      9  CE1      -13.6870   31.8320   16.8150 C.ar   57  TYR57       0.0417
     10  CE2      -14.9850   29.8960   16.2060 C.ar   57  TYR57       0.0417
     11  CZ       -13.8320   30.6470   16.1030 C.ar   57  TYR57       0.1957
     12  OH       -12.7970   30.2350   15.3240 O.3    57  TYR57      -0.2866
     13  N        -10.0780   39.7500   28.5380 N.3   117  SER117     -0.1202
     14  CA        -9.9730   38.9760   27.3150 C.3   117  SER117      0.2020
     15  C         -9.6530   37.5330   27.6750 C.2   117  SER117      0.2619
     16  O         -9.0880   37.2580   28.7460 O.2   117  SER117     -0.2717
     17  CB        -8.8550   39.5400   26.4430 C.3   117  SER117      0.2103
     18  OG        -7.6180   39.4110   27.0990 O.3   117  SER117     -0.2182
     19  N        -10.0130   36.6050   26.7860 N.am  118  GLY118     -0.1942
     20  CA        -9.6140   35.2110   26.9550 C.3   118  GLY118      0.2014
     21  C         -8.1210   35.0360   27.1140 C.2   118  GLY118      0.2639
     22  O         -7.6810   34.1330   27.8130 O.2   118  GLY118     -0.2714
     23  N         -7.3360   35.8760   26.4390 N.am  119  SER119     -0.1949
     24  CA        -5.8800   35.7710   26.5230 C.3   119  SER119      0.1924
     25  C         -5.4040   36.1330   27.9420 C.2   119  SER119      0.2314
     26  O         -4.5340   35.4480   28.4750 O.2   119  SER119     -0.2863
     27  CB        -5.1730   36.6840   25.4970 C.3   119  SER119      0.2116
     28  OG        -5.4870   36.3340   24.1650 O.3   119  SER119     -0.2180
     29  N         -6.1290   33.1120   30.1890 N.3   122  ASN122     -0.1240
     30  CA        -5.1140   32.0450   30.1430 C.3   122  ASN122      0.1653
     31  C         -3.7620   32.4680   30.7410 C.2   122  ASN122      0.2266
     32  O         -3.0440   31.6340   31.2920 O.2   122  ASN122     -0.2867
     33  CB        -4.9500   31.4870   28.7320 C.3   122  ASN122      0.1155
     34  CG        -6.1190   30.5760   28.3370 C.2   122  ASN122      0.2627
     35  OD1       -6.6640   29.8520   29.1750 O.2   122  ASN122     -0.2716
     36  ND2       -6.5210   30.6340   27.0860 N.am  122  ASN122     -0.0877
     37  N         -6.1650   26.9290   20.0130 N.3   151  TYR151     -0.1227
     38  CA        -6.1090   28.3840   20.1020 C.3   151  TYR151      0.1736
     39  C         -6.3730   28.8280   21.5180 C.2   151  TYR151      0.2595
     40  O         -7.4450   28.5420   22.0790 O.2   151  TYR151     -0.2718
     41  CB        -7.0860   29.1120   19.1750 C.3   151  TYR151      0.0548
     42  CG        -6.8200   30.6100   19.2130 C.ar  151  TYR151     -0.0200
     43  CD1       -5.7090   31.1390   18.5720 C.ar  151  TYR151     -0.0009
     44  CD2       -7.6170   31.4770   19.9570 C.ar  151  TYR151     -0.0009
     45  CE1       -5.4050   32.4860   18.6450 C.ar  151  TYR151      0.0417
     46  CE2       -7.3340   32.8410   20.0150 C.ar  151  TYR151      0.0417
     47  CZ        -6.2180   33.3320   19.3570 C.ar  151  TYR151      0.1957
     48  OH        -5.9010   34.6730   19.3630 O.3   151  TYR151     -0.2866
     49  N         -5.4090   29.5670   22.0770 N.am  152  HIS152     -0.1961
     50  CA        -5.5090   29.9940   23.4710 C.3   152  HIS152      0.1787
     51  C         -5.1320   31.4480   23.7610 C.2   152  HIS152      0.2620
     52  O         -4.9990   31.8270   24.9230 O.2   152  HIS152     -0.2715
     53  CB        -4.6660   29.0510   24.3050 C.3   152  HIS152      0.0785
     54  CG        -5.0060   27.6080   24.0970 C.ar  152  HIS152      0.0821
     55  ND1       -6.1650   27.0370   24.5790 N.ar  152  HIS152     -0.2267
     56  CD2       -4.3530   26.6280   23.4420 C.ar  152  HIS152      0.1154
     57  CE1       -6.1960   25.7580   24.2540 C.ar  152  HIS152      0.1986
     58  NE2       -5.1090   25.4820   23.5650 N.ar  152  HIS152     -0.2212
     59  N         -5.0060   32.2620   22.7140 N.am  153  GLY153     -0.1954
     60  CA        -4.6230   33.6460   22.8420 C.3   153  GLY153      0.1869
     61  C         -3.4690   34.0890   21.9740 C.2   153  GLY153      0.2309
     62  O         -2.7980   33.2950   21.3030 O.2   153  GLY153     -0.2863
     63  N         -9.3400   23.1600   24.5490 N.3   224  GLU224     -0.1245
     64  CA       -10.6880   23.5660   24.2850 C.3   224  GLU224      0.1567
     65  C        -11.4860   22.2570   24.1300 C.2   224  GLU224      0.2260
     66  O        -10.9740   21.3290   23.5110 O.2   224  GLU224     -0.2867
     67  CB       -10.7720   24.3170   22.9730 C.3   224  GLU224      0.0388
     68  CG        -9.8650   25.5220   22.8240 C.3   224  GLU224      0.1160
     69  CD        -9.5480   25.8350   21.3780 C.2   224  GLU224      0.3649
     70  OE1      -10.4120   26.4230   20.7070 O.co2 224  GLU224     -0.2457
     71  OE2       -8.4530   25.4700   20.9180 O.co2 224  GLU224     -0.2457
     72  N        -10.8360   28.0700   16.6270 N.3   229  THR229     -0.1218
     73  CA       -10.0250   28.6940   15.5680 C.3   229  THR229      0.1862
     74  C         -9.1290   27.7170   14.8220 C.2   229  THR229      0.2287
     75  O         -8.7520   27.9720   13.6720 O.2   229  THR229     -0.2866
     76  CB        -9.1810   29.8390   16.1640 C.3   229  THR229      0.1770
     77  OG1      -10.0800   30.7730   16.7520 O.3   229  THR229     -0.2211
     78  CG2       -8.3310   30.5630   15.1170 C.3   229  THR229      0.0375
     79  N        -10.1910   25.2900   28.2870 N.3   257  ASP257     -0.1239
     80  CA       -10.3490   26.5680   27.6310 C.3   257  ASP257      0.1674
     81  C        -11.7070   26.6460   26.9430 C.2   257  ASP257      0.2266
     82  O        -11.8950   26.1820   25.8140 O.2   257  ASP257     -0.2867
     83  CB        -9.1880   26.8300   26.6710 C.3   257  ASP257      0.1410
     84  CG        -9.2100   28.2330   26.1140 C.2   257  ASP257      0.3668
     85  OD1      -10.2740   28.8740   26.1370 O.co2 257  ASP257     -0.2456
     86  OD2       -8.1660   28.6680   25.6250 O.co2 257  ASP257     -0.2456
     87  N        -13.4650   29.4340   26.2050 N.3   259  VAL259     -0.1231
     88  CA       -13.7180   30.7790   25.7440 C.3   259  VAL259      0.1692
     89  C        -14.7710   30.7380   24.6240 C.2   259  VAL259      0.2591
     90  O        -15.6680   31.5770   24.6070 O.2   259  VAL259     -0.2718
     91  CB       -12.3860   31.4750   25.3740 C.3   259  VAL259      0.0266
     92  CG1      -12.6040   32.7020   24.5420 C.3   259  VAL259      0.0020
     93  CG2      -11.6410   31.8540   26.6510 C.3   259  VAL259      0.0020
     94  N        -14.6910   29.7630   23.7160 N.am  260  VAL260     -0.1980
     95  CA       -15.7760   29.5660   22.7220 C.3   260  VAL260      0.1595
     96  C        -16.9650   28.7900   23.3110 C.2   260  VAL260      0.2287
     97  O        -18.1280   29.2220   23.1810 O.2   260  VAL260     -0.2864
     98  CB       -15.2770   28.8740   21.4420 C.3   260  VAL260      0.0276
     99  CG1      -16.4310   28.5870   20.4710 C.3   260  VAL260      0.0022
    100  CG2      -14.2210   29.7410   20.7630 C.3   260  VAL260      0.0022
    101  N        -14.7340   33.6840   28.2690 N.3   285  ALA285     -0.1231
    102  CA       -14.9190   35.0560   27.7830 C.3   285  ALA285      0.1694
    103  C        -15.9890   35.0190   26.6720 C.2   285  ALA285      0.2591
    104  O        -16.9800   34.3070   26.8390 O.2   285  ALA285     -0.2718
    105  CB       -13.6050   35.6470   27.2800 C.3   285  ALA285      0.0304
    106  N        -15.8140   35.7810   25.5760 N.am  286  LYS286     -0.1980
    107  CA       -16.7530   35.7890   24.4350 C.3   286  LYS286      0.1596
    108  C        -18.1960   35.7380   24.9090 C.2   286  LYS286      0.2287
    109  O        -18.7170   36.7530   25.3730 O.2   286  LYS286     -0.2864
    110  CB       -16.4160   34.6630   23.4480 C.3   286  LYS286      0.0298
    111  CG       -15.0520   34.8490   22.8260 C.3   286  LYS286      0.0038
    112  CD       -14.7000   33.8710   21.7090 C.3   286  LYS286      0.0206
    113  CE       -13.5150   34.3770   20.8540 C.3   286  LYS286      0.1093
    114  NZ       -12.1040   33.8300   21.1010 N.3   286  LYS286     -0.1314
@<TRIPOS>BOND
     1    75    74    2
     2    74    73    1
     3    78    76    1
     4    12    11    1
     5    73    76    1
     6    73    72    1
     7    11    10   ar
     8    11     9   ar
     9    76    77    1
    10    10     8   ar
    11     9     7   ar
    12     8     6   ar
    13     1     2    1
    14     7     6   ar
    15     6     5    1
    16     2     5    1
    17     2     3    1
    18    43    45   ar
    19    43    42   ar
    20    45    47   ar
    21    41    42    1
    22    41    38    1
    23    42    44   ar
    24    47    48    1
    25    47    46   ar
    26     3     4    2
    27    44    46   ar
    28    37    38    1
    29    38    39    1
    30    99    98    1
    31    70    69   ar
    32   100    98    1
    33   113   114    1
    34   113   112    1
    35    71    69   ar
    36    62    61    2
    37    69    68    1
    38    98    95    1
    39    39    49   am
    40    39    40    2
    41   112   111    1
    42    61    60    1
    43    49    50    1
    44    59    60    1
    45    59    51   am
    46    95    96    1
    47    95    94    1
    48    68    67    1
    49   111   110    1
    50    67    64    1
    51    97    96    2
    52    56    58   ar
    53    56    54   ar
    54   110   107    1
    55    50    51    1
    56    50    53    1
    57    66    65    2
    58    58    57   ar
    59    94    89   am
    60    51    52    2
    61    54    53    1
    62    54    55   ar
    63    65    64    1
    64    28    27    1
    65    57    55   ar
    66    64    63    1
    67   107   108    1
    68   107   106    1
    69    92    91    1
    70    90    89    2
    71    89    88    1
    72   108   109    2
    73    91    88    1
    74    91    93    1
    75    27    24    1
    76   106   103   am
    77    86    84   ar
    78    88    87    1
    79    82    81    2
    80    84    85   ar
    81    84    83    1
    82    23    24    1
    83    23    21   am
    84    17    18    1
    85    17    14    1
    86    24    25    1
    87    83    80    1
    88   103   104    2
    89   103   102    1
    90    19    20    1
    91    19    15   am
    92    81    80    1
    93    20    21    1
    94    36    34   am
    95    21    22    2
    96   105   102    1
    97    14    15    1
    98    14    13    1
    99    80    79    1
   100    15    16    2
   101   102   101    1
   102    25    26    2
   103    34    33    1
   104    34    35    2
   105    33    30    1
   106    30    29    1
   107    30    31    1
   108    31    32    2
