@<TRIPOS>MOLECULE
tmp/5kr5A00.pdb
 128 122 0 0 0
SMALL
GASTEIGER

@<TRIPOS>ATOM
      1  N         40.5500   12.5630  -32.5560 N.3    56  LEU56      -0.1231
      2  CA        40.6400   11.7140  -31.3850 C.3    56  LEU56       0.1693
      3  C         40.4000   10.2800  -31.8280 C.2    56  LEU56       0.2592
      4  O         39.3040    9.7450  -31.6620 O.2    56  LEU56      -0.2718
      5  CB        39.5800   12.1430  -30.3510 C.3    56  LEU56       0.0284
      6  CG        39.8360   13.4330  -29.5760 C.3    56  LEU56       0.0019
      7  CD1       38.6730   13.6750  -28.6180 C.3    56  LEU56       0.0001
      8  CD2       41.1420   13.3950  -28.7930 C.3    56  LEU56       0.0001
      9  N         41.4360    9.6680  -32.4120 N.am   57  TYR57      -0.1976
     10  CA        41.3540    8.3250  -33.0020 C.3    57  TYR57       0.1639
     11  C         40.1540    8.1600  -33.9240 C.2    57  TYR57       0.2290
     12  O         39.5990    7.0710  -34.0010 O.2    57  TYR57      -0.2864
     13  CB        41.2240    7.2210  -31.9430 C.3    57  TYR57       0.0560
     14  CG        41.9420    7.3740  -30.6440 C.ar   57  TYR57      -0.0198
     15  CD1       41.3750    8.1080  -29.6010 C.ar   57  TYR57      -0.0009
     16  CD2       43.1350    6.6930  -30.3960 C.ar   57  TYR57      -0.0009
     17  CE1       42.0130    8.2260  -28.3830 C.ar   57  TYR57       0.0417
     18  CE2       43.7820    6.8060  -29.1800 C.ar   57  TYR57       0.0417
     19  CZ        43.2040    7.5720  -28.1750 C.ar   57  TYR57       0.1957
     20  OH        43.8180    7.7130  -26.9510 O.3    57  TYR57      -0.2866
     21  N         27.1530    8.8570  -29.3010 N.3   117  SER117     -0.1202
     22  CA        28.4400    8.8570  -28.6090 C.3   117  SER117      0.2020
     23  C         28.8430    7.4600  -28.1430 C.2   117  SER117      0.2619
     24  O         27.9880    6.6090  -27.8180 O.2   117  SER117     -0.2717
     25  CB        28.4020    9.7840  -27.3910 C.3   117  SER117      0.2103
     26  OG        27.5140    9.3090  -26.3820 O.3   117  SER117     -0.2182
     27  N         30.1490    7.2250  -28.1210 N.am  118  GLY118     -0.1942
     28  CA        30.7120    6.0860  -27.4240 C.3   118  GLY118      0.2014
     29  C         30.1210    5.9410  -26.0290 C.2   118  GLY118      0.2639
     30  O         29.6950    4.8490  -25.6530 O.2   118  GLY118     -0.2714
     31  N         30.0260    7.0410  -25.2930 N.am  119  SER119     -0.1949
     32  CA        29.4740    6.9910  -23.9390 C.3   119  SER119      0.1924
     33  C         28.0130    6.5030  -23.9340 C.2   119  SER119      0.2314
     34  O         27.6920    5.5940  -23.1780 O.2   119  SER119     -0.2863
     35  CB        29.5960    8.3330  -23.2230 C.3   119  SER119      0.2116
     36  OG        30.9510    8.7150  -23.0440 O.3   119  SER119     -0.2180
     37  N         27.8250    2.6360  -24.5940 N.3   122  ASN122     -0.1240
     38  CA        28.1330    1.8480  -23.3990 C.3   122  ASN122      0.1653
     39  C         27.0400    1.9710  -22.3130 C.2   122  ASN122      0.2266
     40  O         26.7800    1.0010  -21.6220 O.2   122  ASN122     -0.2867
     41  CB        29.5080    2.1970  -22.8370 C.3   122  ASN122      0.1155
     42  CG        30.6430    1.6100  -23.6500 C.2   122  ASN122      0.2627
     43  OD1       30.5070    0.5560  -24.2690 O.2   122  ASN122     -0.2716
     44  ND2       31.7790    2.2800  -23.6370 N.am  122  ASN122     -0.0877
     45  N         39.2790    3.1070  -20.8520 N.3   151  TYR151     -0.1227
     46  CA        38.4160    4.2240  -21.1640 C.3   151  TYR151      0.1736
     47  C         37.1510    3.7170  -21.8430 C.2   151  TYR151      0.2595
     48  O         37.2270    3.0720  -22.8930 O.2   151  TYR151     -0.2718
     49  CB        39.1010    5.2630  -22.0610 C.3   151  TYR151      0.0548
     50  CG        38.2360    6.5030  -22.1410 C.ar  151  TYR151     -0.0200
     51  CD1       38.0320    7.2720  -20.9950 C.ar  151  TYR151     -0.0009
     52  CD2       37.5490    6.8590  -23.3170 C.ar  151  TYR151     -0.0009
     53  CE1       37.2050    8.3750  -21.0050 C.ar  151  TYR151      0.0417
     54  CE2       36.7170    7.9910  -23.3390 C.ar  151  TYR151      0.0417
     55  CZ        36.5590    8.7340  -22.1720 C.ar  151  TYR151      0.1957
     56  OH        35.7520    9.8510  -22.0800 O.3   151  TYR151     -0.2866
     57  N         36.0010    4.0350  -21.2450 N.am  152  HIS152     -0.1961
     58  CA        34.6900    3.6330  -21.7510 C.3   152  HIS152      0.1787
     59  C         33.6810    4.7670  -21.8380 C.2   152  HIS152      0.2621
     60  O         32.5000    4.5290  -22.1010 O.2   152  HIS152     -0.2715
     61  CB        34.1420    2.4990  -20.8830 C.3   152  HIS152      0.0785
     62  CG        35.0000    1.2850  -20.9120 C.ar  152  HIS152      0.0821
     63  ND1       35.2240    0.5770  -22.0680 N.ar  152  HIS152     -0.2267
     64  CD2       35.7230    0.6740  -19.9470 C.ar  152  HIS152      0.1154
     65  CE1       36.0540   -0.4190  -21.8190 C.ar  152  HIS152      0.1986
     66  NE2       36.3700   -0.3870  -20.5370 N.ar  152  HIS152     -0.2212
     67  N         34.1560    6.0050  -21.6680 N.am  153  GLY153     -0.1940
     68  CA        33.2850    7.1690  -21.6610 C.3   153  GLY153      0.2014
     69  C         33.3240    7.9740  -20.3850 C.2   153  GLY153      0.2639
     70  O         34.0750    7.6870  -19.4540 O.2   153  GLY153     -0.2714
     71  N         32.4570    8.9800  -20.3700 N.am  154  SER154     -0.1949
     72  CA        32.5190   10.1150  -19.4590 C.3   154  SER154      0.1924
     73  C         31.1670   10.4750  -18.7910 C.2   154  SER154      0.2314
     74  O         30.9860   11.5950  -18.3270 O.2   154  SER154     -0.2863
     75  CB        33.0330   11.3080  -20.2650 C.3   154  SER154      0.2116
     76  OG        33.2540   12.4510  -19.4600 O.3   154  SER154     -0.2180
     77  N         38.3590   -2.7820  -23.9300 N.3   224  GLU224     -0.1245
     78  CA        38.9190   -2.4220  -25.2220 C.3   224  GLU224      0.1567
     79  C         39.8520   -3.5480  -25.6990 C.2   224  GLU224      0.2260
     80  O         40.6720   -4.0200  -24.9160 O.2   224  GLU224     -0.2867
     81  CB        39.7260   -1.1400  -25.0850 C.3   224  GLU224      0.0388
     82  CG        38.9630    0.0700  -24.5560 C.3   224  GLU224      0.1160
     83  CD        39.8810    1.1150  -23.9510 C.2   224  GLU224      0.3649
     84  OE1       40.3160    2.0120  -24.6870 O.co2 224  GLU224     -0.2457
     85  OE2       40.1810    1.0440  -22.7420 O.co2 224  GLU224     -0.2457
     86  N         42.9480    5.5030  -24.6670 N.3   229  THR229     -0.1218
     87  CA        43.3310    6.6790  -23.9090 C.3   229  THR229      0.1862
     88  C         44.1470    6.3420  -22.6840 C.2   229  THR229      0.2287
     89  O         44.9370    7.1580  -22.2430 O.2   229  THR229     -0.2866
     90  CB        42.0820    7.5050  -23.5650 C.3   229  THR229      0.1770
     91  OG1       41.4490    7.8980  -24.7890 O.3   229  THR229     -0.2211
     92  CG2       42.4290    8.7640  -22.7870 C.3   229  THR229      0.0375
     93  N         34.5340   -3.0840  -26.3160 N.3   257  ASP257     -0.1239
     94  CA        34.5160   -1.6620  -26.6340 C.3   257  ASP257      0.1674
     95  C         35.4640   -1.4070  -27.8160 C.2   257  ASP257      0.2266
     96  O         36.6890   -1.2480  -27.6390 O.2   257  ASP257     -0.2867
     97  CB        34.8940   -0.8220  -25.4050 C.3   257  ASP257      0.1410
     98  CG        34.6400    0.6850  -25.5980 C.2   257  ASP257      0.3668
     99  OD1       34.6570    1.1890  -26.7500 O.co2 257  ASP257     -0.2456
    100  OD2       34.4470    1.3820  -24.5700 O.co2 257  ASP257     -0.2456
    101  N         35.2740    1.2420  -29.7890 N.3   259  VAL259     -0.1231
    102  CA        35.1270    2.6350  -30.1660 C.3   259  VAL259      0.1692
    103  C         36.3710    3.1430  -30.9080 C.2   259  VAL259      0.2591
    104  O         36.2380    3.8100  -31.9180 O.2   259  VAL259     -0.2718
    105  CB        34.7450    3.5060  -28.9550 C.3   259  VAL259      0.0266
    106  CG1       34.9170    4.9950  -29.2350 C.3   259  VAL259      0.0020
    107  CG2       33.3050    3.2080  -28.5690 C.3   259  VAL259      0.0020
    108  N         37.5550    2.7860  -30.4230 N.am  260  VAL260     -0.1980
    109  CA        38.8150    3.0950  -31.1110 C.3   260  VAL260      0.1595
    110  C         39.1820    2.0630  -32.1690 C.2   260  VAL260      0.2287
    111  O         39.5180    2.4300  -33.2830 O.2   260  VAL260     -0.2864
    112  CB        39.9710    3.2560  -30.1070 C.3   260  VAL260      0.0276
    113  CG1       41.3270    3.2970  -30.7900 C.3   260  VAL260      0.0022
    114  CG2       39.7880    4.5480  -29.3190 C.3   260  VAL260      0.0022
    115  N         31.8490    3.6310  -32.3510 N.3   285  ALA285     -0.1231
    116  CA        31.6010    5.0320  -32.7240 C.3   285  ALA285      0.1694
    117  C         32.8260    5.5290  -33.5050 C.2   285  ALA285      0.2591
    118  O         33.4040    4.7470  -34.2520 O.2   285  ALA285     -0.2718
    119  CB        31.3180    5.8770  -31.4840 C.3   285  ALA285      0.0304
    120  N         33.2090    6.8000  -33.3720 N.am  286  LYS286     -0.1980
    121  CA        34.4570    7.3130  -33.9390 C.3   286  LYS286      0.1596
    122  C         34.5980    6.9210  -35.4340 C.2   286  LYS286      0.2287
    123  O         33.9600    7.5460  -36.2920 O.2   286  LYS286     -0.2864
    124  CB        35.6560    6.9130  -33.0520 C.3   286  LYS286      0.0298
    125  CG        35.6970    7.6290  -31.6930 C.3   286  LYS286      0.0038
    126  CD        37.0320    7.4550  -30.9720 C.3   286  LYS286      0.0206
    127  CE        37.2010    8.3730  -29.7160 C.3   286  LYS286      0.1093
    128  NZ        36.8220    7.9130  -28.2540 N.3   286  LYS286     -0.1314
@<TRIPOS>BOND
     1   123   122    2
     2   122   121    1
     3   118   117    2
     4    12    11    2
     5   121   120    1
     6   121   124    1
     7    11    10    1
     8   117   120   am
     9   117   116    1
    10   111   110    2
    11   124   125    1
    12    10     9    1
    13    10    13    1
    14   116   115    1
    15   116   119    1
    16     1     2    1
    17     9     3   am
    18   110   109    1
    19    13    14    1
    20   104   103    2
    21     3     4    2
    22     3     2    1
    23   125   126    1
    24     2     5    1
    25   109   108    1
    26   109   112    1
    27   126   127    1
    28   103   108   am
    29   103   102    1
    30   113   112    1
    31    14    16   ar
    32    14    15   ar
    33    16    18   ar
    34     5     6    1
    35   102   101    1
    36   102   105    1
    37   112   114    1
    38   127   128    1
    39    15    17   ar
    40     6     8    1
    41     6     7    1
    42    21    22    1
    43   106   105    1
    44    18    19   ar
    45   105   107    1
    46    22    23    1
    47    22    25    1
    48    17    19   ar
    49    19    20    1
    50    23    27   am
    51    23    24    2
    52    27    28    1
    53    95    96    2
    54    95    94    1
    55    28    29    1
    56    25    26    1
    57    99    98   ar
    58    94    93    1
    59    94    97    1
    60    29    30    2
    61    29    31   am
    62    79    78    1
    63    79    80    2
    64    98    97    1
    65    98   100   ar
    66    31    32    1
    67    78    81    1
    68    78    77    1
    69    81    82    1
    70    91    90    1
    71    84    83   ar
    72    86    87    1
    73    37    38    1
    74    82    83    1
    75    43    42    2
    76    83    85   ar
    77    32    33    1
    78    32    35    1
    79    33    34    2
    80    87    90    1
    81    87    88    1
    82    42    44   am
    83    42    41    1
    84    90    92    1
    85    38    41    1
    86    38    39    1
    87    54    52   ar
    88    54    55   ar
    89    52    50   ar
    90    35    36    1
    91    48    47    2
    92    88    89    2
    93    39    40    2
    94    55    56    1
    95    55    53   ar
    96    50    49    1
    97    50    51   ar
    98    60    59    2
    99    63    65   ar
   100    63    62   ar
   101    49    46    1
   102    47    57   am
   103    47    46    1
   104    59    58    1
   105    59    67   am
   106    65    66   ar
   107    58    57    1
   108    58    61    1
   109    67    68    1
   110    68    69    1
   111    46    45    1
   112    53    51   ar
   113    62    61    1
   114    62    64   ar
   115    66    64   ar
   116    69    71   am
   117    69    70    2
   118    71    72    1
   119    75    76    1
   120    75    72    1
   121    72    73    1
   122    73    74    2
