@<TRIPOS>MOLECULE
tmp/5kr6B01.pdb
 114 108 0 0 0
SMALL
GASTEIGER

@<TRIPOS>ATOM
      1  N        103.5190  -18.3200   13.8520 N.3    61  TYR61      -0.1241
      2  CA       103.3070  -19.2840   12.7350 C.3    61  TYR61       0.1605
      3  C        102.9450  -18.5900   11.4040 C.2    61  TYR61       0.2264
      4  O        102.1890  -19.1450   10.6120 O.2    61  TYR61      -0.2867
      5  CB       102.1550  -20.3130   12.9940 C.3    61  TYR61       0.0534
      6  CG       101.8360  -20.6880   14.4060 C.ar   61  TYR61      -0.0201
      7  CD1      101.0590  -19.8640   15.2050 C.ar   61  TYR61      -0.0009
      8  CD2      102.2250  -21.9400   14.9280 C.ar   61  TYR61      -0.0009
      9  CE1      100.7410  -20.2150   16.5020 C.ar   61  TYR61       0.0417
     10  CE2      101.8850  -22.3030   16.2180 C.ar   61  TYR61       0.0417
     11  CZ       101.1390  -21.4250   17.0010 C.ar   61  TYR61       0.1957
     12  OH       100.7950  -21.6870   18.3210 O.3    61  TYR61      -0.2866
     13  N         91.4090  -11.5310    9.3850 N.3   121  SER121     -0.1202
     14  CA        91.9190  -12.3510   10.4670 C.3   121  SER121      0.2020
     15  C         91.3350  -13.7760   10.4290 C.2   121  SER121      0.2619
     16  O         90.2070  -14.0130    9.9210 O.2   121  SER121     -0.2717
     17  CB        91.6410  -11.6700   11.8050 C.3   121  SER121      0.2103
     18  OG        90.2600  -11.6880   12.0830 O.3   121  SER121     -0.2182
     19  N         92.0910  -14.7160   10.9920 N.am  122  GLY122     -0.1942
     20  CA        91.5720  -16.0690   11.2290 C.3   122  GLY122      0.2014
     21  C         90.2790  -16.0470   12.0240 C.2   122  GLY122      0.2639
     22  O         89.3150  -16.8240   11.7310 O.2   122  GLY122     -0.2714
     23  N         90.2120  -15.1120   12.9620 N.am  123  SER123     -0.1949
     24  CA        89.0100  -14.9680   13.7720 C.3   123  SER123      0.1924
     25  C         87.7950  -14.5170   12.9810 C.2   123  SER123      0.2314
     26  O         86.6890  -15.0770   13.1560 O.2   123  SER123     -0.2863
     27  CB        89.2380  -14.0290   14.9550 C.3   123  SER123      0.2116
     28  OG        90.1510  -14.6020   15.8540 O.3   123  SER123     -0.2180
     29  N         86.6490  -17.5180   10.7510 N.3   126  ASN126     -0.1240
     30  CA        85.8410  -18.5130   11.4590 C.3   126  ASN126      0.1653
     31  C         84.4760  -17.9970   11.8780 C.2   126  ASN126      0.2266
     32  O         83.5050  -18.7850   11.9750 O.2   126  ASN126     -0.2867
     33  CB        86.5720  -19.1090   12.6500 C.3   126  ASN126      0.1155
     34  CG        87.6460  -20.1130   12.2310 C.2   126  ASN126      0.2627
     35  OD1       87.4540  -20.9030   11.3020 O.2   126  ASN126     -0.2716
     36  ND2       88.7580  -20.1200   12.9420 N.am  126  ASN126     -0.0877
     37  N         92.2810  -24.1990   18.7600 N.3   155  TYR155     -0.1227
     38  CA        92.3810  -22.7610   18.7010 C.3   155  TYR155      0.1736
     39  C         91.7920  -22.2660   17.3750 C.2   155  TYR155      0.2595
     40  O         92.2150  -22.6650   16.3000 O.2   155  TYR155     -0.2718
     41  CB        93.8160  -22.2440   18.9180 C.3   155  TYR155      0.0548
     42  CG        93.7680  -20.7290   19.0270 C.ar  155  TYR155     -0.0200
     43  CD1       93.3030  -20.1280   20.1810 C.ar  155  TYR155     -0.0009
     44  CD2       94.1200  -19.9130   17.9630 C.ar  155  TYR155     -0.0009
     45  CE1       93.2200  -18.7450   20.2860 C.ar  155  TYR155      0.0417
     46  CE2       94.0300  -18.5070   18.0670 C.ar  155  TYR155      0.0417
     47  CZ        93.5840  -17.9430   19.2340 C.ar  155  TYR155      0.1957
     48  OH        93.4420  -16.5820   19.3780 O.3   155  TYR155     -0.2866
     49  N         90.8080  -21.4000   17.4880 N.am  156  HIS156     -0.1961
     50  CA        90.0450  -20.9270   16.3580 C.3   156  HIS156      0.1787
     51  C         89.7760  -19.4480   16.3830 C.2   156  HIS156      0.2620
     52  O         88.9740  -18.9680   15.5780 O.2   156  HIS156     -0.2715
     53  CB        88.7350  -21.7290   16.2620 C.3   156  HIS156      0.0785
     54  CG        88.9610  -23.2120   16.1990 C.ar  156  HIS156      0.0821
     55  ND1       89.5820  -23.8220   15.1290 N.ar  156  HIS156     -0.2267
     56  CD2       88.7240  -24.2000   17.1100 C.ar  156  HIS156      0.1154
     57  CE1       89.6760  -25.1260   15.3600 C.ar  156  HIS156      0.1986
     58  NE2       89.1610  -25.3780   16.5520 N.ar  156  HIS156     -0.2212
     59  N         90.4660  -18.7100   17.2610 N.am  157  GLY157     -0.1954
     60  CA        90.2500  -17.2710   17.3870 C.3   157  GLY157      0.1869
     61  C         89.9320  -16.7860   18.7810 C.2   157  GLY157      0.2309
     62  O         89.7380  -17.5660   19.7310 O.2   157  GLY157     -0.2863
     63  N         91.5440  -28.0480   13.4680 N.3   228  GLU228     -0.1245
     64  CA        92.8190  -27.8440   12.8270 C.3   228  GLU228      0.1567
     65  C         93.3630  -29.1970   12.4250 C.2   228  GLU228      0.2260
     66  O         93.3100  -30.1230   13.2360 O.2   228  GLU228     -0.2867
     67  CB        93.8260  -27.2390   13.8040 C.3   228  GLU228      0.0388
     68  CG        93.4970  -25.8250   14.3020 C.3   228  GLU228      0.1160
     69  CD        94.0910  -25.5760   15.6890 C.2   228  GLU228      0.3649
     70  OE1       95.2190  -25.0390   15.7600 O.co2 228  GLU228     -0.2457
     71  OE2       93.4590  -25.9740   16.6890 O.co2 228  GLU228     -0.2457
     72  N         98.2190  -23.6310   18.5610 N.3   233  THR233     -0.1218
     73  CA        98.3210  -22.9950   19.8650 C.3   233  THR233      0.1862
     74  C         98.0350  -23.9160   21.0620 C.2   233  THR233      0.2287
     75  O         98.5660  -23.7090   22.1300 O.2   233  THR233     -0.2866
     76  CB        97.5000  -21.6920   19.8550 C.3   233  THR233      0.1770
     77  OG1       98.1100  -20.8180   18.9040 O.3   233  THR233     -0.2211
     78  CG2       97.5070  -21.0000   21.2090 C.3   233  THR233      0.0375
     79  N         90.2200  -25.8740    9.8790 N.3   261  ASP261     -0.1239
     80  CA        90.8780  -24.6340   10.2220 C.3   261  ASP261      0.1674
     81  C         92.3560  -24.7380    9.8470 C.2   261  ASP261      0.2266
     82  O         93.1550  -25.3060   10.6020 O.2   261  ASP261     -0.2867
     83  CB        90.6950  -24.3020   11.6920 C.3   261  ASP261      0.1410
     84  CG        91.2230  -22.8850   12.0390 C.2   261  ASP261      0.3668
     85  OD1       91.9850  -22.3160   11.2180 O.co2 261  ASP261     -0.2456
     86  OD2       90.8680  -22.3600   13.1150 O.co2 261  ASP261     -0.2456
     87  N         94.4850  -22.1630    9.3800 N.3   263  VAL263     -0.1231
     88  CA        95.1070  -20.9000    9.5980 C.3   263  VAL263      0.1692
     89  C         96.6240  -21.1080    9.7600 C.2   263  VAL263      0.2591
     90  O         97.4050  -20.3650    9.1810 O.2   263  VAL263     -0.2718
     91  CB        94.4790  -20.1170   10.7580 C.3   263  VAL263      0.0266
     92  CG1       95.3760  -18.9280   11.1230 C.3   263  VAL263      0.0020
     93  CG2       93.1190  -19.5700   10.2920 C.3   263  VAL263      0.0020
     94  N         97.0300  -22.1670   10.4420 N.am  264  VAL264     -0.1980
     95  CA        98.4530  -22.4540   10.6020 C.3   264  VAL264      0.1595
     96  C         98.9900  -23.3480    9.4770 C.2   264  VAL264      0.2287
     97  O        100.0450  -23.0430    8.9040 O.2   264  VAL264     -0.2864
     98  CB        98.7240  -23.0920   11.9780 C.3   264  VAL264      0.0276
     99  CG1      100.1110  -23.7170   12.0450 C.3   264  VAL264      0.0022
    100  CG2       98.5100  -22.0830   13.0700 C.3   264  VAL264      0.0022
    101  N         94.5460  -17.9720    6.8610 N.3   289  ALA289     -0.1231
    102  CA        95.0960  -16.6210    7.0970 C.3   289  ALA289      0.1694
    103  C         96.6390  -16.7710    7.1770 C.2   289  ALA289      0.2591
    104  O         97.1970  -17.5860    6.4410 O.2   289  ALA289     -0.2718
    105  CB        94.5190  -16.0380    8.3700 C.3   289  ALA289      0.0304
    106  N         97.3000  -16.0640    8.0980 N.am  290  LYS290     -0.1980
    107  CA        98.7370  -16.2090    8.3680 C.3   290  LYS290      0.1596
    108  C         99.6130  -16.3930    7.1010 C.2   290  LYS290      0.2287
    109  O         99.9050  -15.4120    6.3780 O.2   290  LYS290     -0.2864
    110  CB        98.9270  -17.2940    9.4270 C.3   290  LYS290      0.0298
    111  CG        98.4150  -16.8480   10.8100 C.3   290  LYS290      0.0038
    112  CD        98.6670  -17.8520   11.9420 C.3   290  LYS290      0.0206
    113  CE        98.3830  -17.3160   13.4010 C.3   290  LYS290      0.1093
    114  NZ        97.1180  -17.6880   14.1710 N.3   290  LYS290     -0.1314
@<TRIPOS>BOND
     1   109   108    2
     2   104   103    2
     3   101   102    1
     4   102   103    1
     5   102   105    1
     6   108   107    1
     7   103   106   am
     8   106   107    1
     9   107   110    1
    10    97    96    2
    11    90    89    2
    12    87    88    1
    13    13    14    1
    14   110   111    1
    15    96    95    1
    16    88    89    1
    17    88    91    1
    18    89    94   am
    19    81    80    1
    20    81    82    2
    21    79    80    1
    22    16    15    2
    23    80    83    1
    24    93    91    1
    25    15    14    1
    26    15    19   am
    27    94    95    1
    28    14    17    1
    29    95    98    1
    30     4     3    2
    31    29    30    1
    32    91    92    1
    33   111   112    1
    34    19    20    1
    35    85    84   ar
    36    20    21    1
    37    35    34    2
    38     3     2    1
    39    30    31    1
    40    30    33    1
    41    83    84    1
    42    22    21    2
    43    17    18    1
    44    31    32    2
    45   112   113    1
    46    98    99    1
    47    98   100    1
    48    21    23   am
    49    84    86   ar
    50    34    33    1
    51    34    36   am
    52    65    64    1
    53    65    66    2
    54     2     5    1
    55     2     1    1
    56    64    63    1
    57    64    67    1
    58    23    24    1
    59    25    26    2
    60    25    24    1
    61     5     6    1
    62   113   114    1
    63    24    27    1
    64    67    68    1
    65    68    69    1
    66     6     8   ar
    67     6     7   ar
    68     8    10   ar
    69    27    28    1
    70    55    57   ar
    71    55    54   ar
    72     7     9   ar
    73    57    58   ar
    74    52    51    2
    75    69    70   ar
    76    69    71   ar
    77    54    53    1
    78    54    56   ar
    79    10    11   ar
    80    53    50    1
    81    40    39    2
    82    50    51    1
    83    50    49    1
    84    51    59   am
    85     9    11   ar
    86    58    56   ar
    87    11    12    1
    88    59    60    1
    89    39    49   am
    90    39    38    1
    91    60    61    1
    92    44    46   ar
    93    44    42   ar
    94    46    47   ar
    95    72    73    1
    96    38    37    1
    97    38    41    1
    98    61    62    2
    99    77    76    1
   100    41    42    1
   101    42    43   ar
   102    47    48    1
   103    47    45   ar
   104    76    73    1
   105    76    78    1
   106    73    74    1
   107    43    45   ar
   108    74    75    2
