@<TRIPOS>MOLECULE
tmp/5kr7A00.pdb
 173 168 0 0 0
SMALL
GASTEIGER

@<TRIPOS>ATOM
      1  N         44.4570   50.6590    9.7220 N.3    66  GLN66      -0.1245
      2  CA        44.2740   49.3030   10.1480 C.3    66  GLN66       0.1566
      3  C         45.5340   48.5420    9.7780 C.2    66  GLN66       0.2260
      4  O         45.7910   48.3050    8.5980 O.2    66  GLN66      -0.2867
      5  CB        43.1360   48.7310    9.3380 C.3    66  GLN66       0.0367
      6  CG        42.4250   47.6120   10.0320 C.3    66  GLN66       0.0905
      7  CD        41.0820   47.3380    9.3990 C.2    66  GLN66       0.2608
      8  OE1       40.9680   47.2530    8.1620 O.2    66  GLN66      -0.2717
      9  NE2       40.0400   47.2620   10.2340 N.am   66  GLN66      -0.0878
     10  N         39.8620   53.8320    7.8070 N.3   125  TYR125     -0.1227
     11  CA        38.3990   53.8800    7.8700 C.3   125  TYR125      0.1736
     12  C         37.9160   54.8090    8.9720 C.2   125  TYR125      0.2596
     13  O         38.6960   55.2320    9.8060 O.2   125  TYR125     -0.2718
     14  CB        37.8180   52.4750    8.0380 C.3   125  TYR125      0.0548
     15  CG        38.1010   51.8470    9.3930 C.ar  125  TYR125     -0.0200
     16  CD1       37.2530   52.0600   10.4900 C.ar  125  TYR125     -0.0009
     17  CD2       39.1270   50.9370    9.5480 C.ar  125  TYR125     -0.0009
     18  CE1       37.5350   51.5070   11.7410 C.ar  125  TYR125      0.0417
     19  CE2       39.4520   50.4180   10.8000 C.ar  125  TYR125      0.0417
     20  CZ        38.6330   50.6570   11.8790 C.ar  125  TYR125      0.1957
     21  OH        38.9270   50.0290   13.0770 O.3   125  TYR125     -0.2866
     22  N         36.6550   55.2210    8.9150 N.am  126  GLY126     -0.1942
     23  CA        36.0680   55.9600   10.0470 C.3   126  GLY126      0.2014
     24  C         34.9600   55.1150   10.5990 C.2   126  GLY126      0.2639
     25  O         34.2120   54.5130    9.8210 O.2   126  GLY126     -0.2714
     26  N         34.9090   54.9450   11.9270 N.am  127  ALA127     -0.1963
     27  CA        33.9560   53.9930   12.5010 C.3   127  ALA127      0.1728
     28  C         33.3760   54.5470   13.7850 C.2   127  ALA127      0.2616
     29  O         33.9410   55.4790   14.3650 O.2   127  ALA127     -0.2715
     30  CB        34.6140   52.6420   12.7480 C.3   127  ALA127      0.0334
     31  N         32.1770   54.0900   14.1350 N.am  128  ASP128     -0.1971
     32  CA        31.5880   54.4520   15.4230 C.3   128  ASP128      0.1709
     33  C         31.4210   55.9660   15.5520 C.2   128  ASP128      0.2293
     34  O         31.6950   56.5630   16.6010 O.2   128  ASP128     -0.2864
     35  CB        32.4470   53.8880   16.5560 C.3   128  ASP128      0.1436
     36  CG        32.5580   52.3670   16.4830 C.2   128  ASP128      0.3671
     37  OD1       31.5170   51.7010   16.2440 O.co2 128  ASP128     -0.2456
     38  OD2       33.6880   51.8460   16.5910 O.co2 128  ASP128     -0.2456
     39  N         29.7860   54.0860    9.5410 N.3   170  TYR170     -0.1227
     40  CA        31.0700   53.5250    9.1560 C.3   170  TYR170      0.1736
     41  C         31.3770   53.9960    7.7440 C.2   170  TYR170      0.2595
     42  O         30.5360   53.8490    6.8480 O.2   170  TYR170     -0.2718
     43  CB        31.0090   51.9810    9.1720 C.3   170  TYR170      0.0548
     44  CG        30.6860   51.4520   10.5500 C.ar  170  TYR170     -0.0200
     45  CD1       29.3750   51.4360   10.9970 C.ar  170  TYR170     -0.0009
     46  CD2       31.7020   51.1250   11.4480 C.ar  170  TYR170     -0.0009
     47  CE1       29.0680   51.1410   12.3130 C.ar  170  TYR170      0.0417
     48  CE2       31.4130   50.7930   12.7660 C.ar  170  TYR170      0.0417
     49  CZ        30.0860   50.7980   13.1980 C.ar  170  TYR170      0.1957
     50  OH        29.7310   50.4730   14.5110 O.3   170  TYR170     -0.2866
     51  N         32.5900   54.5030    7.5360 N.am  171  PHE171     -0.1962
     52  CA        33.0290   54.9130    6.2020 C.3   171  PHE171      0.1771
     53  C         34.1820   54.0280    5.8030 C.2   171  PHE171      0.2620
     54  O         35.1710   53.9350    6.5440 O.2   171  PHE171     -0.2715
     55  CB        33.4560   56.3740    6.1900 C.3   171  PHE171      0.0574
     56  CG        32.3010   57.3350    6.3500 C.ar  171  PHE171     -0.0200
     57  CD1       31.5120   57.6780    5.2570 C.ar  171  PHE171     -0.0042
     58  CD2       32.0190   57.8950    7.5710 C.ar  171  PHE171     -0.0042
     59  CE1       30.4560   58.5580    5.3800 C.ar  171  PHE171     -0.0003
     60  CE2       30.9490   58.7640    7.7250 C.ar  171  PHE171     -0.0003
     61  CZ        30.1860   59.1270    6.6240 C.ar  171  PHE171     -0.0000
     62  N         33.9460   53.1900    4.8010 N.am  172  GLY172     -0.1954
     63  CA        34.9460   52.1770    4.4260 C.3   172  GLY172      0.1869
     64  C         35.7560   52.6170    3.2200 C.2   172  GLY172      0.2309
     65  O         35.3610   53.5730    2.5190 O.2   172  GLY172     -0.2863
     66  N         39.3740   47.5580    3.9360 N.3   176  THR176     -0.1203
     67  CA        39.1490   47.7550    5.3690 C.3   176  THR176      0.1994
     68  C         38.2170   46.6470    5.8520 C.2   176  THR176      0.2619
     69  O         37.3450   46.1760    5.1080 O.2   176  THR176     -0.2717
     70  CB        38.4860   49.0840    5.6580 C.3   176  THR176      0.1784
     71  OG1       37.2740   49.1850    4.8690 O.3   176  THR176     -0.2211
     72  CG2       39.4410   50.2040    5.3300 C.3   176  THR176      0.0376
     73  N         38.4560   46.1770    7.0720 N.am  177  THR177     -0.1938
     74  CA        38.0710   44.8310    7.4430 C.3   177  THR177      0.2028
     75  C         37.2210   44.9290    8.6950 C.2   177  THR177      0.2642
     76  O         37.5610   45.7000    9.5770 O.2   177  THR177     -0.2714
     77  CB        39.3310   44.0690    7.8660 C.3   177  THR177      0.1808
     78  OG1       40.1340   43.7810    6.7160 O.3   177  THR177     -0.2208
     79  CG2       38.9750   42.7760    8.6340 C.3   177  THR177      0.0379
     80  N         36.1500   44.1480    8.8050 N.am  178  PHE178     -0.1973
     81  CA        35.6200   43.8880   10.1530 C.3   178  PHE178      0.1639
     82  C         35.9440   42.4710   10.5570 C.2   178  PHE178      0.2290
     83  O         35.6240   41.5260    9.8460 O.2   178  PHE178     -0.2864
     84  CB        34.1230   44.2040   10.3290 C.3   178  PHE178      0.0560
     85  CG        33.2240   43.7080    9.2150 C.ar  178  PHE178     -0.0200
     86  CD1       33.1820   44.3680    7.9970 C.ar  178  PHE178     -0.0042
     87  CD2       32.2530   42.7420    9.4880 C.ar  178  PHE178     -0.0042
     88  CE1       32.2950   43.9880    7.0160 C.ar  178  PHE178     -0.0003
     89  CE2       31.3690   42.3360    8.4890 C.ar  178  PHE178     -0.0003
     90  CZ        31.3630   42.9870    7.2630 C.ar  178  PHE178     -0.0000
     91  N         33.3990   38.6130   15.0240 N.3   181  HIS181     -0.1241
     92  CA        32.8320   39.0260   16.3000 C.3   181  HIS181      0.1621
     93  C         31.3360   38.6520   16.3370 C.2   181  HIS181      0.2264
     94  O         30.7300   38.4080   15.2940 O.2   181  HIS181     -0.2867
     95  CB        32.9910   40.5420   16.5230 C.3   181  HIS181      0.0745
     96  CG        32.1740   41.4000   15.5840 C.ar  181  HIS181      0.0817
     97  ND1       32.5440   41.6390   14.2690 N.ar  181  HIS181     -0.2268
     98  CD2       31.0350   42.1210   15.7890 C.ar  181  HIS181      0.1154
     99  CE1       31.6540   42.4500   13.7040 C.ar  181  HIS181      0.1986
    100  NE2       30.7000   42.7220   14.5880 N.ar  181  HIS181     -0.2212
    101  N         27.8870   40.5380   18.3940 N.3   183  GLU183     -0.1245
    102  CA        27.6030   41.8790   18.9000 C.3   183  GLU183      0.1567
    103  C         27.8130   41.9110   20.4140 C.2   183  GLU183      0.2260
    104  O         27.8230   40.8710   21.0720 O.2   183  GLU183     -0.2867
    105  CB        26.1740   42.2880   18.5230 C.3   183  GLU183      0.0388
    106  CG        25.9650   42.3160   16.9970 C.3   183  GLU183      0.1160
    107  CD        26.9970   43.1890   16.2740 C.2   183  GLU183      0.3649
    108  OE1       27.0660   44.3980   16.5650 O.co2 183  GLU183     -0.2457
    109  OE2       27.8070   42.6590   15.5060 O.co2 183  GLU183     -0.2457
    110  N         22.1540   42.9940   15.2720 N.3   189  SER189     -0.1217
    111  CA        22.4760   44.3100   14.7030 C.3   189  SER189      0.1889
    112  C         21.7830   44.4780   13.3670 C.2   189  SER189      0.2288
    113  O         21.3890   43.4970   12.7610 O.2   189  SER189     -0.2866
    114  CB        23.9990   44.4820   14.5040 C.3   189  SER189      0.2089
    115  OG        24.4780   43.5680   13.4910 O.3   189  SER189     -0.2183
    116  N         22.3760   46.7980    9.6880 N.3   191  ASN191     -0.1240
    117  CA        23.3340   47.6220    8.9590 C.3   191  ASN191      0.1653
    118  C         22.6870   47.9760    7.6340 C.2   191  ASN191      0.2266
    119  O         22.2200   47.0860    6.9210 O.2   191  ASN191     -0.2867
    120  CB        24.6210   46.8150    8.7000 C.3   191  ASN191      0.1155
    121  CG        25.6950   47.6360    8.0200 C.2   191  ASN191      0.2627
    122  OD1       25.5740   47.9830    6.8130 O.2   191  ASN191     -0.2716
    123  ND2       26.7570   47.9770    8.7820 N.am  191  ASN191     -0.0877
    124  N         29.8160   45.7880    0.4500 N.3   199  LYS199     -0.1245
    125  CA        30.4790   45.2600    1.6210 C.3   199  LYS199      0.1561
    126  C         30.3110   43.7290    1.5810 C.2   199  LYS199      0.2260
    127  O         29.1980   43.2200    1.4200 O.2   199  LYS199     -0.2867
    128  CB        29.8110   45.9350    2.8530 C.3   199  LYS199      0.0271
    129  CG        30.3050   45.5260    4.2300 C.3   199  LYS199      0.0035
    130  CD        29.4100   46.0690    5.3850 C.3   199  LYS199      0.0206
    131  CE        29.3460   47.5960    5.4540 C.3   199  LYS199      0.1093
    132  NZ        30.6670   48.1760    5.8380 N.3   199  LYS199     -0.1314
    133  N         30.4580   39.8940    3.3310 N.3   201  TRP201     -0.1241
    134  CA        30.2560   39.3820    4.6920 C.3   201  TRP201      0.1605
    135  C         30.5530   37.8740    4.6990 C.2   201  TRP201      0.2264
    136  O         30.1440   37.1710    3.7870 O.2   201  TRP201     -0.2867
    137  CB        28.7850   39.5170    5.0630 C.3   201  TRP201      0.0550
    138  CG        28.2590   40.9100    5.2450 C.ar  201  TRP201      0.0003
    139  CD1       28.0520   41.8550    4.2590 C.ar  201  TRP201      0.0946
    140  CD2       27.8240   41.4980    6.4760 C.ar  201  TRP201      0.0152
    141  NE1       27.4780   42.9740    4.8020 N.ar  201  TRP201     -0.2442
    142  CE2       27.3400   42.7930    6.1660 C.ar  201  TRP201      0.0810
    143  CE3       27.7460   41.0370    7.8090 C.ar  201  TRP201      0.0012
    144  CZ2       26.8360   43.6710    7.1480 C.ar  201  TRP201      0.0191
    145  CZ3       27.2340   41.9190    8.7990 C.ar  201  TRP201      0.0001
    146  CH2       26.7480   43.2080    8.4360 C.ar  201  TRP201      0.0015
    147  N         37.6240   42.3250   18.4250 N.3   234  LYS234     -0.1245
    148  CA        37.5490   42.6110   16.9950 C.3   234  LYS234      0.1561
    149  C         38.9140   42.8380   16.3590 C.2   234  LYS234      0.2260
    150  O         39.0610   43.6790   15.4610 O.2   234  LYS234     -0.2867
    151  CB        36.6580   43.8240   16.6950 C.3   234  LYS234      0.0271
    152  CG        35.2340   43.7240   17.2300 C.3   234  LYS234      0.0035
    153  CD        34.3120   44.6720   16.4630 C.3   234  LYS234      0.0206
    154  CE        33.0130   44.9650   17.2170 C.3   234  LYS234      0.1093
    155  NZ        31.9210   45.3510   16.2520 N.3   234  LYS234     -0.1314
    156  N         30.2620   37.0970   12.6150 N.3   269  HIS269     -0.1241
    157  CA        30.3620   37.6680   11.2640 C.3   269  HIS269      0.1621
    158  C         31.6970   38.3670   11.1410 C.2   269  HIS269      0.2264
    159  O         32.2670   38.8070   12.1430 O.2   269  HIS269     -0.2867
    160  CB        29.2000   38.6260   10.8830 C.3   269  HIS269      0.0745
    161  CG        28.9230   39.7290   11.8750 C.ar  269  HIS269      0.0817
    162  ND1       28.2320   39.5070   13.0550 N.ar  269  HIS269     -0.2268
    163  CD2       29.1780   41.0690   11.8390 C.ar  269  HIS269      0.1154
    164  CE1       28.1870   40.6390   13.7550 C.ar  269  HIS269      0.1986
    165  NE2       28.6880   41.6200   13.0160 N.ar  269  HIS269     -0.2212
    166  N         35.2750   45.8920    3.1040 N.3   273  ASN273     -0.1240
    167  CA        34.6880   46.8290    2.1640 C.3   273  ASN273      0.1653
    168  C         35.3740   46.7690    0.8150 C.2   273  ASN273      0.2266
    169  O         36.5940   46.5850    0.7450 O.2   273  ASN273     -0.2867
    170  CB        34.6890   48.2390    2.7380 C.3   273  ASN273      0.1155
    171  CG        33.8170   48.3370    3.9910 C.2   273  ASN273      0.2627
    172  OD1       32.6060   48.0970    3.9270 O.2   273  ASN273     -0.2716
    173  ND2       34.4260   48.6430    5.1250 N.am  273  ASN273     -0.0877
@<TRIPOS>BOND
     1   124   125    1
     2   169   168    2
     3   168   167    1
     4   127   126    2
     5   126   125    1
     6   125   128    1
     7   167   170    1
     8   167   166    1
     9    65    64    2
    10   170   171    1
    11   128   129    1
    12    64    63    1
    13   133   134    1
    14   136   135    2
    15   172   171    2
    16    66    67    1
    17   171   173   am
    18   129   130    1
    19   139   141   ar
    20   139   138   ar
    21    63    62    1
    22   134   135    1
    23   134   137    1
    24    62    53   am
    25   141   142   ar
    26    71    70    1
    27   137   138    1
    28    69    68    2
    29   138   140   ar
    30    57    59   ar
    31    57    56   ar
    32    72    70    1
    33    67    70    1
    34    67    68    1
    35    59    61   ar
    36   130   131    1
    37   131   132    1
    38    53    52    1
    39    53    54    2
    40    68    73   am
    41   142   140   ar
    42   142   144   ar
    43    55    52    1
    44    55    56    1
    45    52    51    1
    46    56    58   ar
    47   140   143   ar
    48    61    60   ar
    49    78    77    1
    50   122   121    2
    51    42    41    2
    52   119   118    2
    53    88    90   ar
    54    88    86   ar
    55    73    74    1
    56   144   146   ar
    57    90    89   ar
    58    74    77    1
    59    74    75    1
    60    51    41   am
    61    58    60   ar
    62   118   117    1
    63    41    40    1
    64    10    11    1
    65   143   145   ar
    66    77    79    1
    67    11    14    1
    68    11    12    1
    69    86    85   ar
    70   121   120    1
    71   121   123   am
    72    14    15    1
    73     8     7    2
    74   146   145   ar
    75    89    87   ar
    76     4     3    2
    77    75    80   am
    78    75    76    2
    79   120   117    1
    80    80    81    1
    81    22    12   am
    82    22    23    1
    83   117   116    1
    84    12    13    2
    85    40    43    1
    86    40    39    1
    87    43    44    1
    88    85    87   ar
    89    85    84    1
    90     5     6    1
    91     5     2    1
    92    15    17   ar
    93    15    16   ar
    94     7     6    1
    95     7     9   am
    96    17    19   ar
    97     1     2    1
    98     3     2    1
    99    25    24    2
   100    83    82    2
   101    23    24    1
   102    81    84    1
   103    81    82    1
   104    16    18   ar
   105    44    45   ar
   106    44    46   ar
   107    24    26   am
   108    19    20   ar
   109   160   157    1
   110   160   161    1
   111    45    47   ar
   112   158   157    1
   113   158   159    2
   114   157   156    1
   115    46    48   ar
   116    18    20   ar
   117   163   161   ar
   118   163   165   ar
   119   161   162   ar
   120    20    21    1
   121    26    27    1
   122    47    49   ar
   123    27    30    1
   124    27    28    1
   125   113   112    2
   126    48    49   ar
   127   165   164   ar
   128   162   164   ar
   129    49    50    1
   130   112   111    1
   131   115   114    1
   132    99    97   ar
   133    99   100   ar
   134    28    31   am
   135    28    29    2
   136    31    32    1
   137    97    96   ar
   138   114   111    1
   139   100    98   ar
   140   111   110    1
   141    91    92    1
   142    94    93    2
   143    32    33    1
   144    32    35    1
   145   150   149    2
   146   109   107   ar
   147    33    34    2
   148    96    98   ar
   149    96    95    1
   150    37    36   ar
   151   155   154    1
   152   107   108   ar
   153   107   106    1
   154    92    93    1
   155    92    95    1
   156   149   148    1
   157   153   154    1
   158   153   152    1
   159    36    35    1
   160    36    38   ar
   161   151   148    1
   162   151   152    1
   163   148   147    1
   164   106   105    1
   165   101   102    1
   166   105   102    1
   167   102   103    1
   168   103   104    2
