@<TRIPOS>MOLECULE
tmp/5kr8A00.pdb
 155 147 0 0 0
SMALL
GASTEIGER

@<TRIPOS>ATOM
      1  N         25.7020   43.3970   -1.2170 N.3    14  GLN14      -0.1245
      2  CA        25.9010   42.1390   -1.9440 C.3    14  GLN14       0.1566
      3  C         24.8720   41.0730   -1.5610 C.2    14  GLN14       0.2260
      4  O         24.9720   39.9170   -1.9870 O.2    14  GLN14      -0.2867
      5  CB        27.3270   41.6150   -1.7370 C.3    14  GLN14       0.0367
      6  CG        28.4140   42.4780   -2.3740 C.3    14  GLN14       0.0905
      7  CD        29.8140   41.9140   -2.1850 C.2    14  GLN14       0.2608
      8  OE1       30.0110   40.9110   -1.4970 O.2    14  GLN14      -0.2717
      9  NE2       30.7960   42.5610   -2.8010 N.am   14  GLN14      -0.0878
     10  N         22.2770   32.9260   -1.9730 N.3    32  LEU32      -0.1245
     11  CA        21.5620   34.1750   -1.7160 C.3    32  LEU32       0.1561
     12  C         20.0760   33.9330   -1.4480 C.2    32  LEU32       0.2260
     13  O         19.4030   33.2380   -2.2100 O.2    32  LEU32      -0.2867
     14  CB        21.7270   35.1330   -2.8990 C.3    32  LEU32       0.0270
     15  CG        21.2320   36.5690   -2.7080 C.3    32  LEU32       0.0019
     16  CD1       22.3870   37.4840   -2.3470 C.3    32  LEU32       0.0001
     17  CD2       20.5540   37.0590   -3.9670 C.3    32  LEU32       0.0001
     18  N         16.4190   35.1080   -1.5240 N.3    34  ASP34      -0.1239
     19  CA        15.7040   36.0410   -2.3950 C.3    34  ASP34       0.1674
     20  C         14.1940   35.7950   -2.4360 C.2    34  ASP34       0.2266
     21  O         13.7240   34.8630   -3.0950 O.2    34  ASP34      -0.2867
     22  CB        16.2980   35.9850   -3.8080 C.3    34  ASP34       0.1410
     23  CG        15.6360   36.9550   -4.7710 C.2    34  ASP34       0.3668
     24  OD1       15.0820   37.9840   -4.3250 O.co2  34  ASP34      -0.2456
     25  OD2       15.6820   36.6900   -5.9880 O.co2  34  ASP34      -0.2456
     26  N         12.1470   37.6570   -3.8920 N.3    36  GLY36      -0.1210
     27  CA        11.6590   38.2840   -5.1230 C.3    36  GLY36       0.1956
     28  C         11.7820   37.4450   -6.3840 C.2    36  GLY36       0.2612
     29  O         11.5630   37.9460   -7.4890 O.2    36  GLY36      -0.2717
     30  N         12.1470   36.1750   -6.2220 N.am   37  SER37      -0.1952
     31  CA        12.1850   35.2170   -7.3320 C.3    37  SER37       0.1924
     32  C         11.8100   33.8200   -6.8310 C.2    37  SER37       0.2314
     33  O         11.6230   33.6270   -5.6290 O.2    37  SER37      -0.2863
     34  CB        13.5570   35.2120   -8.0130 C.3    37  SER37       0.2116
     35  OG        14.5660   34.7370   -7.1370 O.3    37  SER37      -0.2180
     36  N         17.1190   39.2570  -16.9360 N.3    73  TYR73      -0.1227
     37  CA        16.5810   40.2840  -16.0450 C.3    73  TYR73       0.1736
     38  C         16.7510   41.6600  -16.6830 C.2    73  TYR73       0.2596
     39  O         17.2230   41.7700  -17.8170 O.2    73  TYR73      -0.2718
     40  CB        17.2900   40.2580  -14.6860 C.3    73  TYR73       0.0548
     41  CG        17.2800   38.9200  -13.9840 C.ar   73  TYR73      -0.0200
     42  CD1       16.1140   38.4190  -13.4030 C.ar   73  TYR73      -0.0009
     43  CD2       18.4450   38.1640  -13.8810 C.ar   73  TYR73      -0.0009
     44  CE1       16.1060   37.1900  -12.7510 C.ar   73  TYR73       0.0417
     45  CE2       18.4500   36.9380  -13.2300 C.ar   73  TYR73       0.0417
     46  CZ        17.2800   36.4570  -12.6690 C.ar   73  TYR73       0.1957
     47  OH        17.2860   35.2430  -12.0230 O.3    73  TYR73      -0.2866
     48  N         16.3640   42.7010  -15.9480 N.am   74  THR74      -0.1939
     49  CA        16.5910   44.0840  -16.3650 C.3    74  THR74       0.2028
     50  C         18.0910   44.3760  -16.3940 C.2    74  THR74       0.2642
     51  O         18.6000   44.9830  -17.3400 O.2    74  THR74      -0.2714
     52  CB        15.8970   45.0840  -15.4110 C.3    74  THR74       0.1808
     53  OG1       14.6050   44.5840  -15.0390 O.3    74  THR74      -0.2208
     54  CG2       15.7400   46.4480  -16.0770 C.3    74  THR74       0.0379
     55  N         18.7850   43.9270  -15.3510 N.am   75  GLN75      -0.1976
     56  CA        20.2240   44.1040  -15.2170 C.3    75  GLN75       0.1601
     57  C         20.9120   42.7450  -15.0890 C.2    75  GLN75       0.2287
     58  O         21.0840   42.2260  -13.9810 O.2    75  GLN75      -0.2864
     59  CB        20.5360   44.9730  -13.9950 C.3    75  GLN75       0.0394
     60  CG        20.0720   46.4030  -14.1960 C.3    75  GLN75       0.0908
     61  CD        20.8700   47.1300  -15.2610 C.2    75  GLN75       0.2608
     62  OE1       22.0730   46.8940  -15.4300 O.2    75  GLN75      -0.2717
     63  NE2       20.2390   48.0030  -15.9530 N.am   75  GLN75      -0.0878
     64  N         26.5200   39.6310  -15.7840 N.3   109  LYS109     -0.1231
     65  CA        26.1210   40.6060  -14.7570 C.3   109  LYS109      0.1693
     66  C         25.1890   40.0090  -13.6960 C.2   109  LYS109      0.2592
     67  O         24.2640   40.6730  -13.2200 O.2   109  LYS109     -0.2718
     68  CB        25.4830   41.8490  -15.3970 C.3   109  LYS109      0.0285
     69  CG        26.4450   42.7320  -16.1760 C.3   109  LYS109      0.0035
     70  CD        25.6780   43.7880  -16.9640 C.3   109  LYS109      0.0206
     71  CE        26.5740   44.9360  -17.3960 C.3   109  LYS109      0.1093
     72  NZ        27.5690   44.5490  -18.4340 N.3   109  LYS109     -0.1314
     73  N         25.4430   38.7530  -13.3370 N.am  110  PHE110     -0.1976
     74  CA        24.6290   38.0380  -12.3580 C.3   110  PHE110      0.1639
     75  C         25.4110   37.8160  -11.0650 C.2   110  PHE110      0.2290
     76  O         24.9870   38.2610   -9.9970 O.2   110  PHE110     -0.2864
     77  CB        24.1260   36.7120  -12.9440 C.3   110  PHE110      0.0560
     78  CG        23.3180   35.8850  -11.9810 C.ar  110  PHE110     -0.0200
     79  CD1       22.0630   36.3110  -11.5540 C.ar  110  PHE110     -0.0042
     80  CD2       23.8060   34.6690  -11.5130 C.ar  110  PHE110     -0.0042
     81  CE1       21.3120   35.5450  -10.6650 C.ar  110  PHE110     -0.0003
     82  CE2       23.0640   33.8950  -10.6280 C.ar  110  PHE110     -0.0003
     83  CZ        21.8140   34.3340  -10.2020 C.ar  110  PHE110     -0.0000
     84  N         28.4810   38.4930   -8.4790 N.3   112  ILE112     -0.1245
     85  CA        29.1840   39.7090   -8.0730 C.3   112  ILE112      0.1561
     86  C         30.6600   39.4070   -7.8260 C.2   112  ILE112      0.2260
     87  O         30.9990   38.4640   -7.1060 O.2   112  ILE112     -0.2867
     88  CB        28.5490   40.3520   -6.8090 C.3   112  ILE112      0.0252
     89  CG1       27.0490   40.5970   -7.0200 C.3   112  ILE112      0.0019
     90  CG2       29.2680   41.6590   -6.4420 C.3   112  ILE112      0.0019
     91  CD1       26.2700   40.8930   -5.7440 C.3   112  ILE112      0.0001
     92  N         28.8560   34.3230   -2.3460 N.3   117  TRP117     -0.1241
     93  CA        27.7860   33.4050   -2.7310 C.3   117  TRP117      0.1605
     94  C         27.9150   32.9580   -4.1870 C.2   117  TRP117      0.2264
     95  O         28.4970   33.6610   -5.0180 O.2   117  TRP117     -0.2867
     96  CB        26.3940   33.9910   -2.4410 C.3   117  TRP117      0.0550
     97  CG        26.0940   35.2990   -3.1220 C.ar  117  TRP117      0.0003
     98  CD1       26.2650   36.5500   -2.6010 C.ar  117  TRP117      0.0946
     99  CD2       25.5480   35.4850   -4.4360 C.ar  117  TRP117      0.0152
    100  NE1       25.8700   37.5000   -3.5100 N.ar  117  TRP117     -0.2442
    101  CE2       25.4250   36.8760   -4.6450 C.ar  117  TRP117      0.0810
    102  CE3       25.1570   34.6090   -5.4600 C.ar  117  TRP117      0.0012
    103  CZ2       24.9280   37.4150   -5.8370 C.ar  117  TRP117      0.0191
    104  CZ3       24.6620   35.1460   -6.6460 C.ar  117  TRP117      0.0001
    105  CH2       24.5540   36.5380   -6.8230 C.ar  117  TRP117      0.0015
    106  N         21.4130   31.2510   -5.9420 N.3   120  ILE120     -0.1245
    107  CA        20.2530   32.0170   -5.4900 C.3   120  ILE120      0.1561
    108  C         19.0890   31.0970   -5.1110 C.2   120  ILE120      0.2260
    109  O         18.7740   30.1450   -5.8300 O.2   120  ILE120     -0.2867
    110  CB        19.8320   33.0890   -6.5420 C.3   120  ILE120      0.0252
    111  CG1       18.7640   34.0280   -5.9710 C.3   120  ILE120      0.0019
    112  CG2       19.3810   32.4440   -7.8650 C.3   120  ILE120      0.0019
    113  CD1       18.6820   35.3580   -6.6920 C.3   120  ILE120      0.0001
    114  N          4.7620   36.9480   -6.6490 N.3   188  TYR188     -0.1241
    115  CA         5.6940   37.6130   -5.7510 C.3   188  TYR188      0.1605
    116  C          5.0140   37.6340   -4.3820 C.2   188  TYR188      0.2264
    117  O          3.8620   37.2070   -4.2490 O.2   188  TYR188     -0.2867
    118  CB         5.9550   39.0500   -6.2050 C.3   188  TYR188      0.0534
    119  CG         6.6250   39.2030   -7.5540 C.ar  188  TYR188     -0.0201
    120  CD1        8.0150   39.2640   -7.6580 C.ar  188  TYR188     -0.0009
    121  CD2        5.8710   39.3150   -8.7220 C.ar  188  TYR188     -0.0009
    122  CE1        8.6380   39.4150   -8.8940 C.ar  188  TYR188      0.0417
    123  CE2        6.4840   39.4670   -9.9640 C.ar  188  TYR188      0.0417
    124  CZ         7.8660   39.5150  -10.0400 C.ar  188  TYR188      0.1957
    125  OH         8.4770   39.6650  -11.2630 O.3   188  TYR188     -0.2866
    126  N         10.9140   42.0990   -1.0260 N.3   218  ASP218     -0.1239
    127  CA        12.0090   41.4950   -1.7880 C.3   218  ASP218      0.1674
    128  C         13.3630   41.6120   -1.0840 C.2   218  ASP218      0.2266
    129  O         13.9740   42.6830   -1.0570 O.2   218  ASP218     -0.2867
    130  CB        12.0670   42.1260   -3.1860 C.3   218  ASP218      0.1410
    131  CG        13.0930   41.4710   -4.0960 C.2   218  ASP218      0.3668
    132  OD1       13.6850   40.4370   -3.7160 O.co2 218  ASP218     -0.2456
    133  OD2       13.3080   41.9980   -5.2060 O.co2 218  ASP218     -0.2456
    134  N         16.0810   40.2470   -2.0580 N.3   220  GLY220     -0.1210
    135  CA        17.1360   40.2580   -3.0730 C.3   220  GLY220      0.1956
    136  C         17.4010   41.6190   -3.6920 C.2   220  GLY220      0.2612
    137  O         18.2670   41.7510   -4.5580 O.2   220  GLY220     -0.2717
    138  N         16.6470   42.6250   -3.2500 N.am  221  THR221     -0.1952
    139  CA        16.8280   44.0120   -3.6820 C.3   221  THR221      0.1897
    140  C         17.2930   44.8560   -2.4950 C.2   221  THR221      0.2313
    141  O         16.7920   44.6990   -1.3810 O.2   221  THR221     -0.2863
    142  CB        15.5130   44.5970   -4.2600 C.3   221  THR221      0.1794
    143  OG1       15.0830   43.8050   -5.3730 O.3   221  THR221     -0.2208
    144  CG2       15.7000   46.0400   -4.7250 C.3   221  THR221      0.0378
    145  N         12.3260   50.7560   -3.6370 N.3   225  ARG225     -0.1245
    146  CA        11.9640   51.2490   -4.9600 C.3   225  ARG225      0.1563
    147  C         10.5140   51.7050   -4.9540 C.2   225  ARG225      0.2260
    148  O          9.6380   51.0020   -4.4470 O.2   225  ARG225     -0.2867
    149  CB        12.1940   50.1730   -6.0250 C.3   225  ARG225      0.0307
    150  CG        13.6310   49.7300   -6.2190 C.3   225  ARG225      0.0489
    151  CD        13.7490   48.5800   -7.2040 C.3   225  ARG225      0.2205
    152  NE        13.8010   49.0910   -8.5690 N.pl3 225  ARG225     -0.0865
    153  CZ        13.6750   48.3430   -9.6600 C.cat 225  ARG225      0.5346
    154  NH1       13.4640   47.0390   -9.5410 N.pl3 225  ARG225      0.1354
    155  NH2       13.7510   48.9130  -10.8550 N.pl3 225  ARG225      0.1354
@<TRIPOS>BOND
     1    72    71    1
     2    39    38    2
     3    71    70    1
     4    51    50    2
     5    70    69    1
     6    36    37    1
     7    38    37    1
     8    38    48   am
     9    50    49    1
    10    50    55   am
    11    49    48    1
    12    49    52    1
    13    69    68    1
    14    54    52    1
    15    37    40    1
    16    63    61   am
    17    64    65    1
    18    62    61    2
    19    52    53    1
    20    68    65    1
    21    55    56    1
    22    61    60    1
    23    56    57    1
    24    56    59    1
    25    57    58    2
    26    65    66    1
    27    40    41    1
    28    60    59    1
    29    41    43   ar
    30    41    42   ar
    31    43    45   ar
    32    66    73   am
    33    66    67    2
    34    42    44   ar
    35    73    74    1
    36    45    46   ar
    37    77    74    1
    38    77    78    1
    39    44    46   ar
    40    46    47    1
    41    74    75    1
    42    78    79   ar
    43    78    80   ar
    44    79    81   ar
    45    80    82   ar
    46   125   124    1
    47    75    76    2
    48   155   153    1
    49    81    83   ar
    50    82    83   ar
    51   124   123   ar
    52   124   122   ar
    53   123   121   ar
    54   153   154    1
    55   153   152    2
    56   122   120   ar
    57   121   119   ar
    58   152   151    1
    59    84    85    1
    60    85    86    1
    61    85    88    1
    62    34    31    1
    63    34    35    1
    64   112   110    1
    65    86    87    2
    66   120   119   ar
    67   119   118    1
    68    29    28    2
    69    31    32    1
    70    31    30    1
    71   151   150    1
    72    89    88    1
    73    89    91    1
    74    32    33    2
    75   105   104   ar
    76   105   103   ar
    77    88    90    1
    78   113   111    1
    79   114   115    1
    80   104   102   ar
    81   110   111    1
    82   110   107    1
    83    28    30   am
    84    28    27    1
    85   150   149    1
    86   118   115    1
    87   149   146    1
    88    25    23   ar
    89   106   107    1
    90   103   101   ar
    91   109   108    2
    92   115   116    1
    93   107   108    1
    94   102    99   ar
    95   143   142    1
    96   133   131   ar
    97    27    26    1
    98    95    94    2
    99   146   147    1
   100   146   145    1
   101   147   148    2
   102    23    24   ar
   103    23    22    1
   104   144   142    1
   105   101    99   ar
   106   101   100   ar
   107   137   136    2
   108    99    97   ar
   109   116   117    2
   110   142   139    1
   111    94    93    1
   112   131   132   ar
   113   131   130    1
   114    17    15    1
   115    22    19    1
   116   136   138   am
   117   136   135    1
   118   139   138    1
   119   139   140    1
   120   100    98   ar
   121   130   127    1
   122    97    98   ar
   123    97    96    1
   124    21    20    2
   125   135   134    1
   126    14    15    1
   127    14    11    1
   128     9     7   am
   129    93    96    1
   130    93    92    1
   131    15    16    1
   132   140   141    2
   133    20    19    1
   134    19    18    1
   135     6     7    1
   136     6     5    1
   137    13    12    2
   138     7     8    2
   139     4     3    2
   140    10    11    1
   141     2     5    1
   142     2     3    1
   143     2     1    1
   144   127   128    1
   145   127   126    1
   146    11    12    1
   147   128   129    2
