@<TRIPOS>MOLECULE
tmp/5kr9A00.pdb
 145 133 0 0 0
SMALL
GASTEIGER

@<TRIPOS>ATOM
      1  N        -25.6450  -32.3160   -3.2080 N.3    40  MET40      -0.1245
      2  CA       -25.7390  -31.0080   -3.8410 C.3    40  MET40       0.1570
      3  C        -26.3610  -29.9970   -2.8880 C.2    40  MET40       0.2261
      4  O        -25.9470  -28.8390   -2.8360 O.2    40  MET40      -0.2867
      5  CB       -26.5570  -31.0940   -5.1310 C.3    40  MET40       0.0387
      6  CG       -25.8380  -31.7950   -6.2700 C.3    40  MET40       0.0595
      7  SD       -24.3020  -30.9540   -6.6940 S.3    40  MET40      -0.1393
      8  CE       -24.9010  -29.2980   -7.0190 C.3    40  MET40       0.0692
      9  N        -23.6480  -28.9020   -0.3980 N.3    43  LEU43      -0.1231
     10  CA       -22.6120  -28.0520   -0.9800 C.3    43  LEU43       0.1693
     11  C        -23.1100  -26.6400   -1.2410 C.2    43  LEU43       0.2592
     12  O        -22.3900  -25.6680   -1.0150 O.2    43  LEU43      -0.2718
     13  CB       -22.0890  -28.6510   -2.2870 C.3    43  LEU43       0.0284
     14  CG       -21.4150  -30.0210   -2.2250 C.3    43  LEU43       0.0019
     15  CD1      -20.6070  -30.2610   -3.4950 C.3    43  LEU43       0.0001
     16  CD2      -20.5450  -30.1440   -0.9840 C.3    43  LEU43       0.0001
     17  N        -24.3420  -26.5310   -1.7230 N.am   44  THR44      -0.1953
     18  CA       -24.9050  -25.2320   -2.0700 C.3    44  THR44       0.1897
     19  C        -25.3730  -24.4780   -0.8220 C.2    44  THR44       0.2313
     20  O        -25.2920  -23.2490   -0.7680 O.2    44  THR44      -0.2863
     21  CB       -26.0670  -25.3820   -3.0660 C.3    44  THR44       0.1794
     22  OG1      -27.0560  -26.2620   -2.5220 O.3    44  THR44      -0.2208
     23  CG2      -25.5580  -25.9580   -4.3820 C.3    44  THR44       0.0378
     24  N        -23.8730  -24.8380    2.1440 N.3    46  LEU46      -0.1231
     25  CA       -22.5890  -24.3810    2.6640 C.3    46  LEU46       0.1693
     26  C        -22.0660  -23.1740    1.8900 C.2    46  LEU46       0.2591
     27  O        -21.5860  -22.2060    2.4840 O.2    46  LEU46      -0.2718
     28  CB       -21.5570  -25.5080    2.6190 C.3    46  LEU46       0.0284
     29  CG       -20.1600  -25.0990    3.0870 C.3    46  LEU46       0.0019
     30  CD1      -20.1590  -24.7770    4.5800 C.3    46  LEU46       0.0001
     31  CD2      -19.1350  -26.1740    2.7550 C.3    46  LEU46       0.0001
     32  N        -22.1690  -23.2360    0.5640 N.am   47  ALA47      -0.1980
     33  CA       -21.6980  -22.1570   -0.3000 C.3    47  ALA47       0.1597
     34  C        -22.4820  -20.8790   -0.0460 C.2    47  ALA47       0.2287
     35  O        -21.9200  -19.7850   -0.0340 O.2    47  ALA47      -0.2864
     36  CB       -21.8030  -22.5620   -1.7690 C.3    47  ALA47       0.0319
     37  N        -21.2290  -19.4130    3.2780 N.3    50  GLU50      -0.1245
     38  CA       -19.8560  -18.9220    3.1450 C.3    50  GLU50       0.1567
     39  C        -19.7800  -17.6070    2.3760 C.2    50  GLU50       0.2260
     40  O        -18.8600  -16.8130    2.5830 O.2    50  GLU50      -0.2867
     41  CB       -18.9760  -19.9590    2.4440 C.3    50  GLU50       0.0388
     42  CG       -18.5580  -21.1330    3.3030 C.3    50  GLU50       0.1160
     43  CD       -17.5900  -22.0460    2.5800 C.2    50  GLU50       0.3649
     44  OE1      -18.0550  -22.9770    1.8970 O.co2  50  GLU50      -0.2457
     45  OE2      -16.3660  -21.8290    2.6850 O.co2  50  GLU50      -0.2457
     46  N        -16.7060  -18.1930   -6.9030 N.3    81  LEU81      -0.1245
     47  CA       -16.5270  -19.6410   -6.8960 C.3    81  LEU81       0.1561
     48  C        -15.0440  -20.0070   -6.8430 C.2    81  LEU81       0.2260
     49  O        -14.6720  -20.9970   -6.2120 O.2    81  LEU81      -0.2867
     50  CB       -17.1980  -20.2850   -8.1120 C.3    81  LEU81       0.0270
     51  CG       -17.1510  -21.8190   -8.1660 C.3    81  LEU81       0.0019
     52  CD1      -17.6630  -22.4420   -6.8690 C.3    81  LEU81       0.0001
     53  CD2      -17.9300  -22.3570   -9.3670 C.3    81  LEU81       0.0001
     54  N        -14.2090  -19.6960   -3.1950 N.3    84  LEU84      -0.1231
     55  CA       -14.7040  -20.8600   -2.4680 C.3    84  LEU84       0.1693
     56  C        -13.8110  -22.0670   -2.7140 C.2    84  LEU84       0.2591
     57  O        -13.5410  -22.8530   -1.8070 O.2    84  LEU84      -0.2718
     58  CB       -16.1420  -21.1910   -2.8760 C.3    84  LEU84       0.0284
     59  CG       -17.2540  -20.2760   -2.3660 C.3    84  LEU84       0.0019
     60  CD1      -18.6140  -20.8300   -2.7700 C.3    84  LEU84       0.0001
     61  CD2      -17.1590  -20.1160   -0.8580 C.3    84  LEU84       0.0001
     62  N        -13.3550  -22.2060   -3.9530 N.am   85  MET85      -0.1979
     63  CA       -12.5680  -23.3650   -4.3510 C.3    85  MET85       0.1605
     64  C        -11.1680  -23.3690   -3.7500 C.2    85  MET85       0.2287
     65  O        -10.7190  -24.3930   -3.2360 O.2    85  MET85      -0.2864
     66  CB       -12.4880  -23.4460   -5.8760 C.3    85  MET85       0.0413
     67  CG       -13.7410  -24.0330   -6.5060 C.3    85  MET85       0.0598
     68  SD       -13.6860  -24.0140   -8.3020 S.3    85  MET85      -0.1393
     69  CE       -14.9200  -25.2410   -8.7120 C.3    85  MET85       0.0692
     70  N        -11.4180  -24.2840   -0.2010 N.3    88  LEU88      -0.1245
     71  CA       -11.6200  -25.7230   -0.0840 C.3    88  LEU88       0.1561
     72  C        -10.3150  -26.4890   -0.2550 C.2    88  LEU88       0.2260
     73  O        -10.0100  -27.4080    0.5100 O.2    88  LEU88      -0.2867
     74  CB       -12.6360  -26.1960   -1.1220 C.3    88  LEU88       0.0270
     75  CG       -12.7990  -27.7100   -1.2520 C.3    88  LEU88       0.0019
     76  CD1      -13.2530  -28.3030    0.0710 C.3    88  LEU88       0.0001
     77  CD2      -13.7740  -28.0480   -2.3660 C.3    88  LEU88       0.0001
     78  N         -8.0510  -25.9600    2.8320 N.3    91  ARG91      -0.1245
     79  CA        -8.5190  -26.7800    3.9490 C.3    91  ARG91       0.1563
     80  C         -8.2440  -28.2670    3.7370 C.2    91  ARG91       0.2260
     81  O         -8.1180  -29.0250    4.6990 O.2    91  ARG91      -0.2867
     82  CB       -10.0240  -26.5770    4.1780 C.3    91  ARG91       0.0307
     83  CG       -10.4400  -25.1460    4.4720 C.3    91  ARG91       0.0489
     84  CD       -11.8720  -25.0780    4.9820 C.3    91  ARG91       0.2205
     85  NE       -12.8420  -25.6370    4.0410 N.pl3  91  ARG91      -0.0865
     86  CZ       -13.3990  -24.9530    3.0460 C.cat  91  ARG91       0.5346
     87  NH1      -13.0760  -23.6820    2.8460 N.pl3  91  ARG91       0.1354
     88  NH2      -14.2770  -25.5420    2.2440 N.pl3  91  ARG91       0.1354
     89  N        -14.8110  -30.0330    2.7040 N.3   101  PHE101     -0.1241
     90  CA       -15.8060  -28.9890    2.4890 C.3   101  PHE101      0.1605
     91  C        -16.1160  -28.3040    3.8130 C.2   101  PHE101      0.2264
     92  O        -16.2370  -27.0800    3.8850 O.2   101  PHE101     -0.2867
     93  CB       -17.0780  -29.5670    1.8620 C.3   101  PHE101      0.0534
     94  CG       -16.9260  -29.9320    0.4090 C.ar  101  PHE101     -0.0203
     95  CD1      -17.2150  -29.0130   -0.5860 C.ar  101  PHE101     -0.0042
     96  CD2      -16.4870  -31.1920    0.0410 C.ar  101  PHE101     -0.0042
     97  CE1      -17.0760  -29.3470   -1.9240 C.ar  101  PHE101     -0.0003
     98  CE2      -16.3450  -31.5330   -1.2950 C.ar  101  PHE101     -0.0003
     99  CZ       -16.6410  -30.6090   -2.2780 C.ar  101  PHE101     -0.0000
    100  N        -19.6350  -34.5020  -11.2770 N.3   118  MET118     -0.1245
    101  CA       -18.9570  -33.9260  -10.1220 C.3   118  MET118      0.1570
    102  C        -17.5820  -34.5510   -9.8950 C.2   118  MET118      0.2261
    103  O        -16.6710  -33.8960   -9.3840 O.2   118  MET118     -0.2867
    104  CB       -19.8240  -34.0870   -8.8690 C.3   118  MET118      0.0387
    105  CG       -19.1940  -33.5590   -7.5920 C.3   118  MET118      0.0595
    106  SD       -18.8870  -31.7810   -7.6180 S.3   118  MET118     -0.1393
    107  CE       -20.5500  -31.1420   -7.4420 C.3   118  MET118      0.0692
    108  N        -14.7370  -32.7470  -11.3160 N.3   121  ILE121     -0.1245
    109  CA       -14.4350  -31.5460  -10.5540 C.3   121  ILE121      0.1561
    110  C        -13.6440  -31.9030   -9.3000 C.2   121  ILE121      0.2260
    111  O        -12.6840  -31.2140   -8.9460 O.2   121  ILE121     -0.2867
    112  CB       -15.7190  -30.7890  -10.1730 C.3   121  ILE121      0.0252
    113  CG1      -16.4780  -30.3760  -11.4350 C.3   121  ILE121      0.0019
    114  CG2      -15.3960  -29.5710   -9.3210 C.3   121  ILE121      0.0019
    115  CD1      -17.7340  -29.5790  -11.1630 C.3   121  ILE121      0.0001
    116  N         -9.8160  -30.5000   -8.2170 N.3   125  LEU125     -0.1245
    117  CA        -9.6430  -29.9140   -6.8920 C.3   125  LEU125      0.1561
    118  C         -8.5920  -30.6680   -6.0780 C.2   125  LEU125      0.2260
    119  O         -7.7220  -30.0550   -5.4560 O.2   125  LEU125     -0.2867
    120  CB       -10.9770  -29.8990   -6.1400 C.3   125  LEU125      0.0270
    121  CG       -12.0530  -28.9640   -6.6980 C.3   125  LEU125      0.0019
    122  CD1      -13.4290  -29.3510   -6.1790 C.3   125  LEU125      0.0001
    123  CD2      -11.7380  -27.5180   -6.3460 C.3   125  LEU125      0.0001
    124  N        -17.0820  -25.7380  -12.6620 N.3   208  GLY208     -0.1225
    125  CA       -18.0300  -25.7250  -11.5640 C.3   208  GLY208      0.1811
    126  C        -19.2250  -24.8290  -11.8230 C.2   208  GLY208      0.2280
    127  O        -20.3510  -25.1710  -11.4670 O.2   208  GLY208     -0.2866
    128  N        -21.4340  -26.6450  -14.1360 N.3   211  HIS211     -0.1226
    129  CA       -22.0630  -27.7510  -13.4270 C.3   211  HIS211      0.1752
    130  C        -23.1970  -27.2610  -12.5310 C.2   211  HIS211      0.2595
    131  O        -24.2360  -27.9120  -12.4200 O.2   211  HIS211     -0.2718
    132  CB       -21.0280  -28.5110  -12.5950 C.3   211  HIS211      0.0759
    133  CG       -21.5570  -29.7680  -11.9770 C.ar  211  HIS211      0.0818
    134  ND1      -21.9610  -29.8390  -10.6610 N.ar  211  HIS211     -0.2268
    135  CD2      -21.7420  -31.0040  -12.4960 C.ar  211  HIS211      0.1154
    136  CE1      -22.3780  -31.0660  -10.3980 C.ar  211  HIS211      0.1986
    137  NE2      -22.2550  -31.7920  -11.4940 N.ar  211  HIS211     -0.2212
    138  N        -22.9830  -26.1150  -11.8920 N.am  212  LEU212     -0.1980
    139  CA       -23.9820  -25.5160  -11.0170 C.3   212  LEU212      0.1596
    140  C        -25.2110  -25.0990  -11.8200 C.2   212  LEU212      0.2287
    141  O        -26.3480  -25.2830  -11.3780 O.2   212  LEU212     -0.2864
    142  CB       -23.3900  -24.3110  -10.2830 C.3   212  LEU212      0.0297
    143  CG       -24.1120  -23.8540   -9.0150 C.3   212  LEU212      0.0022
    144  CD1      -24.0990  -24.9600   -7.9720 C.3   212  LEU212      0.0001
    145  CD2      -23.4800  -22.5830   -8.4610 C.3   212  LEU212      0.0001
@<TRIPOS>BOND
     1   128   129    1
     2   129   132    1
     3   129   130    1
     4   124   125    1
     5   132   133    1
     6   130   131    2
     7   130   138   am
     8   135   133   ar
     9   135   137   ar
    10   133   134   ar
    11   138   139    1
    12   126   125    1
    13   126   127    2
    14   140   141    2
    15   140   139    1
    16   137   136   ar
    17   113   115    1
    18   113   112    1
    19   108   109    1
    20   100   101    1
    21   139   142    1
    22   134   136   ar
    23   109   112    1
    24   109   110    1
    25   142   143    1
    26   112   114    1
    27   101   102    1
    28   101   104    1
    29   102   103    2
    30    53    51    1
    31   110   111    2
    32   143   145    1
    33   143   144    1
    34   104   105    1
    35    69    68    1
    36    68    67    1
    37   116   117    1
    38    51    50    1
    39    51    52    1
    40    50    47    1
    41   106   105    1
    42   106   107    1
    43     8     7    1
    44    46    47    1
    45    47    48    1
    46   117   120    1
    47   117   118    1
    48    48    49    2
    49   121   123    1
    50   121   122    1
    51   121   120    1
    52     7     6    1
    53    67    66    1
    54     6     5    1
    55   118   119    2
    56    66    63    1
    57     5     2    1
    58    23    21    1
    59    63    62    1
    60    63    64    1
    61    62    56   am
    62     2     1    1
    63     2     3    1
    64    64    65    2
    65    15    14    1
    66    54    55    1
    67    21    22    1
    68    21    18    1
    69     3     4    2
    70    58    55    1
    71    58    59    1
    72    60    59    1
    73    56    55    1
    74    56    57    2
    75    59    61    1
    76    77    75    1
    77    13    14    1
    78    13    10    1
    79    99    97   ar
    80    99    98   ar
    81    14    16    1
    82    18    17    1
    83    18    19    1
    84    97    95   ar
    85    36    33    1
    86    17    11   am
    87    98    96   ar
    88    75    74    1
    89    75    76    1
    90    11    12    2
    91    11    10    1
    92    74    71    1
    93    10     9    1
    94    19    20    2
    95    95    94   ar
    96    33    34    1
    97    33    32    1
    98    72    71    1
    99    72    73    2
   100    70    71    1
   101    34    35    2
   102    96    94   ar
   103    94    93    1
   104    32    26   am
   105    93    90    1
   106    26    27    2
   107    26    25    1
   108    44    43   ar
   109    24    25    1
   110    88    86    1
   111    39    40    2
   112    39    38    1
   113    41    38    1
   114    41    42    1
   115    90    89    1
   116    90    91    1
   117    43    45   ar
   118    43    42    1
   119    28    25    1
   120    28    29    1
   121    31    29    1
   122    78    79    1
   123    87    86    1
   124    86    85    2
   125    29    30    1
   126    38    37    1
   127    80    79    1
   128    80    81    2
   129    91    92    2
   130    79    82    1
   131    85    84    1
   132    82    83    1
   133    83    84    1
