@<TRIPOS>MOLECULE
tmp/5kraB01.pdb
 176 164 0 0 0
SMALL
GASTEIGER

@<TRIPOS>ATOM
      1  N        -40.7310  -16.9750    4.4420 N.3    39  MET39      -0.1245
      2  CA       -39.9480  -17.9280    3.6750 C.3    39  MET39       0.1570
      3  C        -40.8250  -19.0720    3.1970 C.2    39  MET39       0.2261
      4  O        -40.6110  -19.6230    2.1160 O.2    39  MET39      -0.2867
      5  CB       -38.7930  -18.4720    4.5110 C.3    39  MET39       0.0387
      6  CG       -37.7830  -19.2870    3.7230 C.3    39  MET39       0.0595
      7  SD       -36.4400  -18.2980    3.0320 S.3    39  MET39      -0.1393
      8  CE       -37.1730  -17.7020    1.5160 C.3    39  MET39       0.0692
      9  N        -42.6500  -18.1580    0.0230 N.3    42  LEU42      -0.1231
     10  CA       -41.7960  -18.1940   -1.1550 C.3    42  LEU42       0.1693
     11  C        -41.5410  -19.6220   -1.6210 C.2    42  LEU42       0.2592
     12  O        -41.6080  -19.9120   -2.8160 O.2    42  LEU42      -0.2718
     13  CB       -40.4730  -17.4820   -0.8710 C.3    42  LEU42       0.0284
     14  CG       -40.6110  -16.0050   -0.4960 C.3    42  LEU42       0.0019
     15  CD1      -39.2490  -15.3540   -0.3340 C.3    42  LEU42       0.0001
     16  CD2      -41.4300  -15.2750   -1.5420 C.3    42  LEU42       0.0001
     17  N        -41.2540  -20.5120   -0.6770 N.am   43  THR43      -0.1953
     18  CA       -40.9960  -21.9080   -1.0100 C.3    43  THR43       0.1897
     19  C        -42.2560  -22.5810   -1.5420 C.2    43  THR43       0.2313
     20  O        -42.1920  -23.3970   -2.4620 O.2    43  THR43      -0.2863
     21  CB       -40.4690  -22.6890    0.1990 C.3    43  THR43       0.1794
     22  OG1      -41.3980  -22.5790    1.2830 O.3    43  THR43      -0.2208
     23  CG2      -39.1260  -22.1310    0.6350 C.3    43  THR43       0.0378
     24  N        -44.5690  -20.9230   -3.1120 N.3    45  LEU45      -0.1231
     25  CA       -44.6960  -20.3040   -4.4240 C.3    45  LEU45       0.1693
     26  C        -43.7500  -20.9560   -5.4290 C.2    45  LEU45       0.2591
     27  O        -44.1150  -21.1860   -6.5830 O.2    45  LEU45      -0.2718
     28  CB       -44.4200  -18.8020   -4.3290 C.3    45  LEU45       0.0284
     29  CG       -44.4790  -17.9760   -5.6130 C.3    45  LEU45       0.0019
     30  CD1      -45.8840  -17.9710   -6.1950 C.3    45  LEU45       0.0001
     31  CD2      -44.0060  -16.5630   -5.3300 C.3    45  LEU45       0.0001
     32  N        -42.5360  -21.2580   -4.9820 N.am   46  ALA46      -0.1980
     33  CA       -41.5490  -21.8980   -5.8410 C.3    46  ALA46       0.1597
     34  C        -42.0070  -23.2950   -6.2390 C.2    46  ALA46       0.2287
     35  O        -41.7830  -23.7370   -7.3650 O.2    46  ALA46      -0.2864
     36  CB       -40.1960  -21.9570   -5.1470 C.3    46  ALA46       0.0319
     37  N        -44.6760  -23.0510   -8.9620 N.3    49  GLU49      -0.1245
     38  CA       -44.0630  -22.6060  -10.2070 C.3    49  GLU49       0.1567
     39  C        -43.3090  -23.7450  -10.8900 C.2    49  GLU49       0.2260
     40  O        -43.2910  -23.8320  -12.1180 O.2    49  GLU49      -0.2867
     41  CB       -43.1250  -21.4240   -9.9620 C.3    49  GLU49       0.0388
     42  CG       -43.8350  -20.0950   -9.7580 C.3    49  GLU49       0.1160
     43  CD       -43.0190  -18.9140  -10.2590 C.2    49  GLU49       0.3649
     44  OE1      -43.2230  -17.7870   -9.7620 O.co2  49  GLU49      -0.2457
     45  OE2      -42.1790  -19.1090  -11.1620 O.co2  49  GLU49      -0.2457
     46  N        -33.3450  -25.8340  -12.4440 N.3    79  TRP79      -0.1227
     47  CA       -34.6700  -25.4330  -11.9660 C.3    79  TRP79       0.1737
     48  C        -34.6530  -24.1420  -11.1500 C.2    79  TRP79       0.2595
     49  O        -35.5640  -23.3220  -11.2640 O.2    79  TRP79      -0.2718
     50  CB       -35.3120  -26.5550  -11.1420 C.3    79  TRP79       0.0564
     51  CG       -34.6850  -26.7890   -9.8010 C.ar   79  TRP79       0.0003
     52  CD1      -33.6510  -27.6300   -9.5160 C.ar   79  TRP79       0.0946
     53  CD2      -35.0680  -26.1870   -8.5570 C.ar   79  TRP79       0.0152
     54  NE1      -33.3600  -27.5850   -8.1730 N.ar   79  TRP79      -0.2442
     55  CE2      -34.2150  -26.7070   -7.5630 C.ar   79  TRP79       0.0810
     56  CE3      -36.0460  -25.2570   -8.1900 C.ar   79  TRP79       0.0012
     57  CZ2      -34.3090  -26.3250   -6.2260 C.ar   79  TRP79       0.0191
     58  CZ3      -36.1380  -24.8810   -6.8610 C.ar   79  TRP79       0.0001
     59  CH2      -35.2740  -25.4140   -5.8950 C.ar   79  TRP79       0.0015
     60  N        -33.6220  -23.9520  -10.3340 N.am   80  LEU80      -0.1980
     61  CA       -33.5490  -22.7490   -9.5150 C.3    80  LEU80       0.1596
     62  C        -33.0910  -21.5580  -10.3530 C.2    80  LEU80       0.2287
     63  O        -33.5230  -20.4280  -10.1220 O.2    80  LEU80      -0.2864
     64  CB       -32.6210  -22.9590   -8.3200 C.3    80  LEU80       0.0297
     65  CG       -32.5850  -21.8360   -7.2830 C.3    80  LEU80       0.0022
     66  CD1      -33.9870  -21.4720   -6.8240 C.3    80  LEU80       0.0001
     67  CD2      -31.7240  -22.2370   -6.0990 C.3    80  LEU80       0.0001
     68  N        -36.1690  -20.3590  -12.2080 N.3    83  LEU83      -0.1231
     69  CA       -37.0250  -19.6160  -11.2900 C.3    83  LEU83       0.1693
     70  C        -36.4930  -18.2030  -11.0910 C.2    83  LEU83       0.2591
     71  O        -37.2370  -17.2280  -11.1800 O.2    83  LEU83      -0.2718
     72  CB       -37.1370  -20.3290   -9.9400 C.3    83  LEU83       0.0284
     73  CG       -38.0710  -21.5390   -9.8770 C.3    83  LEU83       0.0019
     74  CD1      -38.0850  -22.1470   -8.4800 C.3    83  LEU83       0.0001
     75  CD2      -39.4780  -21.1560  -10.3130 C.3    83  LEU83       0.0001
     76  N        -35.1940  -18.0960  -10.8390 N.am   84  MET84      -0.1979
     77  CA       -34.5930  -16.8060  -10.5260 C.3    84  MET84       0.1605
     78  C        -34.6360  -15.8260  -11.6970 C.2    84  MET84       0.2287
     79  O        -34.9350  -14.6460  -11.5050 O.2    84  MET84      -0.2864
     80  CB       -33.1540  -17.0000  -10.0540 C.3    84  MET84       0.0413
     81  CG       -33.0570  -17.5780   -8.6530 C.3    84  MET84       0.0598
     82  SD       -31.3530  -17.7460   -8.1010 S.3    84  MET84      -0.1393
     83  CE       -31.5950  -18.2890   -6.4120 C.3    84  MET84       0.0692
     84  N        -38.0540  -14.5420  -11.9170 N.3    87  LEU87      -0.1245
     85  CA       -38.2910  -13.5590  -10.8680 C.3    87  LEU87       0.1561
     86  C        -37.6690  -12.2200  -11.2310 C.2    87  LEU87       0.2260
     87  O        -38.2990  -11.1710  -11.0940 O.2    87  LEU87      -0.2867
     88  CB       -37.7300  -14.0510   -9.5340 C.3    87  LEU87       0.0270
     89  CG       -37.6350  -13.0110   -8.4150 C.3    87  LEU87       0.0019
     90  CD1      -39.0170  -12.5150   -8.0140 C.3    87  LEU87       0.0001
     91  CD2      -36.8900  -13.5780   -7.2160 C.3    87  LEU87       0.0001
     92  N        -39.6530  -10.2890  -14.1670 N.3    90  ARG90      -0.1245
     93  CA       -40.8990   -9.6050  -13.8380 C.3    90  ARG90       0.1563
     94  C        -40.6890   -8.5540  -12.7520 C.2    90  ARG90       0.2260
     95  O        -41.6410   -7.9240  -12.2930 O.2    90  ARG90      -0.2867
     96  CB       -41.9770  -10.6070  -13.4120 C.3    90  ARG90       0.0307
     97  CG       -41.6800  -11.3890  -12.1440 C.3    90  ARG90       0.0489
     98  CD       -42.8830  -12.2450  -11.7600 C.3    90  ARG90       0.2205
     99  NE       -42.6390  -13.0690  -10.5780 N.pl3  90  ARG90      -0.0865
    100  CZ       -42.2950  -14.3530  -10.6180 C.cat  90  ARG90       0.5346
    101  NH1      -42.1500  -14.9680  -11.7840 N.pl3  90  ARG90       0.1354
    102  NH2      -42.0960  -15.0240   -9.4910 N.pl3  90  ARG90       0.1354
    103  N        -42.1760  -11.2600   -6.4440 N.3   100  PHE100     -0.1241
    104  CA       -42.3620  -12.7040   -6.3430 C.3   100  PHE100      0.1605
    105  C        -43.7530  -13.0810   -6.8310 C.2   100  PHE100      0.2264
    106  O        -43.9610  -14.1450   -7.4140 O.2   100  PHE100     -0.2867
    107  CB       -42.1650  -13.1850   -4.9040 C.3   100  PHE100      0.0534
    108  CG       -40.7500  -13.0780   -4.4110 C.ar  100  PHE100     -0.0203
    109  CD1      -39.8630  -14.1310   -4.5760 C.ar  100  PHE100     -0.0042
    110  CD2      -40.3100  -11.9310   -3.7690 C.ar  100  PHE100     -0.0042
    111  CE1      -38.5610  -14.0390   -4.1160 C.ar  100  PHE100     -0.0003
    112  CE2      -39.0080  -11.8310   -3.3080 C.ar  100  PHE100     -0.0003
    113  CZ       -38.1320  -12.8870   -3.4820 C.ar  100  PHE100     -0.0000
    114  N        -30.3750  -14.1930    3.6630 N.3   114  MET114     -0.1245
    115  CA       -30.7770  -14.4980    2.3030 C.3   114  MET114      0.1570
    116  C        -30.6370  -13.1940    1.5280 C.2   114  MET114      0.2261
    117  O        -30.7460  -13.1460    0.3040 O.2   114  MET114     -0.2867
    118  CB       -32.2120  -15.0330    2.2700 C.3   114  MET114      0.0387
    119  CG       -32.7400  -15.4090    0.8980 C.3   114  MET114      0.0595
    120  SD       -32.3910  -17.1170    0.4420 S.3   114  MET114     -0.1393
    121  CE       -33.1340  -17.9920    1.8120 C.3   114  MET114      0.0692
    122  N        -28.3300  -12.7980   -1.5290 N.3   117  ILE117     -0.1231
    123  CA       -28.9720  -13.3100   -2.7360 C.3   117  ILE117      0.1692
    124  C        -30.0160  -12.3280   -3.2560 C.2   117  ILE117      0.2592
    125  O        -30.1520  -12.1250   -4.4650 O.2   117  ILE117     -0.2718
    126  CB       -29.6390  -14.6720   -2.4740 C.3   117  ILE117      0.0266
    127  CG1      -28.6090  -15.6760   -1.9400 C.3   117  ILE117      0.0019
    128  CG2      -30.3100  -15.1960   -3.7400 C.3   117  ILE117      0.0020
    129  CD1      -29.1860  -17.0380   -1.6410 C.3   117  ILE117      0.0001
    130  N        -30.7420  -11.7190   -2.3240 N.am  118  PHE118     -0.1976
    131  CA       -31.7570  -10.7300   -2.6460 C.3   118  PHE118      0.1639
    132  C        -31.1520   -9.5600   -3.4140 C.2   118  PHE118      0.2290
    133  O        -31.7370   -9.0720   -4.3800 O.2   118  PHE118     -0.2864
    134  CB       -32.4350  -10.2320   -1.3690 C.3   118  PHE118      0.0560
    135  CG       -33.8320   -9.7290   -1.5810 C.ar  118  PHE118     -0.0200
    136  CD1      -34.9210  -10.5520   -1.3400 C.ar  118  PHE118     -0.0042
    137  CD2      -34.0590   -8.4350   -2.0210 C.ar  118  PHE118     -0.0042
    138  CE1      -36.2130  -10.0960   -1.5350 C.ar  118  PHE118     -0.0003
    139  CE2      -35.3500   -7.9710   -2.2190 C.ar  118  PHE118     -0.0003
    140  CZ       -36.4280   -8.8030   -1.9750 C.ar  118  PHE118     -0.0000
    141  N        -30.1220  -10.5550   -6.9430 N.3   121  LEU121     -0.1245
    142  CA       -31.3180  -10.6430   -7.7660 C.3   121  LEU121      0.1561
    143  C        -31.7450   -9.2550   -8.2290 C.2   121  LEU121      0.2260
    144  O        -32.1650   -9.0750   -9.3710 O.2   121  LEU121     -0.2867
    145  CB       -32.4510  -11.3280   -6.9990 C.3   121  LEU121      0.0270
    146  CG       -32.3160  -12.8380   -6.7830 C.3   121  LEU121      0.0019
    147  CD1      -33.3100  -13.3330   -5.7430 C.3   121  LEU121      0.0001
    148  CD2      -32.4910  -13.5930   -8.0970 C.3   121  LEU121      0.0001
    149  N        -28.3140  -19.9910   -3.4850 N.3   212  GLY212     -0.1225
    150  CA       -29.6610  -20.2960   -3.0420 C.3   212  GLY212      0.1811
    151  C        -29.8240  -21.7560   -2.6780 C.2   212  GLY212      0.2280
    152  O        -30.4970  -22.0930   -1.7030 O.2   212  GLY212     -0.2866
    153  N        -31.1690  -23.5350    0.8330 N.3   216  LEU216     -0.1245
    154  CA       -32.2760  -24.4840    0.8090 C.3   216  LEU216      0.1561
    155  C        -31.9090  -25.7530    1.5710 C.2   216  LEU216      0.2260
    156  O        -32.7580  -26.3730    2.2090 O.2   216  LEU216     -0.2867
    157  CB       -32.6700  -24.8210   -0.6300 C.3   216  LEU216      0.0270
    158  CG       -33.7190  -23.9110   -1.2680 C.3   216  LEU216      0.0019
    159  CD1      -33.9140  -24.2550   -2.7340 C.3   216  LEU216      0.0001
    160  CD2      -35.0360  -24.0250   -0.5170 C.3   216  LEU216      0.0001
    161  N        -32.1130  -24.8020    5.2830 N.3   219  MET219     -0.1245
    162  CA       -33.5010  -24.7070    5.7210 C.3   219  MET219      0.1570
    163  C        -34.0810  -26.0900    5.9860 C.2   219  MET219      0.2261
    164  O        -34.8990  -26.2680    6.8890 O.2   219  MET219     -0.2867
    165  CB       -34.3460  -23.9720    4.6780 C.3   219  MET219      0.0387
    166  CG       -34.1870  -22.4610    4.7000 C.3   219  MET219      0.0595
    167  SD       -34.9080  -21.6700    3.2500 S.3   219  MET219     -0.1393
    168  CE       -36.4410  -22.5820    3.1000 C.3   219  MET219      0.0692
    169  N        -39.7570  -30.3290   -3.9560 N.3   231  LEU231     -0.1245
    170  CA       -38.7090  -29.3420   -3.7250 C.3   231  LEU231      0.1561
    171  C        -37.5180  -29.9820   -3.0210 C.2   231  LEU231      0.2260
    172  O        -36.3660  -29.7160   -3.3620 O.2   231  LEU231     -0.2867
    173  CB       -39.2480  -28.1650   -2.9100 C.3   231  LEU231      0.0270
    174  CG       -38.5300  -26.8290   -3.1100 C.3   231  LEU231      0.0019
    175  CD1      -38.4400  -26.4950   -4.5900 C.3   231  LEU231      0.0001
    176  CD2      -39.2430  -25.7190   -2.3560 C.3   231  LEU231      0.0001
@<TRIPOS>BOND
     1    92    93    1
     2    93    96    1
     3    93    94    1
     4    96    97    1
     5    94    95    2
     6    46    47    1
     7    68    69    1
     8    97    98    1
     9    40    39    2
    10    47    48    1
    11    47    50    1
    12    84    85    1
    13   101   100    1
    14    98    99    1
    15    78    79    2
    16    78    77    1
    17    69    70    1
    18    69    72    1
    19    49    48    2
    20    86    87    2
    21    86    85    1
    22    71    70    2
    23    45    43   ar
    24    48    60   am
    25    50    51    1
    26    70    76   am
    27    39    38    1
    28    85    88    1
    29    76    77    1
    30   100    99    2
    31   100   102    1
    32    77    80    1
    33    62    63    2
    34    62    61    1
    35    60    61    1
    36    75    73    1
    37    43    44   ar
    38    43    42    1
    39    38    41    1
    40    38    37    1
    41    80    81    1
    42    41    42    1
    43    72    73    1
    44    73    74    1
    45    51    52   ar
    46    51    53   ar
    47    88    89    1
    48    52    54   ar
    49    61    64    1
    50   144   143    2
    51    81    82    1
    52    53    56   ar
    53    53    55   ar
    54    89    90    1
    55    89    91    1
    56    64    65    1
    57   143   142    1
    58    56    58   ar
    59    54    55   ar
    60    82    83    1
    61   148   146    1
    62   142   145    1
    63   142   141    1
    64    55    57   ar
    65   106   105    2
    66    35    34    2
    67    65    66    1
    68    65    67    1
    69   145   146    1
    70    58    59   ar
    71   105   104    1
    72   146   147    1
    73    27    26    2
    74   103   104    1
    75   104   107    1
    76    34    33    1
    77    57    59   ar
    78    30    29    1
    79    33    36    1
    80    33    32    1
    81    29    31    1
    82    29    28    1
    83    26    32   am
    84    26    25    1
    85   107   108    1
    86   175   174    1
    87   109   108   ar
    88   109   111   ar
    89   125   124    2
    90    25    28    1
    91    25    24    1
    92   108   110   ar
    93   133   132    2
    94   111   113   ar
    95   169   170    1
    96   110   112   ar
    97   128   126    1
    98   170   171    1
    99   170   173    1
   100   149   150    1
   101   113   112   ar
   102   132   131    1
   103   172   171    2
   104   124   123    1
   105   124   130   am
   106   174   173    1
   107   174   176    1
   108   150   151    1
   109    12    11    2
   110   123   126    1
   111   123   122    1
   112   159   158    1
   113   151   152    2
   114   131   130    1
   115   131   134    1
   116   126   127    1
   117    20    19    2
   118   139   137   ar
   119   139   140   ar
   120   137   135   ar
   121   140   138   ar
   122   127   129    1
   123    11    10    1
   124    11    17   am
   125   135   134    1
   126   135   136   ar
   127    16    14    1
   128    19    18    1
   129   138   136   ar
   130   158   157    1
   131   158   160    1
   132    10    13    1
   133    10     9    1
   134    18    17    1
   135    18    21    1
   136    13    14    1
   137   157   154    1
   138    14    15    1
   139    21    23    1
   140    21    22    1
   141   117   116    2
   142   120   119    1
   143   120   121    1
   144   154   153    1
   145   154   155    1
   146   119   118    1
   147     8     7    1
   148   116   115    1
   149   155   156    2
   150     4     3    2
   151   118   115    1
   152   115   114    1
   153     7     6    1
   154   168   167    1
   155     3     2    1
   156   167   166    1
   157     2     1    1
   158     2     5    1
   159     6     5    1
   160   165   166    1
   161   165   162    1
   162   161   162    1
   163   162   163    1
   164   163   164    2
