@<TRIPOS>MOLECULE
tmp/5krcB01.pdb
 186 175 0 0 0
SMALL
GASTEIGER

@<TRIPOS>ATOM
      1  N        -10.6220    5.9230   15.3350 N.3    39  MET39      -0.1245
      2  CA       -10.2150    4.7810   16.1450 C.3    39  MET39       0.1570
      3  C         -9.4690    3.7580   15.3020 C.2    39  MET39       0.2261
      4  O         -8.5100    3.1390   15.7650 O.2    39  MET39      -0.2867
      5  CB       -11.4270    4.1290   16.8140 C.3    39  MET39       0.0387
      6  CG       -11.9370    4.8610   18.0470 C.3    39  MET39       0.0595
      7  SD       -10.7010    4.9770   19.3560 S.3    39  MET39      -0.1393
      8  CE       -10.1450    6.6680   19.1540 C.3    39  MET39       0.0692
      9  N         -5.9920    4.9370   15.0070 N.3    42  LEU42      -0.1231
     10  CA        -5.2380    4.8230   16.2500 C.3    42  LEU42       0.1693
     11  C         -4.9040    3.3770   16.6000 C.2    42  LEU42       0.2592
     12  O         -3.8040    3.0850   17.0690 O.2    42  LEU42      -0.2718
     13  CB        -6.0090    5.4720   17.4000 C.3    42  LEU42       0.0284
     14  CG        -6.1910    6.9880   17.2850 C.3    42  LEU42       0.0019
     15  CD1       -6.7080    7.5750   18.5890 C.3    42  LEU42       0.0001
     16  CD2       -4.8880    7.6520   16.8790 C.3    42  LEU42       0.0001
     17  N         -5.8520    2.4720   16.3760 N.am   43  THR43      -0.1953
     18  CA        -5.6180    1.0610   16.6560 C.3    43  THR43       0.1897
     19  C         -4.6340    0.4590   15.6550 C.2    43  THR43       0.2313
     20  O         -3.8920   -0.4660   15.9840 O.2    43  THR43      -0.2863
     21  CB        -6.9230    0.2470   16.6320 C.3    43  THR43       0.1794
     22  OG1       -7.5810    0.4280   15.3730 O.3    43  THR43      -0.2208
     23  CG2       -7.8530    0.6880   17.7580 C.3    43  THR43       0.0378
     24  N         -2.1200    2.2160   14.2150 N.3    45  LEU45      -0.1231
     25  CA        -0.8330    2.7520   14.6380 C.3    45  LEU45       0.1693
     26  C         -0.2820    1.9790   15.8350 C.2    45  LEU45       0.2591
     27  O          0.9030    1.6450   15.8800 O.2    45  LEU45      -0.2718
     28  CB        -0.9690    4.2340   14.9820 C.3    45  LEU45       0.0284
     29  CG         0.3070    4.9940   15.3370 C.3    45  LEU45       0.0019
     30  CD1        1.2260    5.1060   14.1290 C.3    45  LEU45       0.0001
     31  CD2       -0.0450    6.3690   15.8800 C.3    45  LEU45       0.0001
     32  N         -1.1550    1.6950   16.7970 N.am   46  ALA46      -0.1980
     33  CA        -0.7750    0.9550   17.9940 C.3    46  ALA46       0.1597
     34  C         -0.2510   -0.4330   17.6450 C.2    46  ALA46       0.2287
     35  O          0.7510   -0.8820   18.1980 O.2    46  ALA46      -0.2864
     36  CB        -1.9560    0.8500   18.9470 C.3    46  ALA46       0.0319
     37  N          3.1640    0.0170   16.2610 N.3    49  GLU49      -0.1245
     38  CA         4.0950    0.4100   17.3130 C.3    49  GLU49       0.1567
     39  C          4.4750   -0.7860   18.1780 C.2    49  GLU49       0.2260
     40  O          5.6020   -0.8790   18.6650 O.2    49  GLU49      -0.2867
     41  CB         3.5020    1.5140   18.1890 C.3    49  GLU49       0.0388
     42  CG         3.4550    2.8860   17.5440 C.3    49  GLU49       0.1160
     43  CD         3.5010    4.0020   18.5720 C.2    49  GLU49       0.3649
     44  OE1        2.4270    4.5220   18.9350 O.co2  49  GLU49      -0.2457
     45  OE2        4.6120    4.3570   19.0200 O.co2  49  GLU49      -0.2457
     46  N          2.4570   -2.8010   28.0520 N.3    79  TRP79      -0.1227
     47  CA         2.4870   -2.3340   26.6630 C.3    79  TRP79       0.1737
     48  C          1.7640   -1.0000   26.4410 C.2    79  TRP79       0.2595
     49  O          2.2700   -0.1330   25.7280 O.2    79  TRP79      -0.2718
     50  CB         1.9060   -3.3980   25.7230 C.3    79  TRP79       0.0564
     51  CG         0.4260   -3.6110   25.8390 C.ar   79  TRP79       0.0003
     52  CD1       -0.2160   -4.4710   26.6820 C.ar   79  TRP79       0.0946
     53  CD2       -0.5980   -2.9600   25.0750 C.ar   79  TRP79       0.0152
     54  NE1       -1.5750   -4.3910   26.4960 N.ar   79  TRP79      -0.2442
     55  CE2       -1.8350   -3.4700   25.5160 C.ar   79  TRP79       0.0810
     56  CE3       -0.5890   -1.9920   24.0660 C.ar   79  TRP79       0.0012
     57  CZ2       -3.0500   -3.0470   24.9830 C.ar   79  TRP79       0.0191
     58  CZ3       -1.7990   -1.5730   23.5380 C.ar   79  TRP79       0.0001
     59  CH2       -3.0110   -2.1000   23.9980 C.ar   79  TRP79       0.0015
     60  N          0.5970   -0.8260   27.0530 N.am   80  LEU80      -0.1980
     61  CA        -0.1600    0.4080   26.8710 C.3    80  LEU80       0.1596
     62  C          0.5190    1.5580   27.6070 C.2    80  LEU80       0.2287
     63  O          0.4670    2.7050   27.1630 O.2    80  LEU80      -0.2864
     64  CB        -1.6050    0.2420   27.3490 C.3    80  LEU80       0.0297
     65  CG        -2.5350    1.4390   27.1310 C.3    80  LEU80       0.0022
     66  CD1       -2.4620    1.9280   25.6930 C.3    80  LEU80       0.0001
     67  CD2       -3.9650    1.0840   27.4990 C.3    80  LEU80       0.0001
     68  N          3.3880    2.6790   25.2700 N.3    83  LEU83      -0.1231
     69  CA         2.8060    3.4830   24.2000 C.3    83  LEU83       0.1693
     70  C          2.4980    4.8940   24.6810 C.2    83  LEU83       0.2591
     71  O          2.8520    5.8780   24.0300 O.2    83  LEU83      -0.2718
     72  CB         1.5210    2.8390   23.6680 C.3    83  LEU83       0.0284
     73  CG         1.6050    1.5570   22.8370 C.3    83  LEU83       0.0019
     74  CD1        0.2210    1.1430   22.3680 C.3    83  LEU83       0.0001
     75  CD2        2.5280    1.7490   21.6500 C.3    83  LEU83       0.0001
     76  N          1.8530    4.9720   25.8260 N.am   84  MET84      -0.1979
     77  CA         1.3680    6.2080   26.3760 C.3    84  MET84       0.1605
     78  C          2.4740    7.1930   26.7550 C.2    84  MET84       0.2287
     79  O          2.4030    8.3100   26.4210 O.2    84  MET84      -0.2864
     80  CB         0.4330    5.9500   27.5450 C.3    84  MET84       0.0413
     81  CG        -1.0030    5.7330   27.1710 C.3    84  MET84       0.0598
     82  SD        -2.0490    5.1780   28.4910 S.3    84  MET84      -0.1393
     83  CE        -3.6300    5.1410   27.6970 C.3    84  MET84       0.0692
     84  N          3.7900    8.4250   23.5140 N.3    87  LEU87      -0.1245
     85  CA         2.9010    9.4300   22.9450 C.3    87  LEU87       0.1561
     86  C          3.0770   10.7730   23.6440 C.2    87  LEU87       0.2260
     87  O          3.1750   11.8160   23.0000 O.2    87  LEU87      -0.2867
     88  CB         1.4440    8.9730   23.0470 C.3    87  LEU87       0.0270
     89  CG         0.3740   10.0370   22.7890 C.3    87  LEU87       0.0019
     90  CD1        0.4560   10.5450   21.3580 C.3    87  LEU87       0.0001
     91  CD2       -1.0170    9.5010   23.0950 C.3    87  LEU87       0.0001
     92  N          6.6240   12.5460   22.7620 N.3    90  ARG90      -0.1245
     93  CA         6.7210   13.1970   21.4590 C.3    90  ARG90       0.1563
     94  C          5.6710   14.2940   21.3060 C.2    90  ARG90       0.2260
     95  O          5.6810   15.0390   20.3270 O.2    90  ARG90      -0.2867
     96  CB         6.5920   12.1730   20.3270 C.3    90  ARG90       0.0307
     97  CG         5.2840   11.3870   20.2890 C.3    90  ARG90       0.0489
     98  CD         5.2780   10.4410   19.0870 C.3    90  ARG90       0.2205
     99  NE         4.0400    9.6740   18.9500 N.pl3  90  ARG90      -0.0865
    100  CZ         3.9050    8.3960   19.2920 C.cat  90  ARG90       0.5346
    101  NH1        4.9320    7.7270   19.8000 N.pl3  90  ARG90       0.1354
    102  NH2        2.7400    7.7830   19.1240 N.pl3  90  ARG90       0.1354
    103  N          0.0620   11.5830   17.9050 N.3   100  PHE100     -0.1241
    104  CA         0.0340   10.1430   17.6890 C.3   100  PHE100      0.1605
    105  C          1.0100    9.7930   16.5730 C.2   100  PHE100      0.2264
    106  O          1.7820    8.8420   16.6820 O.2   100  PHE100     -0.2867
    107  CB        -1.3810    9.6670   17.3520 C.3   100  PHE100      0.0534
    108  CG        -2.3370    9.7440   18.5090 C.ar  100  PHE100     -0.0203
    109  CD1       -2.4760    8.6760   19.3800 C.ar  100  PHE100     -0.0042
    110  CD2       -3.0900   10.8850   18.7300 C.ar  100  PHE100     -0.0042
    111  CE1       -3.3500    8.7430   20.4480 C.ar  100  PHE100     -0.0003
    112  CE2       -3.9690   10.9590   19.7960 C.ar  100  PHE100     -0.0003
    113  CZ        -4.0980    9.8860   20.6570 C.ar  100  PHE100     -0.0000
    114  N        -13.3290    8.7340   25.1960 N.3   117  MET117     -0.1245
    115  CA       -11.9590    9.0830   24.8280 C.3   117  MET117      0.1570
    116  C        -11.3820   10.3140   25.4770 C.2   117  MET117      0.2261
    117  O        -10.2460   10.3580   25.8070 O.2   117  MET117     -0.2867
    118  CB       -11.7810    9.0940   23.3280 C.3   117  MET117      0.0387
    119  CG       -10.3630    9.3040   22.8710 C.3   117  MET117      0.0595
    120  SD        -9.2930    7.9990   23.3900 S.3   117  MET117     -0.1393
    121  CE       -10.0370    6.5850   22.6730 C.3   117  MET117      0.0692
    122  N         -9.4240   10.3180   28.6460 N.3   120  ILE120     -0.1231
    123  CA        -8.0870    9.7630   28.4840 C.3   120  ILE120      0.1692
    124  C         -7.1750   10.7640   27.7780 C.2   120  ILE120      0.2592
    125  O         -5.9850   10.8580   28.0830 O.2   120  ILE120     -0.2718
    126  CB        -8.1350    8.4370   27.7020 C.3   120  ILE120      0.0266
    127  CG1       -8.9700    7.4120   28.4750 C.3   120  ILE120      0.0019
    128  CG2       -6.7350    7.9010   27.4470 C.3   120  ILE120      0.0020
    129  CD1       -9.1200    6.0800   27.7730 C.3   120  ILE120      0.0001
    130  N         -7.7480   11.5160   26.8440 N.am  121  PHE121     -0.1976
    131  CA        -7.0270   12.5830   26.1580 C.3   121  PHE121      0.1639
    132  C         -6.5160   13.6210   27.1510 C.2   121  PHE121      0.2290
    133  O         -5.3480   14.0070   27.1150 O.2   121  PHE121     -0.2864
    134  CB        -7.9280   13.2540   25.1170 C.3   121  PHE121      0.0560
    135  CG        -7.6770   12.8000   23.7070 C.ar  121  PHE121     -0.0200
    136  CD1       -7.4030   13.7200   22.7080 C.ar  121  PHE121     -0.0042
    137  CD2       -7.7120   11.4560   23.3790 C.ar  121  PHE121     -0.0042
    138  CE1       -7.1750   13.3090   21.4090 C.ar  121  PHE121     -0.0003
    139  CE2       -7.4820   11.0400   22.0830 C.ar  121  PHE121     -0.0003
    140  CZ        -7.2140   11.9670   21.0980 C.ar  121  PHE121     -0.0000
    141  N         -3.6290   12.4580   29.2730 N.3   124  LEU124     -0.1245
    142  CA        -2.4060   12.4160   28.4790 C.3   124  LEU124      0.1561
    143  C         -1.8460   13.8170   28.2590 C.2   124  LEU124      0.2260
    144  O         -0.6340   14.0240   28.3140 O.2   124  LEU124     -0.2867
    145  CB        -2.6630   11.7320   27.1340 C.3   124  LEU124      0.0270
    146  CG        -2.8800   10.2180   27.1800 C.3   124  LEU124      0.0019
    147  CD1       -3.5370    9.7300   25.8970 C.3   124  LEU124      0.0001
    148  CD2       -1.5620    9.4870   27.4290 C.3   124  LEU124      0.0001
    149  N         -7.4810    3.2440   29.8390 N.3   209  GLY209     -0.1225
    150  CA        -7.3820    2.9640   28.4190 C.3   209  GLY209      0.1811
    151  C         -7.6870    1.5180   28.0890 C.2   209  GLY209      0.2280
    152  O         -8.2830    1.2210   27.0550 O.2   209  GLY209     -0.2866
    153  N        -11.3300    1.0620   28.1150 N.3   212  HIS212     -0.1226
    154  CA       -11.9120    1.6440   26.9140 C.3   212  HIS212      0.1752
    155  C        -11.7130    0.7140   25.7230 C.2   212  HIS212      0.2595
    156  O        -12.6070    0.5580   24.8920 O.2   212  HIS212     -0.2718
    157  CB       -11.3050    3.0160   26.6160 C.3   212  HIS212      0.0759
    158  CG       -11.9600    3.7200   25.4690 C.ar  212  HIS212      0.0818
    159  ND1      -11.6100    3.4910   24.1560 N.ar  212  HIS212     -0.2268
    160  CD2      -12.9600    4.6340   25.4380 C.ar  212  HIS212      0.1154
    161  CE1      -12.3610    4.2370   23.3650 C.ar  212  HIS212      0.1986
    162  NE2      -13.1860    4.9420   24.1180 N.ar  212  HIS212     -0.2212
    163  N        -10.5390    0.0930   25.6530 N.am  213  LEU213     -0.1980
    164  CA       -10.2260   -0.8410   24.5770 C.3   213  LEU213      0.1596
    165  C        -11.1300   -2.0670   24.6460 C.2   213  LEU213      0.2287
    166  O        -11.5430   -2.6050   23.6190 O.2   213  LEU213     -0.2864
    167  CB        -8.7550   -1.2590   24.6400 C.3   213  LEU213      0.0297
    168  CG        -8.2730   -2.2380   23.5680 C.3   213  LEU213      0.0022
    169  CD1       -8.6250   -1.7300   22.1760 C.3   213  LEU213      0.0001
    170  CD2       -6.7750   -2.4660   23.6940 C.3   213  LEU213      0.0001
    171  N        -14.5480   -1.1450   23.1830 N.3   216  MET216     -0.1245
    172  CA       -14.4740   -1.0880   21.7250 C.3   216  MET216      0.1570
    173  C        -14.5870   -2.4840   21.1330 C.2   216  MET216      0.2261
    174  O        -15.2190   -2.6860   20.0960 O.2   216  MET216     -0.2867
    175  CB       -13.1690   -0.4310   21.2720 C.3   216  MET216      0.0387
    176  CG       -13.1440    1.0800   21.4130 C.3   216  MET216      0.0595
    177  SD       -11.5170    1.7790   21.0700 S.3   216  MET216     -0.1393
    178  CE       -11.1330    0.9970   19.5060 C.3   216  MET216      0.0692
    179  N         -3.2950   -7.0400   19.0500 N.3   228  LEU228     -0.1245
    180  CA        -3.8880   -6.0610   19.9530 C.3   228  LEU228      0.1561
    181  C         -4.9440   -6.7110   20.8410 C.2   228  LEU228      0.2260
    182  O         -5.0730   -6.3720   22.0170 O.2   228  LEU228     -0.2867
    183  CB        -4.4960   -4.9030   19.1600 C.3   228  LEU228      0.0270
    184  CG        -4.7190   -3.5990   19.9220 C.3   228  LEU228      0.0019
    185  CD1       -3.4440   -3.1930   20.6410 C.3   228  LEU228      0.0001
    186  CD2       -5.1720   -2.5000   18.9720 C.3   228  LEU228      0.0001
@<TRIPOS>BOND
     1    30    29    1
     2    24    25    1
     3    25    28    1
     4    25    26    1
     5    28    29    1
     6     9    10    1
     7     3     4    2
     8     3     2    1
     9     1     2    1
    10    29    31    1
    11    22    21    1
    12    19    20    2
    13    19    18    1
    14    26    27    2
    15    26    32   am
    16     2     5    1
    17    10    11    1
    18    10    13    1
    19    37    38    1
    20    17    11   am
    21    17    18    1
    22   105   106    2
    23   105   104    1
    24    11    12    2
    25    21    18    1
    26    21    23    1
    27    32    33    1
    28     5     6    1
    29    16    14    1
    30    14    13    1
    31    14    15    1
    32    38    39    1
    33    38    41    1
    34   107   104    1
    35   107   108    1
    36    42    41    1
    37    42    43    1
    38    34    33    1
    39    34    35    2
    40   104   103    1
    41    33    36    1
    42     6     7    1
    43    39    40    2
    44   108   110   ar
    45   108   109   ar
    46    43    44   ar
    47    43    45   ar
    48   110   112   ar
    49    99    98    1
    50    99   100    2
    51   186   184    1
    52   179   180    1
    53    98    97    1
    54   102   100    1
    55     8     7    1
    56   183   184    1
    57   183   180    1
    58   100   101    1
    59   109   111   ar
    60   178   177    1
    61   112   113   ar
    62   184   185    1
    63   180   181    1
    64   174   173    2
    65    97    96    1
    66    96    93    1
    67    95    94    2
    68   111   113   ar
    69   181   182    2
    70   177   176    1
    71   140   138   ar
    72   140   139   ar
    73   173   172    1
    74   175   176    1
    75   175   172    1
    76    94    93    1
    77    90    89    1
    78   138   136   ar
    79    93    92    1
    80    75    73    1
    81   172   171    1
    82   139   137   ar
    83   169   168    1
    84    74    73    1
    85   121   120    1
    86   136   135   ar
    87    89    88    1
    88    89    91    1
    89    73    72    1
    90   119   118    1
    91   119   120    1
    92    85    88    1
    93    85    84    1
    94    85    86    1
    95    87    86    2
    96   118   115    1
    97   161   162   ar
    98   161   159   ar
    99   137   135   ar
   100    58    59   ar
   101    58    56   ar
   102   168   170    1
   103   168   167    1
   104   166   165    2
   105    72    69    1
   106   135   134    1
   107    59    57   ar
   108    71    70    2
   109    56    53   ar
   110   162   160   ar
   111   159   158   ar
   112    69    70    1
   113    69    68    1
   114   164   167    1
   115   164   165    1
   116   164   163    1
   117    70    76   am
   118   115   114    1
   119   115   116    1
   120   156   155    2
   121    57    55   ar
   122    53    55   ar
   123    53    51   ar
   124   134   131    1
   125   160   158   ar
   126   158   157    1
   127   116   117    2
   128    55    54   ar
   129   163   155   am
   130    66    65    1
   131   155   154    1
   132    50    51    1
   133    50    47    1
   134    49    48    2
   135    76    77    1
   136    51    52   ar
   137   147   146    1
   138   131   130    1
   139   131   132    1
   140    77    78    1
   141    77    80    1
   142    79    78    2
   143    48    47    1
   144    48    60   am
   145    54    52   ar
   146   157   154    1
   147    47    46    1
   148   130   124   am
   149    61    60    1
   150    61    64    1
   151    61    62    1
   152   154   153    1
   153   152   151    2
   154   133   132    2
   155    65    64    1
   156    65    67    1
   157   145   146    1
   158   145   142    1
   159    63    62    2
   160    81    80    1
   161    81    82    1
   162   146   148    1
   163   128   126    1
   164    83    82    1
   165   126   127    1
   166   126   123    1
   167   129   127    1
   168   124   125    2
   169   124   123    1
   170   151   150    1
   171   143   144    2
   172   143   142    1
   173   150   149    1
   174   142   141    1
   175   123   122    1
