@<TRIPOS>MOLECULE
tmp/5kreA00.pdb
 98 94 0 0 0
SMALL
GASTEIGER

@<TRIPOS>ATOM
      1  N         18.8130   38.4320   25.1300 N.3    23  SER23      -0.1217
      2  CA        17.5560   39.1740   24.9830 C.3    23  SER23       0.1889
      3  C         17.0350   39.2300   23.5270 C.2    23  SER23       0.2288
      4  O         17.8170   39.3980   22.5820 O.2    23  SER23      -0.2866
      5  CB        17.7010   40.5910   25.5300 C.3    23  SER23       0.2089
      6  OG        18.7220   41.2780   24.8270 O.3    23  SER23      -0.2183
      7  N          9.2970   43.8430   29.0180 N.3    59  TYR59      -0.1241
      8  CA        10.7020   44.1300   29.2800 C.3    59  TYR59       0.1605
      9  C         10.8040   45.6370   29.5020 C.2    59  TYR59       0.2264
     10  O         10.4880   46.4190   28.5910 O.2    59  TYR59      -0.2867
     11  CB        11.5690   43.6150   28.1080 C.3    59  TYR59       0.0534
     12  CG        13.0570   43.7140   28.3380 C.ar   59  TYR59      -0.0201
     13  CD1       13.6410   43.2010   29.4970 C.ar   59  TYR59      -0.0009
     14  CD2       13.8990   44.2310   27.3600 C.ar   59  TYR59      -0.0009
     15  CE1       15.0120   43.3090   29.7240 C.ar   59  TYR59       0.0417
     16  CE2       15.2780   44.3230   27.5650 C.ar   59  TYR59       0.0417
     17  CZ        15.8290   43.8580   28.7490 C.ar   59  TYR59       0.1957
     18  OH        17.1780   43.9650   28.9810 O.3    59  TYR59      -0.2866
     19  N         14.8580   43.7170   33.7180 N.3    73  ARG73      -0.1245
     20  CA        15.9110   44.6020   34.2390 C.3    73  ARG73       0.1563
     21  C         15.3240   45.9920   34.3480 C.2    73  ARG73       0.2260
     22  O         14.5640   46.4040   33.4720 O.2    73  ARG73      -0.2867
     23  CB        17.1200   44.6550   33.3050 C.3    73  ARG73       0.0307
     24  CG        17.9590   43.3880   33.3290 C.3    73  ARG73       0.0489
     25  CD        19.2680   43.6430   32.6080 C.3    73  ARG73       0.2205
     26  NE        20.1280   42.4600   32.6360 N.pl3  73  ARG73      -0.0865
     27  CZ        20.9670   42.1820   33.6230 C.cat  73  ARG73       0.5346
     28  NH1       21.0800   43.0040   34.6570 N.pl3  73  ARG73       0.1354
     29  NH2       21.7050   41.0850   33.5830 N.pl3  73  ARG73       0.1354
     30  N         19.9440   49.2790   32.0610 N.3    76  ILE76      -0.1245
     31  CA        21.1140   48.5360   31.6010 C.3    76  ILE76       0.1561
     32  C         22.3560   49.0910   32.3060 C.2    76  ILE76       0.2260
     33  O         23.0030   50.0240   31.8250 O.2    76  ILE76      -0.2867
     34  CB        21.2390   48.4510   30.0490 C.3    76  ILE76       0.0252
     35  CG1       19.9090   47.9680   29.3450 C.3    76  ILE76       0.0019
     36  CG2       22.4430   47.5740   29.6440 C.3    76  ILE76       0.0019
     37  CD1       19.2200   46.6750   29.9310 C.3    76  ILE76       0.0001
     38  N         24.2130   33.2550   26.6170 N.3   116  PHE116     -0.1227
     39  CA        24.7390   34.4820   26.0560 C.3   116  PHE116      0.1736
     40  C         23.9710   35.6400   26.6440 C.2   116  PHE116      0.2596
     41  O         22.7430   35.5710   26.7360 O.2   116  PHE116     -0.2718
     42  CB        24.6290   34.4590   24.5110 C.3   116  PHE116      0.0547
     43  CG        24.9780   35.7700   23.8420 C.ar  116  PHE116     -0.0202
     44  CD1       26.3080   36.1490   23.6610 C.ar  116  PHE116     -0.0042
     45  CD2       23.9760   36.6400   23.4140 C.ar  116  PHE116     -0.0042
     46  CE1       26.6300   37.3700   23.0520 C.ar  116  PHE116     -0.0003
     47  CE2       24.3000   37.8690   22.8020 C.ar  116  PHE116     -0.0003
     48  CZ        25.6240   38.2210   22.6340 C.ar  116  PHE116     -0.0000
     49  N         24.6930   36.7070   27.0550 N.am  117  SER117     -0.1938
     50  CA        24.0870   37.9170   27.6130 C.3   117  SER117      0.2055
     51  C         23.1550   37.5150   28.7930 C.2   117  SER117      0.2642
     52  O         23.6350   36.9240   29.7390 O.2   117  SER117     -0.2714
     53  CB        23.3970   38.7130   26.4950 C.3   117  SER117      0.2130
     54  OG        23.0690   40.0520   26.8530 O.3   117  SER117     -0.2179
     55  N         21.8430   37.7610   28.7080 N.am  118  MET118     -0.1976
     56  CA        20.8410   37.3850   29.7130 C.3   118  MET118      0.1605
     57  C         20.8600   35.8830   30.0770 C.2   118  MET118      0.2287
     58  O         20.6380   35.5090   31.2370 O.2   118  MET118     -0.2864
     59  CB        19.4800   37.7050   29.1160 C.3   118  MET118      0.0413
     60  CG        18.5690   38.2300   30.0660 C.3   118  MET118      0.0598
     61  SD        17.1240   38.8490   29.2110 S.3   118  MET118     -0.1393
     62  CE        16.9660   40.3290   30.0520 C.3   118  MET118      0.0692
     63  N         26.8380   39.5100   32.8780 N.3   143  PHE143     -0.1241
     64  CA        27.2410   40.1630   34.1260 C.3   143  PHE143      0.1605
     65  C         26.1640   39.9580   35.1850 C.2   143  PHE143      0.2264
     66  O         25.0060   39.6940   34.8530 O.2   143  PHE143     -0.2867
     67  CB        27.4580   41.6880   33.9100 C.3   143  PHE143      0.0534
     68  CG        26.2110   42.5240   33.6800 C.ar  143  PHE143     -0.0203
     69  CD1       25.5720   42.5300   32.4420 C.ar  143  PHE143     -0.0042
     70  CD2       25.6770   43.3080   34.7010 C.ar  143  PHE143     -0.0042
     71  CE1       24.4490   43.3250   32.2180 C.ar  143  PHE143     -0.0003
     72  CE2       24.5320   44.0840   34.4800 C.ar  143  PHE143     -0.0003
     73  CZ        23.9400   44.1020   33.2370 C.ar  143  PHE143     -0.0000
     74  N         27.3620   47.2130   25.0180 N.3   174  LEU174     -0.1231
     75  CA        26.0510   46.8140   25.5910 C.3   174  LEU174      0.1693
     76  C         26.2350   46.3000   27.0140 C.2   174  LEU174      0.2591
     77  O         25.5690   46.7870   27.9320 O.2   174  LEU174     -0.2718
     78  CB        25.3320   45.7620   24.7140 C.3   174  LEU174      0.0284
     79  CG        25.1080   46.0880   23.2270 C.3   174  LEU174      0.0019
     80  CD1       23.9860   45.2760   22.6640 C.3   174  LEU174      0.0001
     81  CD2       24.8490   47.5500   22.9720 C.3   174  LEU174      0.0001
     82  N         27.1440   45.3160   27.1940 N.am  175  VAL175     -0.1980
     83  CA        27.5890   44.8130   28.4980 C.3   175  VAL175      0.1595
     84  C         29.0480   45.2820   28.5910 C.2   175  VAL175      0.2287
     85  O         29.9160   44.7560   27.8760 O.2   175  VAL175     -0.2864
     86  CB        27.4870   43.2670   28.6860 C.3   175  VAL175      0.0276
     87  CG1       27.9700   42.8670   30.0780 C.3   175  VAL175      0.0022
     88  CG2       26.0610   42.7700   28.4640 C.3   175  VAL175      0.0022
     89  N         29.5600   42.9040   21.2820 N.3   204  HIS204     -0.1241
     90  CA        28.4950   42.1040   21.9170 C.3   204  HIS204      0.1621
     91  C         28.0650   41.1220   20.8780 C.2   204  HIS204      0.2264
     92  O         27.1010   41.3430   20.1370 O.2   204  HIS204     -0.2867
     93  CB        27.3100   42.9670   22.3630 C.3   204  HIS204      0.0745
     94  CG        26.3540   42.2560   23.2870 C.ar  204  HIS204      0.0817
     95  ND1       26.6790   42.0050   24.6060 N.ar  204  HIS204     -0.2268
     96  CD2       25.0820   41.8530   23.0710 C.ar  204  HIS204      0.1154
     97  CE1       25.6180   41.4130   25.1370 C.ar  204  HIS204      0.1986
     98  NE2       24.6300   41.3080   24.2530 N.ar  204  HIS204     -0.2212
@<TRIPOS>BOND
     1    92    91    2
     2    91    90    1
     3    89    90    1
     4    90    93    1
     5    93    94    1
     6     4     3    2
     7    48    47   ar
     8    48    46   ar
     9    80    79    1
    10    47    45   ar
    11    81    79    1
    12    46    44   ar
    13    96    94   ar
    14    96    98   ar
    15    79    78    1
    16    94    95   ar
    17    45    43   ar
    18     3     2    1
    19    44    43   ar
    20    43    42    1
    21    98    97   ar
    22    42    39    1
    23    95    97   ar
    24    78    75    1
    25     6     5    1
    26     2     1    1
    27     2     5    1
    28    74    75    1
    29    75    76    1
    30    39    38    1
    31    39    40    1
    32    53    54    1
    33    53    50    1
    34    40    41    2
    35    40    49   am
    36    76    82   am
    37    76    77    2
    38    49    50    1
    39    82    83    1
    40    14    16   ar
    41    14    12   ar
    42    16    17   ar
    43    50    51    1
    44    85    84    2
    45    11    12    1
    46    11     8    1
    47    12    13   ar
    48    88    86    1
    49    83    84    1
    50    83    86    1
    51    10     9    2
    52    86    87    1
    53    55    51   am
    54    55    56    1
    55    17    18    1
    56    17    15   ar
    57    51    52    2
    58     7     8    1
    59    59    56    1
    60    59    60    1
    61    61    62    1
    62    61    60    1
    63     8     9    1
    64    35    37    1
    65    35    34    1
    66    13    15   ar
    67    36    34    1
    68    56    57    1
    69    34    31    1
    70    57    58    2
    71    31    30    1
    72    31    32    1
    73    33    32    2
    74    71    69   ar
    75    71    73   ar
    76    69    68   ar
    77    25    26    1
    78    25    24    1
    79    26    27    2
    80    63    64    1
    81    73    72   ar
    82    23    24    1
    83    23    20    1
    84    22    21    2
    85    29    27    1
    86    27    28    1
    87    68    67    1
    88    68    70   ar
    89    19    20    1
    90    67    64    1
    91    64    65    1
    92    20    21    1
    93    72    70   ar
    94    66    65    2
