@<TRIPOS>MOLECULE
tmp/5krfA01.pdb
 186 175 0 0 0
SMALL
GASTEIGER

@<TRIPOS>ATOM
      1  N         25.7180    7.0740    3.7740 N.3    40  MET40      -0.1245
      2  CA        25.7570    8.4380    4.2850 C.3    40  MET40       0.1570
      3  C         26.5780    9.3540    3.3860 C.2    40  MET40       0.2261
      4  O         26.3700   10.5660    3.3700 O.2    40  MET40      -0.2867
      5  CB        26.3130    8.4600    5.7090 C.3    40  MET40       0.0387
      6  CG        25.5170    7.6150    6.6930 C.3    40  MET40       0.0595
      7  SD        23.7410    7.9070    6.5850 S.3    40  MET40      -0.1393
      8  CE        23.6640    9.6630    6.9190 C.3    40  MET40       0.0692
      9  N         24.0430   10.3550    0.8340 N.3    43  LEU43      -0.1231
     10  CA        23.0390   11.2450    1.4080 C.3    43  LEU43       0.1693
     11  C         23.5860   12.6560    1.6030 C.2    43  LEU43       0.2592
     12  O         22.8930   13.6380    1.3410 O.2    43  LEU43      -0.2718
     13  CB        22.5300   10.6980    2.7430 C.3    43  LEU43       0.0284
     14  CG        21.8660    9.3200    2.7150 C.3    43  LEU43       0.0019
     15  CD1       21.1770    9.0330    4.0420 C.3    43  LEU43       0.0001
     16  CD2       20.8870    9.2120    1.5590 C.3    43  LEU43       0.0001
     17  N         24.8290   12.7500    2.0650 N.am   44  THR44      -0.1953
     18  CA        25.4590   14.0450    2.2950 C.3    44  THR44       0.1897
     19  C         25.7880   14.7400    0.9790 C.2    44  THR44       0.2313
     20  O         25.6160   15.9520    0.8490 O.2    44  THR44      -0.2863
     21  CB        26.7450   13.9110    3.1320 C.3    44  THR44       0.1794
     22  OG1       27.5890   12.9050    2.5590 O.3    44  THR44      -0.2208
     23  CG2       26.4090   13.5310    4.5670 C.3    44  THR44       0.0378
     24  N         24.2070   14.2340   -1.8840 N.3    46  LEU46      -0.1231
     25  CA        22.9130   14.6250   -2.4290 C.3    46  LEU46       0.1693
     26  C         22.3850   15.8710   -1.7270 C.2    46  LEU46       0.2591
     27  O         21.8170   16.7580   -2.3620 O.2    46  LEU46      -0.2718
     28  CB        21.9090   13.4790   -2.2990 C.3    46  LEU46       0.0284
     29  CG        20.4860   13.7500   -2.7830 C.3    46  LEU46       0.0019
     30  CD1       20.4810   14.1250   -4.2560 C.3    46  LEU46       0.0001
     31  CD2       19.6040   12.5390   -2.5280 C.3    46  LEU46       0.0001
     32  N         22.5820   15.9310   -0.4140 N.am   47  ALA47      -0.1980
     33  CA        22.1610   17.0860    0.3690 C.3    47  ALA47       0.1597
     34  C         22.9480   18.3310   -0.0290 C.2    47  ALA47       0.2287
     35  O         22.3910   19.4240   -0.1050 O.2    47  ALA47      -0.2864
     36  CB        22.3220   16.8080    1.8570 C.3    47  ALA47       0.0319
     37  N         21.6770   19.6830   -3.3210 N.3    50  GLU50      -0.1245
     38  CA        20.2980   20.1210   -3.1270 C.3    50  GLU50       0.1567
     39  C         20.2180   21.4370   -2.3590 C.2    50  GLU50       0.2260
     40  O         19.3020   22.2320   -2.5720 O.2    50  GLU50      -0.2867
     41  CB        19.4900   19.0520   -2.3900 C.3    50  GLU50       0.0388
     42  CG        18.8490   18.0170   -3.2940 C.3    50  GLU50       0.1160
     43  CD        17.9450   17.0720   -2.5300 C.2    50  GLU50       0.3649
     44  OE1       18.4580   16.3290   -1.6680 O.co2  50  GLU50      -0.2457
     45  OE2       16.7220   17.0820   -2.7820 O.co2  50  GLU50      -0.2457
     46  N         16.5490   23.6060    6.9860 N.3    80  TRP80      -0.1227
     47  CA        17.0690   22.9630    5.7770 C.3    80  TRP80       0.1737
     48  C         16.8640   21.4490    5.7640 C.2    80  TRP80       0.2595
     49  O         16.5180   20.8780    4.7310 O.2    80  TRP80      -0.2718
     50  CB        18.5570   23.2830    5.5860 C.3    80  TRP80       0.0564
     51  CG        19.4700   22.6650    6.6010 C.ar   80  TRP80       0.0003
     52  CD1       19.8500   23.2000    7.7960 C.ar   80  TRP80       0.0946
     53  CD2       20.1320   21.3980    6.5000 C.ar   80  TRP80       0.0152
     54  NE1       20.7020   22.3440    8.4500 N.ar   80  TRP80      -0.2442
     55  CE2       20.8910   21.2290    7.6750 C.ar   80  TRP80       0.0810
     56  CE3       20.1530   20.3880    5.5330 C.ar   80  TRP80       0.0012
     57  CZ2       21.6630   20.0930    7.9100 C.ar   80  TRP80       0.0191
     58  CZ3       20.9200   19.2600    5.7670 C.ar   80  TRP80       0.0001
     59  CH2       21.6640   19.1230    6.9460 C.ar   80  TRP80       0.0015
     60  N         17.0640   20.8000    6.9070 N.am   81  LEU81      -0.1980
     61  CA        16.8990   19.3540    6.9750 C.3    81  LEU81       0.1596
     62  C         15.4190   18.9800    6.9440 C.2    81  LEU81       0.2287
     63  O         15.0480   17.9440    6.3950 O.2    81  LEU81      -0.2864
     64  CB        17.5720   18.7850    8.2260 C.3    81  LEU81       0.0297
     65  CG        17.6420   17.2560    8.2890 C.3    81  LEU81       0.0022
     66  CD1       18.1990   16.6920    6.9880 C.3    81  LEU81       0.0001
     67  CD2       18.4800   16.7980    9.4710 C.3    81  LEU81       0.0001
     68  N         14.4410   19.2490    3.2390 N.3    84  LEU84      -0.1231
     69  CA        14.9370   18.0980    2.4920 C.3    84  LEU84       0.1693
     70  C         14.0880   16.8650    2.7740 C.2    84  LEU84       0.2591
     71  O         13.7590   16.1030    1.8640 O.2    84  LEU84      -0.2718
     72  CB        16.4000   17.8120    2.8370 C.3    84  LEU84       0.0284
     73  CG        17.4540   18.7450    2.2410 C.3    84  LEU84       0.0019
     74  CD1       18.8450   18.3160    2.6750 C.3    84  LEU84       0.0001
     75  CD2       17.3460   18.7720    0.7240 C.3    84  LEU84       0.0001
     76  N         13.7310   16.6800    4.0410 N.am   85  MET85      -0.1979
     77  CA        12.9700   15.5090    4.4600 C.3    85  MET85       0.1605
     78  C         11.5390   15.5210    3.9330 C.2    85  MET85       0.2287
     79  O         11.0360   14.4930    3.4820 O.2    85  MET85      -0.2864
     80  CB        12.9640   15.3950    5.9850 C.3    85  MET85       0.0413
     81  CG        14.2560   14.8350    6.5600 C.3    85  MET85       0.0598
     82  SD        14.2310   14.6990    8.3560 S.3    85  MET85      -0.1393
     83  CE        15.7840   13.8570    8.6510 C.3    85  MET85       0.0692
     84  N         11.6940   14.5810    0.5280 N.3    88  LEU88      -0.1245
     85  CA        11.9280   13.1460    0.4150 C.3    88  LEU88       0.1561
     86  C         10.6310   12.3510    0.5130 C.2    88  LEU88       0.2260
     87  O         10.3480   11.5080   -0.3370 O.2    88  LEU88      -0.2867
     88  CB        12.9060   12.6770    1.4940 C.3    88  LEU88       0.0270
     89  CG        13.0420   11.1630    1.6820 C.3    88  LEU88       0.0019
     90  CD1       13.5630   10.5040    0.4190 C.3    88  LEU88       0.0001
     91  CD2       13.9440   10.8470    2.8620 C.3    88  LEU88       0.0001
     92  N          8.1660   12.7720   -2.6810 N.3    91  ARG91      -0.1245
     93  CA         8.4440   11.9960   -3.8820 C.3    91  ARG91       0.1563
     94  C          8.5320   10.5010   -3.5840 C.2    91  ARG91       0.2260
     95  O          8.6550    9.6870   -4.4970 O.2    91  ARG91      -0.2867
     96  CB         9.7360   12.4840   -4.5440 C.3    91  ARG91       0.0307
     97  CG        10.9490   12.5010   -3.6310 C.3    91  ARG91       0.0489
     98  CD        12.1520   13.1060   -4.3400 C.3    91  ARG91       0.2205
     99  NE        13.3680   13.0250   -3.5360 N.pl3  91  ARG91      -0.0865
    100  CZ        13.8090   13.9970   -2.7450 C.cat  91  ARG91       0.5346
    101  NH1       13.1360   15.1350   -2.6490 N.pl3  91  ARG91       0.1354
    102  NH2       14.9270   13.8320   -2.0500 N.pl3  91  ARG91       0.1354
    103  N         15.2040    8.8840   -2.2520 N.3   101  PHE101     -0.1241
    104  CA        16.1740    9.9630   -2.0940 C.3   101  PHE101      0.1605
    105  C         16.5020   10.5530   -3.4560 C.2   101  PHE101      0.2264
    106  O         16.6280   11.7670   -3.6120 O.2   101  PHE101     -0.2867
    107  CB        17.4480    9.4590   -1.4100 C.3   101  PHE101      0.0534
    108  CG        17.2810    9.1770    0.0560 C.ar  101  PHE101     -0.0203
    109  CD1       17.5280   10.1650    0.9960 C.ar  101  PHE101     -0.0042
    110  CD2       16.8800    7.9260    0.4960 C.ar  101  PHE101     -0.0042
    111  CE1       17.3800    9.9100    2.3470 C.ar  101  PHE101     -0.0003
    112  CE2       16.7280    7.6650    1.8470 C.ar  101  PHE101     -0.0003
    113  CZ        16.9780    8.6590    2.7730 C.ar  101  PHE101     -0.0000
    114  N         19.8700    4.8580   12.0750 N.3   118  MET118     -0.1245
    115  CA        19.1460    5.2710   10.8770 C.3   118  MET118      0.1570
    116  C         17.8100    4.5620   10.6860 C.2   118  MET118      0.2261
    117  O         16.8730    5.1430   10.1370 O.2   118  MET118     -0.2867
    118  CB        20.0090    5.0520    9.6320 C.3   118  MET118      0.0387
    119  CG        21.0600    6.1220    9.4120 C.3   118  MET118      0.0595
    120  SD        20.3690    7.7870    9.4550 S.3   118  MET118     -0.1393
    121  CE        19.1200    7.6770    8.1770 C.3   118  MET118      0.0692
    122  N         14.9740    6.5150   11.9610 N.3   121  ILE121     -0.1231
    123  CA        14.7740    7.6990   11.1380 C.3   121  ILE121      0.1692
    124  C         14.0600    7.3080    9.8490 C.2   121  ILE121      0.2592
    125  O         13.1390    7.9940    9.4060 O.2   121  ILE121     -0.2718
    126  CB        16.1080    8.3980   10.8090 C.3   121  ILE121      0.0266
    127  CG1       16.8120    8.8280   12.0980 C.3   121  ILE121      0.0019
    128  CG2       15.8770    9.5970    9.9020 C.3   121  ILE121      0.0020
    129  CD1       18.1020    9.5840   11.8670 C.3   121  ILE121      0.0001
    130  N         14.4840    6.1920    9.2610 N.am  122  PHE122     -0.1976
    131  CA        13.8500    5.6650    8.0570 C.3   122  PHE122      0.1639
    132  C         12.3820    5.3290    8.2990 C.2   122  PHE122      0.2290
    133  O         11.5150    5.7260    7.5220 O.2   122  PHE122     -0.2864
    134  CB        14.5890    4.4220    7.5540 C.3   122  PHE122      0.0560
    135  CG        15.7350    4.7250    6.6300 C.ar  122  PHE122     -0.0200
    136  CD1       16.1660    6.0270    6.4370 C.ar  122  PHE122     -0.0042
    137  CD2       16.3700    3.7060    5.9400 C.ar  122  PHE122     -0.0042
    138  CE1       17.2160    6.3040    5.5810 C.ar  122  PHE122     -0.0003
    139  CE2       17.4200    3.9780    5.0830 C.ar  122  PHE122     -0.0003
    140  CZ        17.8440    5.2780    4.9040 C.ar  122  PHE122     -0.0000
    141  N         10.3530    8.3310    8.5360 N.3   125  LEU125     -0.1245
    142  CA        10.2090    8.9410    7.2180 C.3   125  LEU125      0.1561
    143  C          9.2210    8.1570    6.3620 C.2   125  LEU125      0.2260
    144  O          8.4690    8.7370    5.5790 O.2   125  LEU125     -0.2867
    145  CB        11.5650    9.0310    6.5130 C.3   125  LEU125      0.0270
    146  CG        12.5290   10.1030    7.0270 C.3   125  LEU125      0.0019
    147  CD1       13.9150    9.9150    6.4310 C.3   125  LEU125      0.0001
    148  CD2       11.9980   11.4940    6.7160 C.3   125  LEU125      0.0001
    149  N         17.7560   13.6350   13.0060 N.3   207  GLY207     -0.1225
    150  CA        18.6940   13.5750   11.9010 C.3   207  GLY207      0.1811
    151  C         19.9120   14.4440   12.1430 C.2   207  GLY207      0.2280
    152  O         21.0130   14.1250   11.6970 O.2   207  GLY207     -0.2866
    153  N         22.3680   12.6020   14.4280 N.3   210  HIS210     -0.1226
    154  CA        23.1390   11.6010   13.7000 C.3   210  HIS210      0.1752
    155  C         24.2000   12.2610   12.8270 C.2   210  HIS210      0.2595
    156  O         25.3010   11.7330   12.6680 O.2   210  HIS210     -0.2718
    157  CB        22.2200   10.7290   12.8430 C.3   210  HIS210      0.0759
    158  CG        22.9440    9.6640   12.0800 C.ar  210  HIS210      0.0818
    159  ND1       23.6000    8.6210   12.6970 N.ar  210  HIS210     -0.2268
    160  CD2       23.1200    9.4850   10.7490 C.ar  210  HIS210      0.1154
    161  CE1       24.1470    7.8430   11.7800 C.ar  210  HIS210      0.1986
    162  NE2       23.8710    8.3450   10.5900 N.ar  210  HIS210     -0.2212
    163  N         23.8580   13.4140   12.2590 N.am  211  LEU211     -0.1980
    164  CA        24.7960   14.1850   11.4520 C.3   211  LEU211      0.1596
    165  C         25.9900   14.6290   12.2880 C.2   211  LEU211      0.2287
    166  O         27.1340   14.5850   11.8340 O.2   211  LEU211     -0.2864
    167  CB        24.1020   15.4040   10.8400 C.3   211  LEU211      0.0297
    168  CG        25.0020   16.4150   10.1270 C.3   211  LEU211      0.0022
    169  CD1       25.7040   15.7720    8.9390 C.3   211  LEU211      0.0001
    170  CD2       24.2040   17.6350    9.6910 C.3   211  LEU211      0.0001
    171  N         28.3870   11.7720   12.9640 N.3   214  MET214     -0.1245
    172  CA        29.2120   11.4540   11.8040 C.3   214  MET214      0.1570
    173  C         30.4100   12.3900   11.7140 C.2   214  MET214      0.2261
    174  O         31.4920   11.9880   11.2840 O.2   214  MET214     -0.2867
    175  CB        28.3930   11.5290   10.5160 C.3   214  MET214      0.0387
    176  CG        27.3070   10.4750   10.4060 C.3   214  MET214      0.0595
    177  SD        26.6580   10.3510    8.7310 S.3   214  MET214     -0.1393
    178  CE        26.1500   12.0420    8.4320 C.3   214  MET214      0.0692
    179  N         27.7710   21.7960    4.8310 N.3   226  LEU226     -0.1245
    180  CA        27.0770   20.9140    5.7650 C.3   226  LEU226      0.1561
    181  C         27.6020   21.0770    7.1880 C.2   226  LEU226      0.2260
    182  O         26.8530   20.9370    8.1540 O.2   226  LEU226     -0.2867
    183  CB        27.2040   19.4530    5.3300 C.3   226  LEU226      0.0270
    184  CG        26.1740   18.9460    4.3190 C.3   226  LEU226      0.0019
    185  CD1       26.2960   17.4410    4.1460 C.3   226  LEU226      0.0001
    186  CD2       24.7670   19.3240    4.7540 C.3   226  LEU226      0.0001
@<TRIPOS>BOND
     1    96    93    1
     2    96    97    1
     3    95    94    2
     4    98    97    1
     5    98    99    1
     6    30    29    1
     7    93    94    1
     8    93    92    1
     9   106   105    2
    10    99   100    2
    11   105   104    1
    12    37    38    1
    13    42    43    1
    14    42    41    1
    15    38    41    1
    16    38    39    1
    17    29    31    1
    18    29    28    1
    19    45    43   ar
    20   100   101    1
    21   100   102    1
    22    40    39    2
    23    43    44   ar
    24    25    28    1
    25    25    24    1
    26    25    26    1
    27    27    26    2
    28   103   104    1
    29   104   107    1
    30    26    32   am
    31   107   108    1
    32    32    33    1
    33    87    86    2
    34    35    34    2
    35    34    33    1
    36   108   110   ar
    37   108   109   ar
    38    33    36    1
    39    85    86    1
    40    85    84    1
    41    85    88    1
    42    90    89    1
    43   110   112   ar
    44    75    73    1
    45     9    10    1
    46    20    19    2
    47    19    18    1
    48   109   111   ar
    49    12    11    2
    50    10    11    1
    51    10    13    1
    52    88    89    1
    53    16    14    1
    54    11    17   am
    55    89    91    1
    56   112   113   ar
    57    71    70    2
    58    17    18    1
    59    73    74    1
    60    73    72    1
    61    18    21    1
    62   111   113   ar
    63    69    70    1
    64    69    72    1
    65    69    68    1
    66    22    21    1
    67    14    13    1
    68    14    15    1
    69    70    76   am
    70    21    23    1
    71     4     3    2
    72     3     2    1
    73    79    78    2
    74     1     2    1
    75    78    77    1
    76    76    77    1
    77   185   184    1
    78     2     5    1
    79   184   186    1
    80   184   183    1
    81    77    80    1
    82    49    48    2
    83   179   180    1
    84   140   139   ar
    85   140   138   ar
    86   139   137   ar
    87   183   180    1
    88    56    58   ar
    89    56    53   ar
    90   144   143    2
    91   138   136   ar
    92    50    47    1
    93    50    51    1
    94     5     6    1
    95    48    47    1
    96    48    60   am
    97   180   181    1
    98    58    59   ar
    99    47    46    1
   100   137   135   ar
   101    80    81    1
   102   143   142    1
   103    63    62    2
   104   147   146    1
   105   136   135   ar
   106    53    51   ar
   107    53    55   ar
   108   145   146    1
   109   145   142    1
   110    81    82    1
   111     7     6    1
   112     7     8    1
   113    51    52   ar
   114   135   134    1
   115   148   146    1
   116    60    61    1
   117    62    61    1
   118    59    57   ar
   119    61    64    1
   120    66    65    1
   121   181   182    2
   122   142   141    1
   123   133   132    2
   124   134   131    1
   125    55    57   ar
   126    55    54   ar
   127    52    54   ar
   128   131   132    1
   129   131   130    1
   130   121   120    1
   131    64    65    1
   132    65    67    1
   133    82    83    1
   134   178   177    1
   135   177   176    1
   136   169   168    1
   137   130   124   am
   138   125   124    2
   139   119   120    1
   140   119   118    1
   141   118   115    1
   142   170   168    1
   143   124   123    1
   144   128   126    1
   145   168   167    1
   146   117   116    2
   147   176   175    1
   148   175   172    1
   149   162   160   ar
   150   162   161   ar
   151   116   115    1
   152   160   158   ar
   153   126   123    1
   154   126   127    1
   155   167   164    1
   156   115   114    1
   157   123   122    1
   158   174   173    2
   159   164   163    1
   160   164   165    1
   161   152   151    2
   162   173   172    1
   163   161   159   ar
   164   172   171    1
   165   166   165    2
   166   129   127    1
   167   150   151    1
   168   150   149    1
   169   158   159   ar
   170   158   157    1
   171   163   155   am
   172   156   155    2
   173   155   154    1
   174   157   154    1
   175   154   153    1
