@<TRIPOS>MOLECULE
tmp/5krhA01.pdb
 205 193 0 0 0
SMALL
GASTEIGER

@<TRIPOS>ATOM
      1  N        -25.7870  -32.6840   -3.1160 N.3    37  MET37      -0.1245
      2  CA       -25.8360  -31.3850   -3.7700 C.3    37  MET37       0.1570
      3  C        -26.5290  -30.3760   -2.8700 C.2    37  MET37       0.2261
      4  O        -26.2060  -29.1920   -2.8910 O.2    37  MET37      -0.2867
      5  CB       -26.5410  -31.4760   -5.1240 C.3    37  MET37       0.0387
      6  CG       -25.7780  -32.2980   -6.1540 C.3    37  MET37       0.0595
      7  SD       -24.0020  -31.9530   -6.1180 S.3    37  MET37      -0.1393
      8  CE       -23.9620  -30.2350   -6.6150 C.3    37  MET37       0.0692
      9  N        -23.8250  -29.3660   -0.1460 N.3    40  LEU40      -0.1231
     10  CA       -22.8150  -28.5030   -0.7550 C.3    40  LEU40       0.1693
     11  C        -23.3390  -27.1030   -1.0500 C.2    40  LEU40       0.2592
     12  O        -22.7260  -26.1170   -0.6550 O.2    40  LEU40      -0.2718
     13  CB       -22.2830  -29.1270   -2.0460 C.3    40  LEU40       0.0284
     14  CG       -21.5020  -30.4310   -1.8850 C.3    40  LEU40       0.0019
     15  CD1      -20.9790  -30.9170   -3.2320 C.3    40  LEU40       0.0001
     16  CD2      -20.3660  -30.2400   -0.8980 C.3    40  LEU40       0.0001
     17  N        -24.4640  -27.0170   -1.7520 N.am   41  THR41      -0.1953
     18  CA       -25.0230  -25.7230   -2.1180 C.3    41  THR41       0.1897
     19  C        -25.3920  -24.9210   -0.8700 C.2    41  THR41       0.2313
     20  O        -25.1830  -23.7050   -0.8250 O.2    41  THR41      -0.2863
     21  CB       -26.2610  -25.8730   -3.0170 C.3    41  THR41       0.1794
     22  OG1      -27.2110  -26.7380   -2.3830 O.3    41  THR41      -0.2208
     23  CG2      -25.8700  -26.4560   -4.3630 C.3    41  THR41       0.0378
     24  N        -23.9140  -25.1730    1.9860 N.3    43  LEU43      -0.1231
     25  CA       -22.6340  -24.7560    2.5410 C.3    43  LEU43       0.1693
     26  C        -22.0570  -23.5810    1.7520 C.2    43  LEU43       0.2591
     27  O        -21.5240  -22.6340    2.3330 O.2    43  LEU43      -0.2718
     28  CB       -21.6460  -25.9250    2.5500 C.3    43  LEU43       0.0284
     29  CG       -20.2010  -25.6020    2.9510 C.3    43  LEU43       0.0019
     30  CD1      -20.1310  -24.9840    4.3420 C.3    43  LEU43       0.0001
     31  CD2      -19.3090  -26.8390    2.8520 C.3    43  LEU43       0.0001
     32  N        -22.1660  -23.6480    0.4290 N.am   44  ALA44      -0.1980
     33  CA       -21.6450  -22.5900   -0.4260 C.3    44  ALA44       0.1597
     34  C        -22.3880  -21.2850   -0.1750 C.2    44  ALA44       0.2287
     35  O        -21.7980  -20.2050   -0.2220 O.2    44  ALA44      -0.2864
     36  CB       -21.7440  -22.9900   -1.8930 C.3    44  ALA44       0.0319
     37  N        -21.2190  -19.7610    3.1920 N.3    47  GLU47      -0.1245
     38  CA       -19.8570  -19.2720    2.9820 C.3    47  GLU47       0.1567
     39  C        -19.8040  -17.9560    2.1900 C.2    47  GLU47       0.2260
     40  O        -18.9580  -17.0980    2.4590 O.2    47  GLU47      -0.2867
     41  CB       -19.0170  -20.3270    2.2530 C.3    47  GLU47       0.0388
     42  CG       -18.5480  -21.4730    3.1290 C.3    47  GLU47       0.1160
     43  CD       -17.4710  -22.3050    2.4610 C.2    47  GLU47       0.3649
     44  OE1      -17.8140  -23.3340    1.8370 O.co2  47  GLU47      -0.2457
     45  OE2      -16.2810  -21.9270    2.5560 O.co2  47  GLU47      -0.2457
     46  N        -16.2120  -15.6330   -7.2230 N.3    77  TRP77      -0.1227
     47  CA       -16.7120  -16.2590   -5.9910 C.3    77  TRP77       0.1737
     48  C        -16.5280  -17.7760   -5.9810 C.2    77  TRP77       0.2595
     49  O        -16.2530  -18.3560   -4.9380 O.2    77  TRP77      -0.2718
     50  CB       -18.1850  -15.9180   -5.7580 C.3    77  TRP77       0.0564
     51  CG       -19.1020  -16.5240   -6.7580 C.ar   77  TRP77       0.0003
     52  CD1      -19.4720  -15.9910   -7.9510 C.ar   77  TRP77       0.0946
     53  CD2      -19.7750  -17.7860   -6.6530 C.ar   77  TRP77       0.0152
     54  NE1      -20.3350  -16.8370   -8.6000 N.ar   77  TRP77      -0.2442
     55  CE2      -20.5370  -17.9480   -7.8230 C.ar   77  TRP77       0.0810
     56  CE3      -19.8100  -18.7920   -5.6790 C.ar   77  TRP77       0.0012
     57  CZ2      -21.3200  -19.0740   -8.0540 C.ar   77  TRP77       0.0191
     58  CZ3      -20.5870  -19.9080   -5.9080 C.ar   77  TRP77       0.0001
     59  CH2      -21.3310  -20.0410   -7.0880 C.ar   77  TRP77       0.0015
     60  N        -16.6560  -18.4220   -7.1350 N.am   78  LEU78      -0.1980
     61  CA       -16.4620  -19.8670   -7.1750 C.3    78  LEU78       0.1596
     62  C        -14.9790  -20.2200   -7.0950 C.2    78  LEU78       0.2287
     63  O        -14.6050  -21.1870   -6.4320 O.2    78  LEU78      -0.2864
     64  CB       -17.0880  -20.4850   -8.4270 C.3    78  LEU78       0.0297
     65  CG       -17.1040  -22.0190   -8.3780 C.3    78  LEU78       0.0022
     66  CD1      -17.5990  -22.5160   -7.0100 C.3    78  LEU78       0.0001
     67  CD2      -17.9470  -22.6120   -9.5050 C.3    78  LEU78       0.0001
     68  N        -14.0770  -19.8870   -3.3960 N.3    81  LEU81      -0.1231
     69  CA       -14.5280  -21.0530   -2.6310 C.3    81  LEU81       0.1693
     70  C        -13.6020  -22.2420   -2.8610 C.2    81  LEU81       0.2591
     71  O        -13.2380  -22.9520   -1.9160 O.2    81  LEU81      -0.2718
     72  CB       -15.9610  -21.4470   -3.0030 C.3    81  LEU81       0.0284
     73  CG       -17.1000  -20.5560   -2.5070 C.3    81  LEU81       0.0019
     74  CD1      -18.4280  -21.0970   -3.0060 C.3    81  LEU81       0.0001
     75  CD2      -17.0910  -20.4380   -0.9860 C.3    81  LEU81       0.0001
     76  N        -13.2210  -22.4410   -4.1220 N.am   82  MET82      -0.1979
     77  CA       -12.4300  -23.6000   -4.5220 C.3    82  MET82       0.1605
     78  C        -11.0440  -23.5850   -3.9040 C.2    82  MET82       0.2287
     79  O        -10.5850  -24.6020   -3.3860 O.2    82  MET82      -0.2864
     80  CB       -12.3180  -23.6760   -6.0550 C.3    82  MET82       0.0413
     81  CG       -13.5590  -24.2680   -6.7240 C.3    82  MET82       0.0598
     82  SD       -13.4430  -24.3530   -8.5180 S.3    82  MET82      -0.1393
     83  CE       -14.8760  -25.3600   -8.9140 C.3    82  MET82       0.0692
     84  N        -11.4450  -24.4880   -0.3450 N.3    85  LEU85      -0.1245
     85  CA       -11.6150  -25.9360   -0.2520 C.3    85  LEU85       0.1561
     86  C        -10.3020  -26.6910   -0.4590 C.2    85  LEU85       0.2260
     87  O         -9.9650  -27.5970    0.3050 O.2    85  LEU85      -0.2867
     88  CB       -12.6460  -26.4090   -1.2740 C.3    85  LEU85       0.0270
     89  CG       -12.6900  -27.9170   -1.5310 C.3    85  LEU85       0.0019
     90  CD1      -13.0730  -28.6880   -0.2740 C.3    85  LEU85       0.0001
     91  CD2      -13.6580  -28.2170   -2.6550 C.3    85  LEU85       0.0001
     92  N         -7.8740  -26.1650    2.7060 N.3    88  ARG88      -0.1245
     93  CA        -8.1280  -26.8940    3.9390 C.3    88  ARG88       0.1563
     94  C         -8.2110  -28.3990    3.6800 C.2    88  ARG88       0.2260
     95  O         -8.4530  -29.1790    4.5970 O.2    88  ARG88      -0.2867
     96  CB        -9.3990  -26.3790    4.6200 C.3    88  ARG88       0.0307
     97  CG       -10.6700  -26.4980    3.8030 C.3    88  ARG88       0.0489
     98  CD       -11.8500  -25.8910    4.5600 C.3    88  ARG88       0.2205
     99  NE       -13.1360  -26.1100    3.9000 N.pl3  88  ARG88      -0.0865
    100  CZ       -13.7110  -25.2430    3.0720 C.cat  88  ARG88       0.5346
    101  NH1      -13.1120  -24.0930    2.7950 N.pl3  88  ARG88       0.1354
    102  NH2      -14.8860  -25.5230    2.5230 N.pl3  88  ARG88       0.1354
    103  N        -14.6980  -30.2730    2.6400 N.3    98  PHE98      -0.1241
    104  CA       -15.7010  -29.2300    2.4540 C.3    98  PHE98       0.1605
    105  C        -16.0340  -28.5730    3.7960 C.2    98  PHE98       0.2264
    106  O        -16.1530  -27.3460    3.8910 O.2    98  PHE98      -0.2867
    107  CB       -16.9640  -29.8010    1.8050 C.3    98  PHE98       0.0534
    108  CG       -16.8160  -30.0810    0.3340 C.ar   98  PHE98      -0.0203
    109  CD1      -17.0400  -29.0800   -0.6010 C.ar   98  PHE98      -0.0042
    110  CD2      -16.4520  -31.3420   -0.1140 C.ar   98  PHE98      -0.0042
    111  CE1      -16.9080  -29.3300   -1.9610 C.ar   98  PHE98      -0.0003
    112  CE2      -16.3130  -31.6020   -1.4730 C.ar   98  PHE98      -0.0003
    113  CZ       -16.5410  -30.5940   -2.3980 C.ar   98  PHE98      -0.0000
    114  N        -20.6190  -36.0160  -13.4210 N.3   114  GLY114     -0.1210
    115  CA       -19.5660  -35.0820  -13.7800 C.3   114  GLY114      0.1956
    116  C        -19.0210  -34.3560  -12.5670 C.2   114  GLY114      0.2611
    117  O        -18.5640  -33.2210  -12.6620 O.2   114  GLY114     -0.2717
    118  N        -19.0790  -35.0180  -11.4180 N.am  115  MET115     -0.1979
    119  CA       -18.5320  -34.4720  -10.1860 C.3   115  MET115      0.1605
    120  C        -17.1610  -35.0930   -9.9220 C.2   115  MET115      0.2287
    121  O        -16.3260  -34.5190   -9.2270 O.2   115  MET115     -0.2864
    122  CB       -19.4910  -34.7360   -9.0260 C.3   115  MET115      0.0413
    123  CG       -19.1460  -34.0330   -7.7230 C.3   115  MET115      0.0598
    124  SD       -19.4080  -32.2470   -7.7930 S.3   115  MET115     -0.1393
    125  CE       -21.0460  -32.1680   -8.5140 C.3   115  MET115      0.0692
    126  N        -14.7680  -35.5340  -12.0560 N.3   117  GLU117     -0.1231
    127  CA       -13.7190  -34.8310  -12.7810 C.3   117  GLU117      0.1699
    128  C        -13.1940  -33.6490  -11.9820 C.2   117  GLU117      0.2592
    129  O        -11.9840  -33.4490  -11.8830 O.2   117  GLU117     -0.2718
    130  CB       -14.2290  -34.3620  -14.1430 C.3   117  GLU117      0.0402
    131  CG       -13.1810  -33.7340  -15.0400 C.3   117  GLU117      0.1161
    132  CD       -12.2670  -34.7160  -15.6720 C.2   117  GLU117      0.3649
    133  OE1      -12.7420  -35.7900  -16.1210 O.co2 117  GLU117     -0.2457
    134  OE2      -11.0630  -34.3020  -15.8270 O.co2 117  GLU117     -0.2457
    135  N        -14.1010  -32.8650  -11.4070 N.am  118  ILE118     -0.1980
    136  CA       -13.6820  -31.7380  -10.5830 C.3   118  ILE118      0.1595
    137  C        -13.0570  -32.2300   -9.2900 C.2   118  ILE118      0.2287
    138  O        -12.0950  -31.6390   -8.8040 O.2   118  ILE118     -0.2864
    139  CB       -14.8430  -30.7800  -10.2530 C.3   118  ILE118      0.0276
    140  CG1      -14.3140  -29.5190   -9.5670 C.3   118  ILE118      0.0022
    141  CG2      -15.9270  -31.4390   -9.4050 C.3   118  ILE118      0.0022
    142  CD1      -13.5600  -28.6050  -10.4990 C.3   118  ILE118      0.0001
    143  N         -9.6270  -32.9280  -10.1760 N.3   121  MET121     -0.1230
    144  CA        -8.9040  -31.6810  -10.3950 C.3   121  MET121      0.1702
    145  C         -8.6400  -30.9710   -9.0700 C.2   121  MET121      0.2592
    146  O         -7.5060  -30.5760   -8.7870 O.2   121  MET121     -0.2718
    147  CB        -9.6760  -30.7690  -11.3530 C.3   121  MET121      0.0401
    148  CG        -9.7270  -31.2820  -12.7880 C.3   121  MET121      0.0596
    149  SD       -10.4300  -30.1030  -13.9580 S.3   121  MET121     -0.1393
    150  CE       -12.1550  -30.1110  -13.4940 C.3   121  MET121      0.0692
    151  N         -9.6840  -30.8270   -8.2580 N.am  122  LEU122     -0.1980
    152  CA        -9.5470  -30.2500   -6.9200 C.3   122  LEU122      0.1596
    153  C         -8.5170  -31.0070   -6.0830 C.2   122  LEU122      0.2287
    154  O         -7.6590  -30.3990   -5.4420 O.2   122  LEU122     -0.2864
    155  CB       -10.8960  -30.2440   -6.1960 C.3   122  LEU122      0.0297
    156  CG       -11.9860  -29.3230   -6.7460 C.3   122  LEU122      0.0022
    157  CD1      -13.3040  -29.5740   -6.0160 C.3   122  LEU122      0.0001
    158  CD2      -11.5650  -27.8600   -6.6460 C.3   122  LEU122      0.0001
    159  N        -11.1940  -24.7460  -13.3800 N.3   200  MET200     -0.1245
    160  CA       -12.1160  -25.4970  -12.5300 C.3   200  MET200      0.1570
    161  C        -13.3980  -24.7150  -12.2460 C.2   200  MET200      0.2261
    162  O        -14.4880  -25.2840  -12.2220 O.2   200  MET200     -0.2867
    163  CB       -11.4380  -25.8820  -11.2110 C.3   200  MET200      0.0387
    164  CG       -10.3460  -26.9270  -11.3570 C.3   200  MET200      0.0595
    165  SD        -9.7880  -27.5670   -9.7660 S.3   200  MET200     -0.1393
    166  CE        -9.1730  -26.0740   -9.0010 C.3   200  MET200      0.0692
    167  N        -15.7020  -24.7500  -15.4280 N.3   203  LYS203     -0.1231
    168  CA       -16.3880  -26.0370  -15.5000 C.3   203  LYS203      0.1693
    169  C        -17.4560  -26.1050  -14.4170 C.2   203  LYS203      0.2592
    170  O        -18.5170  -26.6940  -14.6120 O.2   203  LYS203     -0.2718
    171  CB       -15.4050  -27.1990  -15.3470 C.3   203  LYS203      0.0285
    172  CG       -14.3900  -27.3060  -16.4670 C.3   203  LYS203      0.0035
    173  CD       -15.0830  -27.3930  -17.8120 C.3   203  LYS203      0.0206
    174  CE       -14.0960  -27.6910  -18.9290 C.3   203  LYS203      0.1093
    175  NZ       -13.4040  -28.9960  -18.7180 N.3   203  LYS203     -0.1314
    176  N        -17.1670  -25.4860  -13.2770 N.am  204  GLY204     -0.1957
    177  CA       -18.1000  -25.4350  -12.1670 C.3   204  GLY204      0.1869
    178  C        -19.3940  -24.7090  -12.4700 C.2   204  GLY204      0.2309
    179  O        -20.4720  -25.1930  -12.1360 O.2   204  GLY204     -0.2863
    180  N        -21.9740  -26.6600  -14.7000 N.3   207  HIS207     -0.1226
    181  CA       -22.7700  -27.6710  -14.0090 C.3   207  HIS207      0.1752
    182  C        -23.8290  -27.0380  -13.1160 C.2   207  HIS207      0.2595
    183  O        -24.8760  -27.6310  -12.8590 O.2   207  HIS207     -0.2718
    184  CB       -21.8630  -28.5880  -13.1810 C.3   207  HIS207      0.0759
    185  CG       -22.5940  -29.6850  -12.4690 C.ar  207  HIS207      0.0818
    186  ND1      -22.6920  -29.7470  -11.0950 N.ar  207  HIS207     -0.2268
    187  CD2      -23.2630  -30.7630  -12.9420 C.ar  207  HIS207      0.1154
    188  CE1      -23.3920  -30.8140  -10.7540 C.ar  207  HIS207      0.1986
    189  NE2      -23.7500  -31.4480  -11.8560 N.ar  207  HIS207     -0.2212
    190  N        -23.5410  -25.8340  -12.6340 N.am  208  LEU208     -0.1980
    191  CA       -24.4880  -25.1120  -11.7930 C.3   208  LEU208      0.1596
    192  C        -25.6970  -24.6860  -12.6030 C.2   208  LEU208      0.2287
    193  O        -26.8300  -24.7670  -12.1370 O.2   208  LEU208     -0.2864
    194  CB       -23.8320  -23.8890  -11.1570 C.3   208  LEU208      0.0297
    195  CG       -23.3500  -24.1010   -9.7290 C.3   208  LEU208      0.0022
    196  CD1      -22.4560  -25.3150   -9.6980 C.3   208  LEU208      0.0001
    197  CD2      -22.6270  -22.8660   -9.2090 C.3   208  LEU208      0.0001
    198  N        -27.7700  -27.6210  -13.4240 N.3   211  MET211     -0.1245
    199  CA       -28.3820  -28.0670  -12.1780 C.3   211  MET211      0.1570
    200  C        -29.5690  -27.1710  -11.8280 C.2   211  MET211      0.2261
    201  O        -30.5720  -27.6320  -11.2760 O.2   211  MET211     -0.2867
    202  CB       -27.3600  -28.0700  -11.0400 C.3   211  MET211      0.0387
    203  CG       -27.8110  -28.8400   -9.8100 C.3   211  MET211      0.0595
    204  SD       -26.5680  -28.8770   -8.5100 S.3   211  MET211     -0.1393
    205  CE       -26.4930  -27.1460   -8.0780 C.3   211  MET211      0.0692
@<TRIPOS>BOND
     1   174   175    1
     2   174   173    1
     3   173   172    1
     4   172   171    1
     5   133   132   ar
     6   134   132   ar
     7   132   131    1
     8   168   167    1
     9   168   171    1
    10   168   169    1
    11   131   130    1
    12   180   181    1
    13   170   169    2
    14   169   176   am
    15   130   127    1
    16   181   184    1
    17   181   182    1
    18   149   150    1
    19   149   148    1
    20   115   114    1
    21   115   116    1
    22   198   199    1
    23   159   160    1
    24   176   177    1
    25   184   185    1
    26   182   183    2
    27   182   190   am
    28   187   185   ar
    29   187   189   ar
    30   148   147    1
    31   127   126    1
    32   127   128    1
    33   117   116    2
    34   190   191    1
    35   192   193    2
    36   192   191    1
    37   116   118   am
    38   160   161    1
    39   160   163    1
    40   178   177    1
    41   178   179    2
    42   185   186   ar
    43   161   162    2
    44   199   200    1
    45   199   202    1
    46   128   129    2
    47   128   135   am
    48   189   188   ar
    49   200   201    2
    50   191   194    1
    51   118   119    1
    52   135   136    1
    53   164   163    1
    54   164   165    1
    55   147   144    1
    56   194   195    1
    57   186   188   ar
    58   202   203    1
    59   136   139    1
    60   136   137    1
    61   142   140    1
    62   144   143    1
    63   144   145    1
    64   139   140    1
    65   139   141    1
    66   119   120    1
    67   119   122    1
    68   120   121    2
    69   203   204    1
    70   165   166    1
    71   195   196    1
    72   195   197    1
    73    67    65    1
    74   137   138    2
    75   145   146    2
    76   145   151   am
    77   122   123    1
    78    83    82    1
    79    54    52   ar
    80    54    55   ar
    81    82    81    1
    82   125   124    1
    83   204   205    1
    84    64    65    1
    85    64    61    1
    86    65    66    1
    87   151   152    1
    88    57    55   ar
    89    57    59   ar
    90    52    51   ar
    91    55    53   ar
    92   124   123    1
    93    46    47    1
    94    61    60    1
    95    61    62    1
    96    60    48   am
    97    62    63    2
    98    59    58   ar
    99   152   155    1
   100   152   153    1
   101    51    53   ar
   102    51    50    1
   103   156   158    1
   104   156   155    1
   105   156   157    1
   106    81    80    1
   107    53    56   ar
   108     8     7    1
   109     6     7    1
   110     6     5    1
   111   153   154    2
   112    80    77    1
   113    47    48    1
   114    47    50    1
   115    48    49    2
   116    58    56   ar
   117     5     2    1
   118    77    76    1
   119    77    78    1
   120    23    21    1
   121    76    70   am
   122    78    79    2
   123     2     1    1
   124     2     3    1
   125    68    69    1
   126    15    14    1
   127    21    22    1
   128    21    18    1
   129    74    73    1
   130    72    69    1
   131    72    73    1
   132     4     3    2
   133    70    69    1
   134    70    71    2
   135    91    89    1
   136    73    75    1
   137   113   111   ar
   138   113   112   ar
   139    18    17    1
   140    18    19    1
   141    13    14    1
   142    13    10    1
   143   111   109   ar
   144    36    33    1
   145    14    16    1
   146    17    11   am
   147    89    88    1
   148    89    90    1
   149   112   110   ar
   150    88    85    1
   151    11    10    1
   152    11    12    2
   153    19    20    2
   154    10     9    1
   155   109   108   ar
   156    86    85    1
   157    86    87    2
   158    33    34    1
   159    33    32    1
   160    84    85    1
   161    35    34    2
   162   110   108   ar
   163   108   107    1
   164    32    26   am
   165    26    27    2
   166    26    25    1
   167   107   104    1
   168    44    43   ar
   169    24    25    1
   170    39    40    2
   171    39    38    1
   172    41    38    1
   173    41    42    1
   174   104   103    1
   175   104   105    1
   176    43    45   ar
   177    43    42    1
   178   102   100    1
   179    25    28    1
   180    28    29    1
   181    92    93    1
   182   101   100    1
   183    31    29    1
   184    29    30    1
   185    38    37    1
   186   100    99    2
   187    94    93    1
   188    94    95    2
   189   105   106    2
   190    97    98    1
   191    97    96    1
   192    99    98    1
   193    93    96    1
