@<TRIPOS>MOLECULE
tmp/5krjA01.pdb
 212 200 0 0 0
SMALL
GASTEIGER

@<TRIPOS>ATOM
      1  N         26.3430   -8.3730    3.5130 N.3    37  MET37      -0.1245
      2  CA        26.5960   -7.0450    4.0610 C.3    37  MET37       0.1570
      3  C         27.0940   -6.0950    2.9820 C.2    37  MET37       0.2261
      4  O         26.6550   -4.9420    2.9100 O.2    37  MET37      -0.2867
      5  CB        27.6010   -7.1270    5.2090 C.3    37  MET37       0.0387
      6  CG        27.0030   -7.5660    6.5350 C.3    37  MET37       0.0595
      7  SD        25.8270   -6.3680    7.1980 S.3    37  MET37      -0.1393
      8  CE        24.2640   -7.1210    6.7470 C.3    37  MET37       0.0692
      9  N         24.0570   -5.2630    0.4520 N.3    40  LEU40      -0.1231
     10  CA        23.0520   -4.3440    0.9750 C.3    40  LEU40       0.1693
     11  C         23.6520   -2.9730    1.2660 C.2    40  LEU40       0.2592
     12  O         22.9940   -1.9470    1.0570 O.2    40  LEU40      -0.2718
     13  CB        22.4070   -4.9300    2.2300 C.3    40  LEU40       0.0284
     14  CG        21.7010   -6.2800    2.0800 C.3    40  LEU40       0.0019
     15  CD1       21.0850   -6.6960    3.4040 C.3    40  LEU40       0.0001
     16  CD2       20.6450   -6.2350    0.9840 C.3    40  LEU40       0.0001
     17  N         24.8980   -2.9330    1.7470 N.am   41  THR41      -0.1953
     18  CA        25.5480   -1.6510    2.0020 C.3    41  THR41       0.1897
     19  C         25.7690   -0.8780    0.7050 C.2    41  THR41       0.2313
     20  O         25.5140    0.3310    0.6460 O.2    41  THR41      -0.2863
     21  CB        26.8730   -1.8670    2.7360 C.3    41  THR41       0.1794
     22  OG1       26.6280   -2.5020    3.9980 O.3    41  THR41      -0.2208
     23  CG2       27.5830   -0.5480    2.9710 C.3    41  THR41       0.0378
     24  N         24.0400   -1.1490   -2.0440 N.3    43  LEU43      -0.1231
     25  CA        22.7450   -0.7250   -2.5680 C.3    43  LEU43       0.1693
     26  C         22.2190    0.4920   -1.8160 C.2    43  LEU43       0.2591
     27  O         21.7900    1.4770   -2.4290 O.2    43  LEU43      -0.2718
     28  CB        21.7440   -1.8790   -2.4920 C.3    43  LEU43       0.0284
     29  CG        20.3110   -1.5580   -2.9250 C.3    43  LEU43       0.0019
     30  CD1       20.2790   -1.0780   -4.3680 C.3    43  LEU43       0.0001
     31  CD2       19.4160   -2.7710   -2.7400 C.3    43  LEU43       0.0001
     32  N         22.2430    0.4390   -0.4810 N.am   44  ALA44      -0.1980
     33  CA        21.7540    1.5530    0.3240 C.3    44  ALA44       0.1597
     34  C         22.6140    2.7940    0.1440 C.2    44  ALA44       0.2287
     35  O         22.1080    3.9210    0.2090 O.2    44  ALA44      -0.2864
     36  CB        21.7060    1.1540    1.7950 C.3    44  ALA44       0.0319
     37  N         21.3180    4.3520   -3.0680 N.3    47  GLU47      -0.1245
     38  CA        19.9670    4.8680   -2.8670 C.3    47  GLU47       0.1567
     39  C         19.9640    6.1960   -2.1200 C.2    47  GLU47       0.2260
     40  O         19.0990    7.0440   -2.3710 O.2    47  GLU47      -0.2867
     41  CB        19.1280    3.8430   -2.1090 C.3    47  GLU47       0.0388
     42  CG        18.6980    2.6600   -2.9540 C.3    47  GLU47       0.1160
     43  CD        17.8010    1.7000   -2.2020 C.2    47  GLU47       0.3649
     44  OE1       18.3120    0.9600   -1.3350 O.co2  47  GLU47      -0.2457
     45  OE2       16.5830    1.6920   -2.4750 O.co2  47  GLU47      -0.2457
     46  N         16.3880    8.3790    7.3880 N.3    77  TRP77      -0.1227
     47  CA        16.9180    7.7730    6.1670 C.3    77  TRP77       0.1737
     48  C         16.6820    6.2670    6.1320 C.2    77  TRP77       0.2595
     49  O         16.3710    5.7110    5.0710 O.2    77  TRP77      -0.2718
     50  CB        18.4070    8.0850    6.0070 C.3    77  TRP77       0.0564
     51  CG        19.2970    7.4310    7.0170 C.ar   77  TRP77       0.0003
     52  CD1       19.6600    7.9350    8.2300 C.ar   77  TRP77       0.0946
     53  CD2       19.9510    6.1580    6.8990 C.ar   77  TRP77       0.0152
     54  NE1       20.4920    7.0570    8.8790 N.ar   77  TRP77      -0.2442
     55  CE2       20.6870    5.9580    8.0840 C.ar   77  TRP77       0.0810
     56  CE3       19.9830    5.1670    5.9110 C.ar   77  TRP77       0.0012
     57  CZ2       21.4470    4.8110    8.3090 C.ar   77  TRP77       0.0191
     58  CZ3       20.7400    4.0250    6.1380 C.ar   77  TRP77       0.0001
     59  CH2       21.4600    3.8590    7.3290 C.ar   77  TRP77       0.0015
     60  N         16.8260    5.5800    7.2670 N.am   78  LEU78      -0.1980
     61  CA        16.5900    4.1400    7.2530 C.3    78  LEU78       0.1596
     62  C         15.0990    3.8290    7.1850 C.2    78  LEU78       0.2287
     63  O         14.6940    2.8460    6.5550 O.2    78  LEU78      -0.2864
     64  CB        17.2340    3.4760    8.4720 C.3    78  LEU78       0.0297
     65  CG        17.1800    1.9420    8.5250 C.3    78  LEU78       0.0022
     66  CD1       17.6860    1.3160    7.2290 C.3    78  LEU78       0.0001
     67  CD2       17.9660    1.4040    9.7130 C.3    78  LEU78       0.0001
     68  N         14.2470    4.0650    3.5380 N.3    81  LEU81      -0.1231
     69  CA        14.7030    2.8920    2.7970 C.3    81  LEU81       0.1693
     70  C         13.7930    1.6950    3.0380 C.2    81  LEU81       0.2591
     71  O         13.5350    0.9070    2.1200 O.2    81  LEU81      -0.2718
     72  CB        16.1400    2.5450    3.1860 C.3    81  LEU81       0.0284
     73  CG        17.2640    3.4720    2.7250 C.3    81  LEU81       0.0019
     74  CD1       18.6110    2.9530    3.2100 C.3    81  LEU81       0.0001
     75  CD2       17.2520    3.6060    1.2130 C.3    81  LEU81       0.0001
     76  N         13.3000    1.5420    4.2690 N.am   82  MET82      -0.1979
     77  CA        12.4750    0.3850    4.5990 C.3    82  MET82       0.1605
     78  C         11.1110    0.4590    3.9240 C.2    82  MET82       0.2287
     79  O         10.6390   -0.5370    3.3640 O.2    82  MET82      -0.2864
     80  CB        12.3130    0.2700    6.1120 C.3    82  MET82       0.0413
     81  CG        13.5620   -0.1820    6.8490 C.3    82  MET82       0.0598
     82  SD        13.2700   -0.2170    8.6260 S.3    82  MET82      -0.1393
     83  CE        14.8140   -0.8770    9.2290 C.3    82  MET82       0.0692
     84  N         11.6000   -0.5060    0.4270 N.3    85  LEU85      -0.1245
     85  CA        11.7660   -1.9520    0.3090 C.3    85  LEU85       0.1561
     86  C         10.4420   -2.6700    0.5300 C.2    85  LEU85       0.2260
     87  O         10.0740   -3.5750   -0.2270 O.2    85  LEU85      -0.2867
     88  CB        12.8130   -2.4400    1.3080 C.3    85  LEU85       0.0270
     89  CG        12.8730   -3.9520    1.5280 C.3    85  LEU85       0.0019
     90  CD1       13.4370   -4.6580    0.3070 C.3    85  LEU85       0.0001
     91  CD2       13.6900   -4.2650    2.7620 C.3    85  LEU85       0.0001
     92  N          8.2870   -2.1390   -2.5490 N.3    88  ARG88      -0.1245
     93  CA         8.7140   -2.9200   -3.7070 C.3    88  ARG88       0.1563
     94  C          8.3540   -4.3920   -3.5620 C.2    88  ARG88       0.2260
     95  O          8.1670   -5.0880   -4.5660 O.2    88  ARG88      -0.2867
     96  CB        10.2220   -2.7790   -3.9210 C.3    88  ARG88       0.0307
     97  CG        10.6750   -1.3930   -4.3260 C.3    88  ARG88       0.0489
     98  CD        12.1150   -1.4110   -4.8200 C.3    88  ARG88       0.2205
     99  NE        13.0520   -1.9490   -3.8360 N.pl3  88  ARG88      -0.0865
    100  CZ        13.7450   -1.2060   -2.9800 C.cat  88  ARG88       0.5346
    101  NH1       13.6040    0.1120   -2.9760 N.pl3  88  ARG88       0.1354
    102  NH2       14.5810   -1.7810   -2.1260 N.pl3  88  ARG88       0.1354
    103  N         14.8590   -6.2850   -2.5970 N.3    98  PHE98      -0.1241
    104  CA        15.8210   -5.2030   -2.4160 C.3    98  PHE98       0.1605
    105  C         16.1200   -4.5320   -3.7480 C.2    98  PHE98       0.2264
    106  O         16.1680   -3.3000   -3.8450 O.2    98  PHE98      -0.2867
    107  CB        17.1010   -5.7340   -1.7730 C.3    98  PHE98       0.0534
    108  CG        16.9400   -6.1200   -0.3310 C.ar   98  PHE98      -0.0203
    109  CD1       17.2110   -5.2110    0.6800 C.ar   98  PHE98      -0.0042
    110  CD2       16.5160   -7.3920    0.0160 C.ar   98  PHE98      -0.0042
    111  CE1       17.0630   -5.5660    2.0090 C.ar   98  PHE98      -0.0003
    112  CE2       16.3650   -7.7510    1.3420 C.ar   98  PHE98      -0.0003
    113  CZ        16.6400   -6.8380    2.3400 C.ar   98  PHE98      -0.0000
    114  N         23.1920  -13.6070    8.4320 N.3   112  VAL112     -0.1231
    115  CA        23.6120  -12.3970    9.1350 C.3   112  VAL112      0.1692
    116  C         22.8990  -12.3910   10.4810 C.2   112  VAL112      0.2592
    117  O         21.6650  -12.3130   10.5320 O.2   112  VAL112     -0.2718
    118  CB        23.2850  -11.1150    8.3500 C.3   112  VAL112      0.0266
    119  CG1       23.7590   -9.8880    9.1200 C.3   112  VAL112      0.0020
    120  CG2       23.9070  -11.1570    6.9610 C.3   112  VAL112      0.0020
    121  N         23.6690  -12.4650   11.5660 N.am  113  GLU113     -0.1966
    122  CA        23.0830  -12.6600   12.8880 C.3   113  GLU113      0.1733
    123  C         22.2050  -11.4760   13.2810 C.2   113  GLU113      0.2617
    124  O         22.6250  -10.3170   13.2030 O.2   113  GLU113     -0.2715
    125  CB        24.1840  -12.8830   13.9280 C.3   113  GLU113      0.0429
    126  CG        25.2300  -11.7780   13.9990 C.3   113  GLU113      0.1163
    127  CD        26.2690  -12.0190   15.0790 C.2   113  GLU113      0.3649
    128  OE1       26.9490  -13.0660   15.0310 O.co2 113  GLU113     -0.2457
    129  OE2       26.4010  -11.1640   15.9810 O.co2 113  GLU113     -0.2457
    130  N         20.9770  -11.7750   13.6940 N.am  114  GLY114     -0.1940
    131  CA        20.0350  -10.7600   14.1170 C.3   114  GLY114      0.2014
    132  C         19.2350  -10.1060   13.0130 C.2   114  GLY114      0.2638
    133  O         18.5260   -9.1310   13.2860 O.2   114  GLY114     -0.2714
    134  N         19.3690  -10.5510   11.7870 N.am  115  MET115     -0.1976
    135  CA        18.7380   -9.8410   10.7240 C.3   115  MET115      0.1605
    136  C         17.4560  -10.5050   10.3170 C.2   115  MET115      0.2287
    137  O         16.6150   -9.9260    9.6610 O.2   115  MET115     -0.2864
    138  CB        19.6700   -9.7570    9.5600 C.3   115  MET115      0.0413
    139  CG        19.2730   -8.6760    8.6180 C.3   115  MET115      0.0598
    140  SD        20.5780   -8.3240    7.5010 S.3   115  MET115     -0.1393
    141  CE        20.0590   -9.3070    6.1370 C.3   115  MET115      0.0692
    142  N         14.3030   -8.7490   11.8500 N.3   118  ILE118     -0.1231
    143  CA        13.8660   -7.5620   11.1290 C.3   118  ILE118      0.1692
    144  C         13.3700   -7.9000    9.7260 C.2   118  ILE118      0.2592
    145  O         12.4780   -7.2200    9.2080 O.2   118  ILE118     -0.2718
    146  CB        15.0050   -6.5330   11.0910 C.3   118  ILE118      0.0266
    147  CG1       15.5770   -6.3610   12.4980 C.3   118  ILE118      0.0019
    148  CG2       14.5070   -5.2000   10.5590 C.3   118  ILE118      0.0020
    149  CD1       16.6640   -5.3340   12.5860 C.3   118  ILE118      0.0001
    150  N         13.9270   -8.9350    9.0960 N.am  119  PHE119     -0.1976
    151  CA        13.3260   -9.4560    7.8740 C.3   119  PHE119      0.1639
    152  C         11.8740   -9.8470    8.1140 C.2   119  PHE119      0.2290
    153  O         10.9900   -9.5170    7.3160 O.2   119  PHE119     -0.2864
    154  CB        14.1200  -10.6560    7.3600 C.3   119  PHE119      0.0560
    155  CG        15.1770  -10.3030    6.3570 C.ar  119  PHE119     -0.0200
    156  CD1       15.5580  -11.2220    5.3950 C.ar  119  PHE119     -0.0042
    157  CD2       15.7960   -9.0630    6.3770 C.ar  119  PHE119     -0.0042
    158  CE1       16.5290  -10.9130    4.4650 C.ar  119  PHE119     -0.0003
    159  CE2       16.7740   -8.7470    5.4490 C.ar  119  PHE119     -0.0003
    160  CZ        17.1400   -9.6750    4.4920 C.ar  119  PHE119     -0.0000
    161  N          9.8500   -6.7930    8.3730 N.3   122  LEU122     -0.1245
    162  CA         9.6880   -6.2030    7.0480 C.3   122  LEU122      0.1561
    163  C          8.7000   -7.0010    6.2050 C.2   122  LEU122      0.2260
    164  O          7.8600   -6.4210    5.5070 O.2   122  LEU122     -0.2867
    165  CB        11.0410   -6.1080    6.3450 C.3   122  LEU122      0.0270
    166  CG        12.0260   -5.0750    6.8970 C.3   122  LEU122      0.0019
    167  CD1       13.4150   -5.2900    6.3150 C.3   122  LEU122      0.0001
    168  CD2       11.5350   -3.6620    6.6140 C.3   122  LEU122      0.0001
    169  N         16.9830   -1.7890   13.6890 N.3   204  GLY204     -0.1225
    170  CA        17.9500   -2.0130   12.6260 C.3   204  GLY204      0.1811
    171  C         19.1590   -1.1030   12.7410 C.2   204  GLY204      0.2280
    172  O         20.2920   -1.5280   12.5040 O.2   204  GLY204     -0.2866
    173  N         21.7970   -2.3760   15.2730 N.3   207  HIS207     -0.1226
    174  CA        22.8020   -3.3060   14.7650 C.3   207  HIS207      0.1752
    175  C         23.8530   -2.5850   13.9310 C.2   207  HIS207      0.2595
    176  O         25.0440   -2.9050   14.0150 O.2   207  HIS207     -0.2718
    177  CB        22.1430   -4.4080   13.9360 C.3   207  HIS207      0.0759
    178  CG        21.4020   -5.4210   14.7510 C.ar  207  HIS207      0.0818
    179  ND1       20.0760   -5.2730   15.0970 N.ar  207  HIS207     -0.2268
    180  CD2       21.8000   -6.6000   15.2860 C.ar  207  HIS207      0.1154
    181  CE1       19.6890   -6.3160   15.8090 C.ar  207  HIS207      0.1986
    182  NE2       20.7170   -7.1360   15.9390 N.ar  207  HIS207     -0.2212
    183  N         23.4300   -1.6070   13.1250 N.am  208  LEU208     -0.1980
    184  CA        24.3500   -0.9360   12.2110 C.3   208  LEU208      0.1596
    185  C         25.4980   -0.2640   12.9580 C.2   208  LEU208      0.2287
    186  O         26.6720   -0.5140   12.6620 O.2   208  LEU208     -0.2864
    187  CB        23.5920    0.0830   11.3640 C.3   208  LEU208      0.0297
    188  CG        23.2840   -0.3230    9.9250 C.3   208  LEU208      0.0022
    189  CD1       22.4410    0.7400    9.2500 C.3   208  LEU208      0.0001
    190  CD2       24.5680   -0.5720    9.1460 C.3   208  LEU208      0.0001
    191  N         29.2340   -4.8880   13.9580 N.3   213  CYS213     -0.1235
    192  CA        28.7750   -4.7160   12.5820 C.3   213  CYS213      0.1677
    193  C         29.4960   -3.5710   11.8840 C.2   213  CYS213      0.2270
    194  O         29.6030   -3.5650   10.6540 O.2   213  CYS213     -0.2867
    195  CB        27.2670   -4.4730   12.5520 C.3   213  CYS213      0.0956
    196  SG        26.2540   -5.9420   12.8230 S.3   213  CYS213     -0.0801
    197  N         31.8380    0.2720    5.3030 N.3   219  LEU219     -0.1245
    198  CA        30.7670    1.2570    5.2480 C.3   219  LEU219      0.1561
    199  C         31.3020    2.5550    4.6600 C.2   219  LEU219      0.2260
    200  O         32.3820    3.0180    5.0380 O.2   219  LEU219     -0.2867
    201  CB        30.1930    1.5090    6.6410 C.3   219  LEU219      0.0270
    202  CG        29.3110    0.4400    7.2840 C.3   219  LEU219      0.0019
    203  CD1       29.0300    0.8100    8.7290 C.3   219  LEU219      0.0001
    204  CD2       28.0120    0.2800    6.5120 C.3   219  LEU219      0.0001
    205  N         27.5990    6.7380    4.6270 N.3   223  LEU223     -0.1245
    206  CA        26.8270    5.8560    5.4960 C.3   223  LEU223      0.1561
    207  C         27.3020    5.9360    6.9390 C.2   223  LEU223      0.2260
    208  O         26.5120    5.7170    7.8630 O.2   223  LEU223     -0.2867
    209  CB        26.9030    4.4170    4.9950 C.3   223  LEU223      0.0270
    210  CG        25.5870    3.8590    4.4560 C.3   223  LEU223      0.0019
    211  CD1       25.7640    2.4100    4.0540 C.3   223  LEU223      0.0001
    212  CD2       24.4800    4.0020    5.4890 C.3   223  LEU223      0.0001
@<TRIPOS>BOND
     1    98    97    1
     2    98    99    1
     3    95    94    2
     4    30    29    1
     5    97    96    1
     6    96    93    1
     7   106   105    2
     8    99   100    2
     9   105   104    1
    10    93    94    1
    11    93    92    1
    12    37    38    1
    13   100   101    1
    14   100   102    1
    15    42    43    1
    16    42    41    1
    17    29    31    1
    18    29    28    1
    19    38    39    1
    20    38    41    1
    21   103   104    1
    22    25    28    1
    23    25    24    1
    24    25    26    1
    25    45    43   ar
    26    27    26    2
    27   104   107    1
    28    40    39    2
    29    43    44   ar
    30    26    32   am
    31   107   108    1
    32    32    33    1
    33   108   110   ar
    34   108   109   ar
    35    87    86    2
    36   110   112   ar
    37    34    35    2
    38    34    33    1
    39    90    89    1
    40    85    84    1
    41    85    86    1
    42    85    88    1
    43    33    36    1
    44     9    10    1
    45    20    19    2
    46   109   111   ar
    47    19    18    1
    48    10    11    1
    49    10    13    1
    50    16    14    1
    51    12    11    2
    52    75    73    1
    53    11    17   am
    54    88    89    1
    55   112   113   ar
    56    89    91    1
    57    17    18    1
    58    18    21    1
    59   111   113   ar
    60    14    13    1
    61    14    15    1
    62    71    70    2
    63    73    72    1
    64    73    74    1
    65    21    23    1
    66    21    22    1
    67    69    70    1
    68    69    72    1
    69    69    68    1
    70     4     3    2
    71     3     2    1
    72    70    76   am
    73    79    78    2
    74     1     2    1
    75    78    77    1
    76   211   210    1
    77     2     5    1
    78    76    77    1
    79   210   209    1
    80   210   212    1
    81   158   160   ar
    82   158   156   ar
    83   160   159   ar
    84    77    80    1
    85   205   206    1
    86   199   200    2
    87   199   198    1
    88   209   206    1
    89    49    48    2
    90     5     6    1
    91   198   197    1
    92   198   201    1
    93   156   155   ar
    94   159   157   ar
    95   206   207    1
    96   164   163    2
    97    56    58   ar
    98    56    53   ar
    99    50    47    1
   100    50    51    1
   101    80    81    1
   102    48    47    1
   103    48    60   am
   104   141   140    1
   105    58    59   ar
   106    47    46    1
   107   163   162    1
   108   167   166    1
   109   165   166    1
   110   165   162    1
   111   155   157   ar
   112   155   154    1
   113   204   202    1
   114     6     7    1
   115    63    62    2
   116   168   166    1
   117   201   202    1
   118     8     7    1
   119    81    82    1
   120    53    51   ar
   121    53    55   ar
   122   207   208    2
   123   120   118    1
   124    51    52   ar
   125   162   161    1
   126    62    61    1
   127    66    65    1
   128    61    60    1
   129    61    64    1
   130   202   203    1
   131   153   152    2
   132    59    57   ar
   133   154   151    1
   134   140   139    1
   135   151   152    1
   136   151   150    1
   137    55    57   ar
   138    55    54   ar
   139    52    54   ar
   140   118   119    1
   141   118   115    1
   142   114   115    1
   143    64    65    1
   144    65    67    1
   145   139   138    1
   146    82    83    1
   147   150   144   am
   148   115   116    1
   149   190   188    1
   150   145   144    2
   151   189   188    1
   152   138   135    1
   153   137   136    2
   154   144   143    1
   155   188   187    1
   156   136   135    1
   157   116   117    2
   158   116   121   am
   159   148   146    1
   160   194   193    2
   161   135   134    1
   162   146   143    1
   163   146   147    1
   164   143   142    1
   165   187   184    1
   166   121   122    1
   167   134   132   am
   168   193   192    1
   169   184   185    1
   170   184   183    1
   171   147   149    1
   172   172   171    2
   173   195   192    1
   174   195   196    1
   175   192   191    1
   176   170   171    1
   177   170   169    1
   178   186   185    2
   179   122   123    1
   180   122   125    1
   181   132   133    2
   182   132   131    1
   183   183   175   am
   184   124   123    2
   185   123   130   am
   186   130   131    1
   187   125   126    1
   188   175   176    2
   189   175   174    1
   190   177   178    1
   191   177   174    1
   192   126   127    1
   193   178   179   ar
   194   178   180   ar
   195   174   173    1
   196   128   127   ar
   197   127   129   ar
   198   179   181   ar
   199   180   182   ar
   200   181   182   ar
