@<TRIPOS>MOLECULE
tmp/5krkA01.pdb
 210 197 0 0 0
SMALL
GASTEIGER

@<TRIPOS>ATOM
      1  N         25.7570   -8.1030    4.0140 N.3    35  MET35      -0.1245
      2  CA        25.7550   -6.7070    4.4280 C.3    35  MET35       0.1570
      3  C         26.4000   -5.8210    3.3730 C.2    35  MET35       0.2261
      4  O         26.0030   -4.6730    3.1910 O.2    35  MET35      -0.2867
      5  CB        26.4760   -6.5400    5.7650 C.3    35  MET35       0.0387
      6  CG        25.6740   -7.0170    6.9580 C.3    35  MET35       0.0595
      7  SD        24.1430   -6.0870    7.1630 S.3    35  MET35      -0.1393
      8  CE        24.7780   -4.4190    7.3050 C.3    35  MET35       0.0692
      9  N         23.8160   -5.0710    0.7220 N.3    38  LEU38      -0.1231
     10  CA        22.7730   -4.2140    1.2760 C.3    38  LEU38       0.1693
     11  C         23.2920   -2.8020    1.5270 C.2    38  LEU38       0.2592
     12  O         22.5990   -1.8220    1.2520 O.2    38  LEU38      -0.2718
     13  CB        22.2170   -4.8100    2.5710 C.3    38  LEU38       0.0284
     14  CG        21.4940   -6.1520    2.4400 C.3    38  LEU38       0.0019
     15  CD1       20.8900   -6.5720    3.7720 C.3    38  LEU38       0.0001
     16  CD2       20.4270   -6.0890    1.3570 C.3    38  LEU38       0.0001
     17  N         24.5110   -2.7050    2.0510 N.am   39  THR39      -0.1953
     18  CA        25.1400   -1.4140    2.3080 C.3    39  THR39       0.1897
     19  C         25.3460   -0.6430    1.0080 C.2    39  THR39       0.2313
     20  O         25.0530    0.5510    0.9280 O.2    39  THR39      -0.2863
     21  CB        26.4950   -1.5800    3.0270 C.3    39  THR39       0.1794
     22  OG1       26.2760   -2.0960    4.3460 O.3    39  THR39      -0.2208
     23  CG2       27.2250   -0.2500    3.1230 C.3    39  THR39       0.0378
     24  N         23.7040   -1.0350   -1.7920 N.3    41  LEU41      -0.1231
     25  CA        22.3960   -0.6790   -2.3280 C.3    41  LEU41       0.1693
     26  C         21.7990    0.5190   -1.5980 C.2    41  LEU41       0.2591
     27  O         21.2990    1.4540   -2.2250 O.2    41  LEU41      -0.2718
     28  CB        21.4400   -1.8700   -2.2400 C.3    41  LEU41       0.0284
     29  CG        19.9960   -1.6090   -2.6720 C.3    41  LEU41       0.0019
     30  CD1       19.9310   -1.2430   -4.1480 C.3    41  LEU41       0.0001
     31  CD2       19.1170   -2.8150   -2.3720 C.3    41  LEU41       0.0001
     32  N         21.8550    0.4830   -0.2700 N.am   42  ALA42      -0.1980
     33  CA        21.2830    1.5380    0.5580 C.3    42  ALA42       0.1597
     34  C         21.9550    2.8830    0.3000 C.2    42  ALA42       0.2287
     35  O         21.2880    3.9170    0.2400 O.2    42  ALA42      -0.2864
     36  CB        21.3880    1.1680    2.0300 C.3    42  ALA42       0.0319
     37  N         20.7980    4.2850   -2.8660 N.3    45  GLU45      -0.1245
     38  CA        19.3940    4.6600   -2.7200 C.3    45  GLU45       0.1567
     39  C         19.2460    5.9940   -1.9970 C.2    45  GLU45       0.2260
     40  O         18.3140    6.7540   -2.2640 O.2    45  GLU45      -0.2867
     41  CB        18.6170    3.5780   -1.9680 C.3    45  GLU45       0.0388
     42  CG        18.2760    2.3550   -2.7980 C.3    45  GLU45       0.1160
     43  CD        17.3950    1.3760   -2.0470 C.2    45  GLU45       0.3649
     44  OE1       17.9250    0.6150   -1.2100 O.co2  45  GLU45      -0.2457
     45  OE2       16.1700    1.3710   -2.2890 O.co2  45  GLU45      -0.2457
     46  N         15.6050    8.3760    7.2900 N.3    75  TRP75      -0.1227
     47  CA        16.2090    7.7650    6.1050 C.3    75  TRP75       0.1737
     48  C         16.0330    6.2470    6.0710 C.2    75  TRP75       0.2595
     49  O         15.7950    5.6700    5.0100 O.2    75  TRP75      -0.2718
     50  CB        17.6980    8.1160    6.0110 C.3    75  TRP75       0.0564
     51  CG        18.5560    7.4690    7.0540 C.ar   75  TRP75       0.0003
     52  CD1       18.8610    7.9650    8.2880 C.ar   75  TRP75       0.0946
     53  CD2       19.2290    6.2090    6.9510 C.ar   75  TRP75       0.0152
     54  NE1       19.6780    7.0900    8.9620 N.ar   75  TRP75      -0.2442
     55  CE2       19.9200    6.0020    8.1620 C.ar   75  TRP75       0.0810
     56  CE3       19.3130    5.2320    5.9540 C.ar   75  TRP75       0.0012
     57  CZ2       20.6830    4.8630    8.4030 C.ar   75  TRP75       0.0191
     58  CZ3       20.0700    4.1000    6.1950 C.ar   75  TRP75       0.0001
     59  CH2       20.7450    3.9250    7.4090 C.ar   75  TRP75       0.0015
     60  N         16.1420    5.6010    7.2260 N.am   76  LEU76      -0.1980
     61  CA        15.9960    4.1530    7.2830 C.3    76  LEU76       0.1596
     62  C         14.5220    3.7680    7.1950 C.2    76  LEU76       0.2287
     63  O         14.1770    2.7510    6.5960 O.2    76  LEU76      -0.2864
     64  CB        16.6270    3.5900    8.5580 C.3    76  LEU76       0.0297
     65  CG        16.7690    2.0660    8.6060 C.3    76  LEU76       0.0022
     66  CD1       17.4290    1.5500    7.3360 C.3    76  LEU76       0.0001
     67  CD2       17.5630    1.6370    9.8310 C.3    76  LEU76       0.0001
     68  N         13.6750    4.0420    3.5550 N.3    79  LEU79      -0.1231
     69  CA        14.2580    2.8960    2.8650 C.3    79  LEU79       0.1693
     70  C         13.4260    1.6380    3.0920 C.2    79  LEU79       0.2591
     71  O         13.2020    0.8560    2.1690 O.2    79  LEU79      -0.2718
     72  CB        15.6970    2.6530    3.3280 C.3    79  LEU79       0.0284
     73  CG        16.7970    3.5370    2.7370 C.3    79  LEU79       0.0019
     74  CD1       18.1590    3.1130    3.2640 C.3    79  LEU79       0.0001
     75  CD2       16.7690    3.4910    1.2160 C.3    79  LEU79       0.0001
     76  N         12.9650    1.4550    4.3250 N.am   80  MET80      -0.1979
     77  CA        12.2300    0.2510    4.6920 C.3    80  MET80       0.1605
     78  C         10.8200    0.2150    4.1070 C.2    80  MET80       0.2287
     79  O         10.3730   -0.8290    3.6340 O.2    80  MET80      -0.2864
     80  CB        12.1710    0.1110    6.2150 C.3    80  MET80       0.0413
     81  CG        13.4760   -0.3750    6.8320 C.3    80  MET80       0.0598
     82  SD        13.4150   -0.5170    8.6270 S.3    80  MET80      -0.1393
     83  CE        14.9900   -1.3000    8.9580 C.3    80  MET80       0.0692
     84  N         11.0970   -0.6750    0.5450 N.3    83  LEU83      -0.1245
     85  CA        11.3680   -2.1040    0.4400 C.3    83  LEU83       0.1561
     86  C         10.0930   -2.9200    0.6150 C.2    83  LEU83       0.2260
     87  O          9.8140   -3.8350   -0.1610 O.2    83  LEU83      -0.2867
     88  CB        12.4060   -2.5240    1.4830 C.3    83  LEU83       0.0270
     89  CG        12.5870   -4.0220    1.7240 C.3    83  LEU83       0.0019
     90  CD1       13.1090   -4.7100    0.4760 C.3    83  LEU83       0.0001
     91  CD2       13.5180   -4.2600    2.9010 C.3    83  LEU83       0.0001
     92  N          7.9150   -2.6290   -2.4060 N.3    86  ARG86      -0.1245
     93  CA         8.4410   -3.4070   -3.5260 C.3    86  ARG86       0.1563
     94  C          8.1750   -4.8970   -3.3460 C.2    86  ARG86       0.2260
     95  O          8.1090   -5.6480   -4.3190 O.2    86  ARG86      -0.2867
     96  CB         9.9460   -3.1730   -3.6950 C.3    86  ARG86       0.0307
     97  CG        10.3300   -1.7600   -4.0980 C.3    86  ARG86       0.0489
     98  CD        11.7770   -1.6920   -4.5720 C.3    86  ARG86       0.2205
     99  NE        12.7230   -2.1540   -3.5590 N.pl3  86  ARG86      -0.0865
    100  CZ        13.3480   -1.3560   -2.6990 C.cat  86  ARG86       0.5346
    101  NH1       13.1260   -0.0490   -2.7220 N.pl3  86  ARG86       0.1354
    102  NH2       14.1940   -1.8630   -1.8130 N.pl3  86  ARG86       0.1354
    103  N         14.7280   -6.3190   -2.2740 N.3    96  PHE96      -0.1241
    104  CA        15.6670   -5.2140   -2.1150 C.3    96  PHE96       0.1605
    105  C         15.9890   -4.6290   -3.4800 C.2    96  PHE96       0.2264
    106  O         16.1020   -3.4150   -3.6470 O.2    96  PHE96      -0.2867
    107  CB        16.9490   -5.6780   -1.4200 C.3    96  PHE96       0.0534
    108  CG        16.7710   -5.9960    0.0360 C.ar   96  PHE96      -0.0203
    109  CD1       17.0280   -5.0380    1.0030 C.ar   96  PHE96      -0.0042
    110  CD2       16.3510   -7.2530    0.4380 C.ar   96  PHE96      -0.0042
    111  CE1       16.8690   -5.3270    2.3440 C.ar   96  PHE96      -0.0003
    112  CE2       16.1890   -7.5490    1.7790 C.ar   96  PHE96      -0.0003
    113  CZ        16.4490   -6.5840    2.7330 C.ar   96  PHE96      -0.0000
    114  N         23.4410  -12.5800    9.0510 N.3   110  VAL110     -0.1231
    115  CA        23.6660  -11.3680    9.8290 C.3   110  VAL110      0.1692
    116  C         22.8280  -11.3530   11.1040 C.2   110  VAL110      0.2591
    117  O         21.6220  -11.5940   11.0650 O.2   110  VAL110     -0.2718
    118  CB        23.3370  -10.1130    9.0020 C.3   110  VAL110      0.0266
    119  CG1       23.7230   -8.8550    9.7630 C.3   110  VAL110      0.0020
    120  CG2       24.0390  -10.1690    7.6550 C.3   110  VAL110      0.0020
    121  N         23.4710  -11.0620   12.2310 N.am  111  GLU111     -0.1979
    122  CA        22.7850  -11.0220   13.5190 C.3   111  GLU111      0.1602
    123  C         21.7290   -9.9200   13.5660 C.2   111  GLU111      0.2287
    124  O         21.9840   -8.7820   13.1690 O.2   111  GLU111     -0.2864
    125  CB        23.7920  -10.8270   14.6540 C.3   111  GLU111      0.0415
    126  CG        24.6710   -9.6420   14.7810 C.3   111  GLU111      0.1163
    127  CD        25.7490   -9.3130   13.8160 C.2   111  GLU111      0.3649
    128  OE1       25.9980  -10.1640   12.9420 O.co2 111  GLU111     -0.2457
    129  OE2       26.3910   -8.2700   13.9050 O.co2 111  GLU111     -0.2457
    130  N         19.1620   -9.6300   11.8120 N.3   113  MET113     -0.1245
    131  CA        18.5290   -9.4290   10.5150 C.3   113  MET113      0.1570
    132  C         17.2520  -10.2530   10.3700 C.2   113  MET113      0.2261
    133  O         16.2990   -9.8220    9.7220 O.2   113  MET113     -0.2867
    134  CB        19.5090   -9.7680    9.3910 C.3   113  MET113      0.0387
    135  CG        18.9620   -9.5280    7.9980 C.3   113  MET113      0.0595
    136  SD        20.2660   -9.3680    6.7680 S.3   113  MET113     -0.1393
    137  CE        21.0310   -7.8370    7.2920 C.3   113  MET113      0.0692
    138  N         14.2710   -8.4370   12.0670 N.3   116  ILE116     -0.1231
    139  CA        13.8450   -7.3080   11.2500 C.3   116  ILE116      0.1692
    140  C         13.1780   -7.7910    9.9660 C.2   116  ILE116      0.2592
    141  O         12.2120   -7.1910    9.4950 O.2   116  ILE116     -0.2718
    142  CB        15.0330   -6.3890   10.9100 C.3   116  ILE116      0.0266
    143  CG1       15.7080   -5.9120   12.1980 C.3   116  ILE116      0.0019
    144  CG2       14.5790   -5.1990   10.0770 C.3   116  ILE116      0.0020
    145  CD1       16.9560   -5.1060   11.9670 C.3   116  ILE116      0.0001
    146  N         13.6940   -8.8870    9.4140 N.am  117  PHE117     -0.1976
    147  CA        13.1250   -9.4980    8.2170 C.3   117  PHE117      0.1639
    148  C         11.6590   -9.8660    8.4160 C.2   117  PHE117      0.2290
    149  O         10.8130   -9.5510    7.5800 O.2   117  PHE117     -0.2864
    150  CB        13.9230  -10.7420    7.8210 C.3   117  PHE117      0.0560
    151  CG        14.8310  -10.5320    6.6430 C.ar  117  PHE117     -0.0200
    152  CD1       15.6810   -9.4400    6.5910 C.ar  117  PHE117     -0.0042
    153  CD2       14.8410  -11.4350    5.5930 C.ar  117  PHE117     -0.0042
    154  CE1       16.5190   -9.2480    5.5070 C.ar  117  PHE117     -0.0003
    155  CE2       15.6770  -11.2500    4.5080 C.ar  117  PHE117     -0.0003
    156  CZ        16.5170  -10.1540    4.4650 C.ar  117  PHE117     -0.0000
    157  N          9.5510   -6.8660    8.5880 N.3   120  LEU120     -0.1245
    158  CA         9.4060   -6.3230    7.2420 C.3   120  LEU120      0.1561
    159  C          8.3950   -7.1370    6.4410 C.2   120  LEU120      0.2260
    160  O          7.5690   -6.5790    5.7190 O.2   120  LEU120     -0.2867
    161  CB        10.7560   -6.2950    6.5220 C.3   120  LEU120      0.0270
    162  CG        11.7710   -5.2530    7.0010 C.3   120  LEU120      0.0019
    163  CD1       13.1340   -5.5000    6.3750 C.3   120  LEU120      0.0001
    164  CD2       11.2850   -3.8460    6.6920 C.3   120  LEU120      0.0001
    165  N         16.8310   -1.5810   13.3920 N.3   202  GLY202     -0.1225
    166  CA        17.8090   -1.6630   12.3230 C.3   202  GLY202      0.1811
    167  C         18.9790   -0.7270   12.5460 C.2   202  GLY202      0.2280
    168  O         20.1100   -1.0320   12.1700 O.2   202  GLY202     -0.2866
    169  N         21.5010   -2.0900   15.1820 N.3   205  HIS205     -0.1226
    170  CA        22.2400   -3.2250   14.6400 C.3   205  HIS205      0.1752
    171  C         23.3420   -2.7510   13.6990 C.2   205  HIS205      0.2595
    172  O         24.4440   -3.3000   13.6940 O.2   205  HIS205     -0.2718
    173  CB        21.2980   -4.1880   13.9140 C.3   205  HIS205      0.0759
    174  CG        20.5150   -5.0740   14.8300 C.ar  205  HIS205      0.0818
    175  ND1       20.9840   -5.4640   16.0690 N.ar  205  HIS205     -0.2268
    176  CD2       19.2960   -5.6470   14.6950 C.ar  205  HIS205      0.1154
    177  CE1       20.0880   -6.2390   16.6520 C.ar  205  HIS205      0.1986
    178  NE2       19.0530   -6.3660   15.8400 N.ar  205  HIS205     -0.2212
    179  N         23.0370   -1.7280   12.9060 N.am  206  LEU206     -0.1980
    180  CA        24.0230   -1.1260   12.0160 C.3   206  LEU206      0.1596
    181  C         25.1530   -0.4890   12.8150 C.2   206  LEU206      0.2287
    182  O         26.3230   -0.6010   12.4510 O.2   206  LEU206     -0.2864
    183  CB        23.3670   -0.0820   11.1090 C.3   206  LEU206      0.0297
    184  CG        22.4760   -0.6140    9.9860 C.3   206  LEU206      0.0022
    185  CD1       21.7690    0.5300    9.2750 C.3   206  LEU206      0.0001
    186  CD2       23.2950   -1.4330    9.0020 C.3   206  LEU206      0.0001
    187  N         27.5140   -3.2470   14.2960 N.3   209  MET209     -0.1245
    188  CA        28.4980   -3.7960   13.3730 C.3   209  MET209      0.1570
    189  C         29.3160   -2.6890   12.7150 C.2   209  MET209      0.2261
    190  O         30.0980   -2.9410   11.7980 O.2   209  MET209     -0.2867
    191  CB        27.8090   -4.6590   12.3140 C.3   209  MET209      0.0387
    192  CG        26.7840   -3.9240   11.4700 C.3   209  MET209      0.0595
    193  SD        25.4990   -5.0350   10.8670 S.3   209  MET209     -0.1393
    194  CE        26.4800   -6.4640   10.4180 C.3   209  MET209      0.0692
    195  N         30.8710    0.6000    6.2610 N.3   216  LEU216     -0.1245
    196  CA        29.7810    1.4570    5.8100 C.3   216  LEU216      0.1561
    197  C         30.3120    2.6360    5.0010 C.2   216  LEU216      0.2260
    198  O         31.4320    3.0940    5.2210 O.2   216  LEU216     -0.2867
    199  CB        28.9700    1.9630    7.0040 C.3   216  LEU216      0.0270
    200  CG        28.4280    0.8960    7.9570 C.3   216  LEU216      0.0019
    201  CD1       27.7430    1.5400    9.1520 C.3   216  LEU216      0.0001
    202  CD2       27.4760   -0.0410    7.2300 C.3   216  LEU216      0.0001
    203  N         26.4270    6.9290    4.6580 N.3   220  LEU220     -0.1245
    204  CA        25.7200    6.1010    5.6310 C.3   220  LEU220      0.1561
    205  C         26.2260    6.3400    7.0490 C.2   220  LEU220      0.2260
    206  O         25.4400    6.3800    7.9950 O.2   220  LEU220     -0.2867
    207  CB        25.8550    4.6200    5.2730 C.3   220  LEU220      0.0270
    208  CG        24.8200    4.0550    4.3010 C.3   220  LEU220      0.0019
    209  CD1       25.2370    2.6800    3.8200 C.3   220  LEU220      0.0001
    210  CD2       23.4570    3.9890    4.9680 C.3   220  LEU220      0.0001
@<TRIPOS>BOND
     1    98    97    1
     2    98    99    1
     3    95    94    2
     4    30    29    1
     5    97    96    1
     6    96    93    1
     7   106   105    2
     8    99   100    2
     9    93    94    1
    10    93    92    1
    11   105   104    1
    12    37    38    1
    13    42    43    1
    14    42    41    1
    15   101   100    1
    16    38    39    1
    17    38    41    1
    18   100   102    1
    19    29    31    1
    20    29    28    1
    21    25    28    1
    22    25    24    1
    23    25    26    1
    24    45    43   ar
    25   103   104    1
    26    40    39    2
    27    27    26    2
    28   104   107    1
    29    43    44   ar
    30    26    32   am
    31   107   108    1
    32    32    33    1
    33    87    86    2
    34   108   110   ar
    35   108   109   ar
    36    35    34    2
    37    34    33    1
    38   110   112   ar
    39    85    84    1
    40    85    86    1
    41    85    88    1
    42    90    89    1
    43    33    36    1
    44     9    10    1
    45    20    19    2
    46   109   111   ar
    47    19    18    1
    48    75    73    1
    49    12    11    2
    50    10    11    1
    51    10    13    1
    52    16    14    1
    53    88    89    1
    54    11    17   am
    55    89    91    1
    56   112   113   ar
    57    17    18    1
    58    71    70    2
    59    18    21    1
    60   111   113   ar
    61    14    13    1
    62    14    15    1
    63    73    74    1
    64    73    72    1
    65    69    70    1
    66    69    72    1
    67    69    68    1
    68    21    23    1
    69    21    22    1
    70    70    76   am
    71     4     3    2
    72     3     2    1
    73    79    78    2
    74   209   208    1
    75     1     2    1
    76    78    77    1
    77   208   210    1
    78   208   207    1
    79    76    77    1
    80     2     5    1
    81   156   155   ar
    82   156   154   ar
    83   155   153   ar
    84   203   204    1
    85    77    80    1
    86   197   198    2
    87   197   196    1
    88    49    48    2
    89   207   204    1
    90   154   152   ar
    91   153   151   ar
    92   204   205    1
    93   160   159    2
    94     5     6    1
    95   196   195    1
    96   196   199    1
    97    56    58   ar
    98    56    53   ar
    99    50    47    1
   100    50    51    1
   101    48    47    1
   102    48    60   am
   103    47    46    1
   104    58    59   ar
   105    80    81    1
   106   163   162    1
   107   159   158    1
   108   161   162    1
   109   161   158    1
   110   152   151   ar
   111    63    62    2
   112   151   150    1
   113   164   162    1
   114   136   137    1
   115   136   135    1
   116    81    82    1
   117    53    51   ar
   118    53    55   ar
   119     6     7    1
   120   199   200    1
   121   205   206    2
   122    51    52   ar
   123     7     8    1
   124    62    61    1
   125    60    61    1
   126   202   200    1
   127   158   157    1
   128    61    64    1
   129    66    65    1
   130    59    57   ar
   131   149   148    2
   132   120   118    1
   133   150   147    1
   134   200   201    1
   135   135   134    1
   136    55    57   ar
   137    55    54   ar
   138   147   148    1
   139   147   146    1
   140    52    54   ar
   141    64    65    1
   142    65    67    1
   143    82    83    1
   144   186   184    1
   145   118   119    1
   146   118   115    1
   147   114   115    1
   148   185   184    1
   149   134   131    1
   150   146   140   am
   151   141   140    2
   152   133   132    2
   153   115   116    1
   154   140   139    1
   155   184   183    1
   156   144   142    1
   157   132   131    1
   158   194   193    1
   159   131   130    1
   160   193   192    1
   161   142   139    1
   162   142   143    1
   163   117   116    2
   164   116   121   am
   165   183   180    1
   166   139   138    1
   167   192   191    1
   168   190   189    2
   169   145   143    1
   170   180   181    1
   171   180   179    1
   172   168   167    2
   173   121   122    1
   174   191   188    1
   175   166   167    1
   176   166   165    1
   177   182   181    2
   178   189   188    1
   179   179   171   am
   180   128   127   ar
   181   124   123    2
   182   188   187    1
   183   122   123    1
   184   122   125    1
   185   172   171    2
   186   171   170    1
   187   127   129   ar
   188   127   126    1
   189   173   170    1
   190   173   174    1
   191   170   169    1
   192   125   126    1
   193   176   174   ar
   194   176   178   ar
   195   174   175   ar
   196   178   177   ar
   197   175   177   ar
