@<TRIPOS>MOLECULE
tmp/5krlA01.pdb
 170 161 0 0 0
SMALL
GASTEIGER

@<TRIPOS>ATOM
      1  N        -13.6210   -8.3130   21.6990 N.3    39  MET39      -0.1245
      2  CA       -13.2120   -6.9810   21.2720 C.3    39  MET39       0.1570
      3  C        -13.5130   -5.9480   22.3520 C.2    39  MET39       0.2261
      4  O        -12.8000   -4.9550   22.4900 O.2    39  MET39      -0.2867
      5  CB       -13.9050   -6.5960   19.9660 C.3    39  MET39       0.0387
      6  CG       -13.3240   -7.2790   18.7420 C.3    39  MET39       0.0595
      7  SD       -11.5940   -6.8410   18.4930 S.3    39  MET39      -0.1393
      8  CE       -11.7210   -5.0560   18.3910 C.3    39  MET39       0.0692
      9  N        -10.6450   -6.1990   25.0490 N.3    42  LEU42      -0.1231
     10  CA        -9.3780   -5.6860   24.5390 C.3    42  LEU42       0.1693
     11  C         -9.3780   -4.1640   24.3920 C.2    42  LEU42       0.2592
     12  O         -8.3910   -3.5100   24.7240 O.2    42  LEU42      -0.2718
     13  CB        -9.0420   -6.3400   23.1970 C.3    42  LEU42       0.0284
     14  CG        -8.8860   -7.8630   23.2070 C.3    42  LEU42       0.0019
     15  CD1       -8.5410   -8.3810   21.8180 C.3    42  LEU42       0.0001
     16  CD2       -7.8370   -8.2950   24.2190 C.3    42  LEU42       0.0001
     17  N        -10.4790   -3.6010   23.9010 N.am   43  THR43      -0.1953
     18  CA       -10.5490   -2.1560   23.6930 C.3    43  THR43       0.1897
     19  C        -10.7950   -1.4140   25.0050 C.2    43  THR43       0.2313
     20  O        -10.3540   -0.2770   25.1710 O.2    43  THR43      -0.2863
     21  CB       -11.6440   -1.7720   22.6740 C.3    43  THR43       0.1794
     22  OG1      -12.9130   -2.2760   23.1050 O.3    43  THR43      -0.2208
     23  CG2      -11.3130   -2.3370   21.2990 C.3    43  THR43       0.0378
     24  N         -9.5380   -2.4470   27.8490 N.3    45  LEU45      -0.1231
     25  CA        -8.1980   -2.4800   28.4190 C.3    45  LEU45       0.1693
     26  C         -7.3100   -1.4130   27.7890 C.2    45  LEU45       0.2591
     27  O         -6.6350   -0.6600   28.4930 O.2    45  LEU45      -0.2718
     28  CB        -7.5660   -3.8610   28.2290 C.3    45  LEU45       0.0284
     29  CG        -6.1340   -4.0180   28.7430 C.3    45  LEU45       0.0019
     30  CD1       -6.0930   -3.9090   30.2600 C.3    45  LEU45       0.0001
     31  CD2       -5.5260   -5.3340   28.2770 C.3    45  LEU45       0.0001
     32  N         -7.3190   -1.3590   26.4600 N.am   46  ALA46      -0.1980
     33  CA        -6.5220   -0.3930   25.7140 C.3    46  ALA46       0.1597
     34  C         -6.8590    1.0380   26.1120 C.2    46  ALA46       0.2287
     35  O         -5.9700    1.8790   26.2510 O.2    46  ALA46      -0.2864
     36  CB        -6.7260   -0.5840   24.2170 C.3    46  ALA46       0.0319
     37  N         -5.3680    1.7660   29.4890 N.3    49  GLU49      -0.1245
     38  CA        -3.9150    1.8240   29.3510 C.3    49  GLU49       0.1567
     39  C         -3.4640    3.1580   28.7620 C.2    49  GLU49       0.2260
     40  O         -2.4050    3.6750   29.1180 O.2    49  GLU49      -0.2867
     41  CB        -3.4020    0.6770   28.4760 C.3    49  GLU49       0.0388
     42  CG        -3.4140   -0.6880   29.1420 C.3    49  GLU49       0.1160
     43  CD        -2.7440   -1.7530   28.2920 C.2    49  GLU49       0.3649
     44  OE1       -3.4420   -2.4020   27.4850 O.co2  49  GLU49      -0.2457
     45  OE2       -1.5160   -1.9400   28.4280 O.co2  49  GLU49      -0.2457
     46  N          0.5180    5.3620   19.5550 N.3    79  TRP79      -0.1227
     47  CA        -0.1740    4.7650   20.6990 C.3    79  TRP79       0.1737
     48  C         -0.3420    3.2490   20.5850 C.2    79  TRP79       0.2595
     49  O         -0.1200    2.5250   21.5560 O.2    79  TRP79      -0.2718
     50  CB        -1.5430    5.4260   20.9130 C.3    79  TRP79       0.0564
     51  CG        -2.5870    5.0970   19.8830 C.ar   79  TRP79       0.0003
     52  CD1       -2.8250    5.7600   18.7160 C.ar   79  TRP79       0.0946
     53  CD2       -3.5460    4.0330   19.9430 C.ar   79  TRP79       0.0152
     54  NE1       -3.8680    5.1720   18.0400 N.ar   79  TRP79      -0.2442
     55  CE2       -4.3260    4.1080   18.7720 C.ar   79  TRP79       0.0810
     56  CE3       -3.8160    3.0200   20.8680 C.ar   79  TRP79       0.0012
     57  CZ2       -5.3590    3.2100   18.5020 C.ar   79  TRP79       0.0191
     58  CZ3       -4.8410    2.1290   20.5990 C.ar   79  TRP79       0.0001
     59  CH2       -5.6000    2.2310   19.4260 C.ar   79  TRP79       0.0015
     60  N         -0.7140    2.7660   19.4040 N.am   80  LEU80      -0.1980
     61  CA        -0.9430    1.3390   19.2280 C.3    80  LEU80       0.1596
     62  C          0.3820    0.5810   19.1790 C.2    80  LEU80       0.2287
     63  O          0.4670   -0.5540   19.6460 O.2    80  LEU80      -0.2864
     64  CB        -1.7670    1.0720   17.9670 C.3    80  LEU80       0.0297
     65  CG        -2.1820   -0.3850   17.7270 C.3    80  LEU80       0.0022
     66  CD1       -2.7680   -1.0050   18.9890 C.3    80  LEU80       0.0001
     67  CD2       -3.1770   -0.4720   16.5780 C.3    80  LEU80       0.0001
     68  N          1.3250    0.2460   22.8370 N.3    83  LEU83      -0.1231
     69  CA         0.5210   -0.7930   23.4720 C.3    83  LEU83       0.1693
     70  C          1.0140   -2.1820   23.0840 C.2    83  LEU83       0.2591
     71  O          1.0500   -3.0920   23.9110 O.2    83  LEU83      -0.2718
     72  CB        -0.9560   -0.6430   23.1010 C.3    83  LEU83       0.0284
     73  CG        -1.7180    0.4940   23.7810 C.3    83  LEU83       0.0019
     74  CD1       -3.1900    0.4500   23.4050 C.3    83  LEU83       0.0001
     75  CD2       -1.5440    0.4270   25.2910 C.3    83  LEU83       0.0001
     76  N          1.4060   -2.3340   21.8230 N.am   84  MET84      -0.1979
     77  CA         1.8250   -3.6290   21.3020 C.3    84  MET84       0.1605
     78  C          3.2020   -4.0680   21.8000 C.2    84  MET84       0.2287
     79  O          3.4040   -5.2430   22.1050 O.2    84  MET84      -0.2864
     80  CB         1.8080   -3.6080   19.7720 C.3    84  MET84       0.0413
     81  CG         0.4090   -3.7020   19.1800 C.3    84  MET84       0.0598
     82  SD         0.3890   -3.6940   17.3790 S.3    84  MET84      -0.1393
     83  CE        -1.3230   -4.1100   17.0620 C.3    84  MET84       0.0692
     84  N          2.7740   -5.2070   25.2910 N.3    87  LEU87      -0.1245
     85  CA         2.1240   -6.5130   25.2870 C.3    87  LEU87       0.1561
     86  C          3.1160   -7.6170   24.9530 C.2    87  LEU87       0.2260
     87  O          3.1850   -8.6400   25.6340 O.2    87  LEU87      -0.2867
     88  CB         0.9720   -6.5310   24.2800 C.3    87  LEU87       0.0270
     89  CG         0.3320   -7.8920   24.0000 C.3    87  LEU87       0.0019
     90  CD1       -0.3420   -8.4310   25.2480 C.3    87  LEU87       0.0001
     91  CD2       -0.6580   -7.7990   22.8470 C.3    87  LEU87       0.0001
     92  N          5.5700   -8.2200   27.9010 N.3    90  ARG90      -0.1245
     93  CA         5.0810   -8.9480   29.0660 C.3    90  ARG90       0.1563
     94  C          4.5940  -10.3460   28.6900 C.2    90  ARG90       0.2260
     95  O          4.1660  -11.1170   29.5500 O.2    90  ARG90      -0.2867
     96  CB         3.9690   -8.1610   29.7650 C.3    90  ARG90       0.0307
     97  CG         2.6200   -8.2030   29.0760 C.3    90  ARG90       0.0489
     98  CD         1.6150   -7.3310   29.8160 C.3    90  ARG90       0.2205
     99  NE         1.6920   -5.9370   29.3960 N.pl3  90  ARG90      -0.0865
    100  CZ         0.7960   -5.3420   28.6160 C.cat  90  ARG90       0.5346
    101  NH1       -0.2580   -6.0140   28.1770 N.pl3  90  ARG90       0.1354
    102  NH2        0.9510   -4.0700   28.2820 N.pl3  90  ARG90       0.1354
    103  N         -2.3540  -10.1140   27.7690 N.3   100  PHE100     -0.1241
    104  CA        -2.9910   -8.8030   27.6980 C.3   100  PHE100      0.1605
    105  C         -3.1160   -8.2190   29.0960 C.2   100  PHE100      0.2264
    106  O         -2.8920   -7.0290   29.3120 O.2   100  PHE100     -0.2867
    107  CB        -4.3620   -8.8980   27.0250 C.3   100  PHE100      0.0534
    108  CG        -4.2900   -9.1600   25.5480 C.ar  100  PHE100     -0.0203
    109  CD1       -4.1960   -8.1100   24.6510 C.ar  100  PHE100     -0.0042
    110  CD2       -4.3040  -10.4570   25.0560 C.ar  100  PHE100     -0.0042
    111  CE1       -4.1240   -8.3440   23.2890 C.ar  100  PHE100     -0.0003
    112  CE2       -4.2310  -10.7000   23.6950 C.ar  100  PHE100     -0.0003
    113  CZ        -4.1410   -9.6410   22.8100 C.ar  100  PHE100     -0.0000
    114  N         -8.4270  -11.3570   13.4800 N.3   117  MET117     -0.1245
    115  CA        -7.5440  -10.9460   14.5660 C.3   117  MET117      0.1570
    116  C         -6.4180  -11.9540   14.7960 C.2   117  MET117      0.2261
    117  O         -5.3870  -11.6200   15.3800 O.2   117  MET117     -0.2867
    118  CB        -8.3400  -10.7420   15.8590 C.3   117  MET117      0.0387
    119  CG        -7.5790   -9.9790   16.9390 C.3   117  MET117      0.0595
    120  SD        -8.5470   -9.6820   18.4300 S.3   117  MET117     -0.1393
    121  CE        -8.7810  -11.3550   19.0270 C.3   117  MET117      0.0692
    122  N         -3.0790  -10.9720   13.3730 N.3   120  ILE120     -0.1231
    123  CA        -2.3930   -9.9900   14.1940 C.3   120  ILE120      0.1692
    124  C         -1.7710  -10.6700   15.4120 C.2   120  ILE120      0.2592
    125  O         -0.6500  -10.3460   15.8020 O.2   120  ILE120     -0.2718
    126  CB        -3.3520   -8.8670   14.6340 C.3   120  ILE120      0.0266
    127  CG1       -3.9640   -8.1960   13.4010 C.3   120  ILE120      0.0019
    128  CG2       -2.6290   -7.8450   15.5010 C.3   120  ILE120      0.0020
    129  CD1       -4.9860   -7.1340   13.7220 C.3   120  ILE120      0.0001
    130  N         -2.4950  -11.6250   15.9940 N.am  121  PHE121     -0.1976
    131  CA        -1.9750  -12.4070   17.1140 C.3   121  PHE121      0.1639
    132  C         -0.7020  -13.1600   16.7380 C.2   121  PHE121      0.2290
    133  O          0.2580  -13.1850   17.5070 O.2   121  PHE121     -0.2864
    134  CB        -3.0220  -13.4010   17.6220 C.3   121  PHE121      0.0560
    135  CG        -3.9320  -12.8420   18.6760 C.ar  121  PHE121     -0.0200
    136  CD1       -4.1840  -11.4810   18.7470 C.ar  121  PHE121     -0.0042
    137  CD2       -4.5250  -13.6780   19.6080 C.ar  121  PHE121     -0.0042
    138  CE1       -5.0220  -10.9660   19.7200 C.ar  121  PHE121     -0.0003
    139  CE2       -5.3610  -13.1700   20.5850 C.ar  121  PHE121     -0.0003
    140  CZ        -5.6110  -11.8120   20.6400 C.ar  121  PHE121     -0.0000
    141  N          2.1750  -10.7630   16.6200 N.3   124  LEU124     -0.1245
    142  CA         2.5180  -10.3850   17.9880 C.3   124  LEU124      0.1561
    143  C          3.2790  -11.5030   18.6880 C.2   124  LEU124      0.2260
    144  O          4.2660  -11.2540   19.3800 O.2   124  LEU124     -0.2867
    145  CB         1.2570  -10.0290   18.7790 C.3   124  LEU124      0.0270
    146  CG         0.5580   -8.7250   18.3850 C.3   124  LEU124      0.0019
    147  CD1       -0.8430   -8.6570   18.9780 C.3   124  LEU124      0.0001
    148  CD2        1.3880   -7.5210   18.8200 C.3   124  LEU124      0.0001
    149  N         -3.2540   -3.4570   12.7450 N.3   209  GLY209     -0.1225
    150  CA        -4.1410   -3.4060   13.8910 C.3   209  GLY209      0.1811
    151  C         -5.0970   -2.2330   13.8070 C.2   209  GLY209      0.2280
    152  O         -6.2420   -2.3170   14.2550 O.2   209  GLY209     -0.2866
    153  N         -7.7940   -3.1690   11.3160 N.3   212  HIS212     -0.1226
    154  CA        -8.6990   -4.1450   11.9120 C.3   212  HIS212      0.1752
    155  C         -9.6480   -3.4820   12.9030 C.2   212  HIS212      0.2595
    156  O        -10.8470   -3.7630   12.9110 O.2   212  HIS212     -0.2718
    157  CB        -7.9120   -5.2570   12.6030 C.3   212  HIS212      0.0759
    158  CG        -8.7760   -6.2840   13.2650 C.ar  212  HIS212      0.0818
    159  ND1       -9.0660   -6.2570   14.6120 N.ar  212  HIS212     -0.2268
    160  CD2       -9.4210   -7.3640   12.7630 C.ar  212  HIS212      0.1154
    161  CE1       -9.8500   -7.2770   14.9120 C.ar  212  HIS212      0.1986
    162  NE2      -10.0800   -7.9640   13.8080 N.ar  212  HIS212     -0.2212
    163  N         -9.1030   -2.6020   13.7360 N.am  213  LEU213     -0.1980
    164  CA        -9.9000   -1.8770   14.7170 C.3   213  LEU213      0.1596
    165  C        -10.9240   -0.9780   14.0280 C.2   213  LEU213      0.2287
    166  O        -12.0760   -0.8830   14.4560 O.2   213  LEU213     -0.2864
    167  CB        -8.9970   -1.0490   15.6300 C.3   213  LEU213      0.0297
    168  CG        -9.6710   -0.3650   16.8180 C.3   213  LEU213      0.0022
    169  CD1      -10.3170   -1.3990   17.7260 C.3   213  LEU213      0.0001
    170  CD2       -8.6630    0.4790   17.5860 C.3   213  LEU213      0.0001
@<TRIPOS>BOND
     1   153   154    1
     2   154   157    1
     3   154   155    1
     4   157   158    1
     5   149   150    1
     6   160   158   ar
     7   160   162   ar
     8   155   156    2
     9   155   163   am
    10   158   159   ar
    11   122   123    1
    12   127   129    1
    13   127   126    1
    14   114   115    1
    15   163   164    1
    16   151   150    1
    17   151   152    2
    18   162   161   ar
    19   165   166    2
    20   165   164    1
    21   123   126    1
    22   123   124    1
    23   115   116    1
    24   115   118    1
    25   159   161   ar
    26   126   128    1
    27   164   167    1
    28   116   117    2
    29   124   125    2
    30   124   130   am
    31   167   168    1
    32   118   119    1
    33   130   131    1
    34    67    65    1
    35   141   142    1
    36   132   131    1
    37   132   133    2
    38   168   170    1
    39   168   169    1
    40   119   120    1
    41    83    82    1
    42   131   134    1
    43    82    81    1
    44   134   135    1
    45    65    64    1
    46    65    66    1
    47    64    61    1
    48   142   143    1
    49   142   145    1
    50    54    52   ar
    51    54    55   ar
    52   146   145    1
    53   146   148    1
    54   146   147    1
    55     8     7    1
    56   120   121    1
    57     7     6    1
    58    57    55   ar
    59    57    59   ar
    60   135   136   ar
    61   135   137   ar
    62   143   144    2
    63    52    51   ar
    64     6     5    1
    65   136   138   ar
    66    55    53   ar
    67    62    61    1
    68    62    63    2
    69    81    80    1
    70    61    60    1
    71    60    48   am
    72    59    58   ar
    73    46    47    1
    74   137   139   ar
    75   138   140   ar
    76    80    77    1
    77    51    53   ar
    78    51    50    1
    79    53    56   ar
    80     5     2    1
    81   139   140   ar
    82    48    47    1
    83    48    49    2
    84    58    56   ar
    85    47    50    1
    86     2     1    1
    87     2     3    1
    88    23    21    1
    89    77    78    1
    90    77    76    1
    91    78    79    2
    92    15    14    1
    93    76    70   am
    94     3     4    2
    95    21    22    1
    96    21    18    1
    97   113   111   ar
    98   113   112   ar
    99    68    69    1
   100    91    89    1
   101    70    69    1
   102    70    71    2
   103    72    69    1
   104    72    73    1
   105    13    14    1
   106    13    10    1
   107    14    16    1
   108   111   109   ar
   109    74    73    1
   110    18    17    1
   111    18    19    1
   112   112   110   ar
   113    73    75    1
   114    17    11   am
   115    89    88    1
   116    89    90    1
   117    36    33    1
   118    88    85    1
   119    11    10    1
   120    11    12    2
   121    10     9    1
   122   109   108   ar
   123    86    85    1
   124    86    87    2
   125    19    20    2
   126   110   108   ar
   127    85    84    1
   128   108   107    1
   129    33    34    1
   130    33    32    1
   131    34    35    2
   132    32    26   am
   133   107   104    1
   134    44    43   ar
   135   104   103    1
   136   104   105    1
   137    26    25    1
   138    26    27    2
   139    24    25    1
   140    92    93    1
   141   101   100    1
   142    28    25    1
   143    28    29    1
   144    31    29    1
   145   102   100    1
   146    43    45   ar
   147    43    42    1
   148    41    42    1
   149    41    38    1
   150   100    99    2
   151    94    93    1
   152    94    95    2
   153    29    30    1
   154    39    40    2
   155    39    38    1
   156    93    96    1
   157    97    96    1
   158    97    98    1
   159   105   106    2
   160    38    37    1
   161    99    98    1
