@<TRIPOS>MOLECULE
tmp/5krqB01.pdb
 152 143 0 0 0
SMALL
GASTEIGER

@<TRIPOS>ATOM
      1  N        -16.9680    9.4320  -43.6190 N.3    51  TYR51      -0.1227
      2  CA       -18.2930    9.1120  -44.1090 C.3    51  TYR51       0.1736
      3  C        -18.7290    7.9830  -43.2040 C.2    51  TYR51       0.2595
      4  O        -17.9430    7.5070  -42.3850 O.2    51  TYR51      -0.2718
      5  CB       -18.2700    8.7170  -45.6000 C.3    51  TYR51       0.0548
      6  CG       -17.4850    7.4740  -45.8620 C.ar   51  TYR51      -0.0200
      7  CD1      -18.0840    6.2220  -45.7480 C.ar   51  TYR51      -0.0009
      8  CD2      -16.1440    7.5360  -46.1990 C.ar   51  TYR51      -0.0009
      9  CE1      -17.3720    5.0760  -45.9750 C.ar   51  TYR51       0.0417
     10  CE2      -15.4210    6.3880  -46.4430 C.ar   51  TYR51       0.0417
     11  CZ       -16.0300    5.1640  -46.3230 C.ar   51  TYR51       0.1957
     12  OH       -15.3110    4.0080  -46.5550 O.3    51  TYR51      -0.2866
     13  N        -19.9840    7.5840  -43.3050 N.am   52  PHE52      -0.1962
     14  CA       -20.3670    6.3800  -42.5970 C.3    52  PHE52       0.1771
     15  C        -21.4330    5.6540  -43.3890 C.2    52  PHE52       0.2620
     16  O        -22.1520    6.2400  -44.2070 O.2    52  PHE52      -0.2715
     17  CB       -20.8410    6.6650  -41.1580 C.3    52  PHE52       0.0574
     18  CG       -21.9350    7.6790  -41.0620 C.ar   52  PHE52      -0.0200
     19  CD1      -21.6450    9.0260  -40.9910 C.ar   52  PHE52      -0.0042
     20  CD2      -23.2530    7.2860  -41.0550 C.ar   52  PHE52      -0.0042
     21  CE1      -22.6640    9.9770  -40.9090 C.ar   52  PHE52      -0.0003
     22  CE2      -24.2920    8.2250  -40.9640 C.ar   52  PHE52      -0.0003
     23  CZ       -23.9940    9.5740  -40.8970 C.ar   52  PHE52      -0.0000
     24  N        -21.4840    4.3550  -43.1670 N.am   53  THR53      -0.1951
     25  CA       -22.4990    3.5020  -43.7510 C.3    53  THR53       0.1897
     26  C        -23.5140    3.1610  -42.6710 C.2    53  THR53       0.2313
     27  O        -23.2020    3.1780  -41.4820 O.2    53  THR53      -0.2863
     28  CB       -21.8700    2.2310  -44.3200 C.3    53  THR53       0.1794
     29  OG1      -21.2020    1.5410  -43.2710 O.3    53  THR53      -0.2208
     30  CG2      -20.8290    2.5610  -45.3980 C.3    53  THR53       0.0378
     31  N        -25.8760   -0.0140  -41.8310 N.3    55  ARG55      -0.1245
     32  CA       -26.2110   -1.3950  -42.1220 C.3    55  ARG55       0.1563
     33  C        -27.2810   -1.9400  -41.1900 C.2    55  ARG55       0.2260
     34  O        -28.0760   -2.7900  -41.6050 O.2    55  ARG55      -0.2867
     35  CB       -24.9380   -2.2510  -42.0640 C.3    55  ARG55       0.0307
     36  CG       -23.8630   -1.7120  -43.0440 C.3    55  ARG55       0.0489
     37  CD       -22.6220   -2.5900  -43.1620 C.3    55  ARG55       0.2205
     38  NE       -21.7740   -2.1910  -44.2940 N.pl3  55  ARG55      -0.0865
     39  CZ       -20.5020   -1.8000  -44.2090 C.cat  55  ARG55       0.5346
     40  NH1      -19.8680   -1.7560  -43.0360 N.pl3  55  ARG55       0.1354
     41  NH2      -19.8490   -1.4640  -45.3160 N.pl3  55  ARG55       0.1354
     42  N        -15.1200    7.3420  -56.7460 N.3    79  LEU79      -0.1245
     43  CA       -14.2030    6.5740  -55.9170 C.3    79  LEU79       0.1561
     44  C        -13.2210    5.8200  -56.7930 C.2    79  LEU79       0.2260
     45  O        -13.5620    5.3370  -57.8760 O.2    79  LEU79      -0.2867
     46  CB       -14.9350    5.5710  -55.0280 C.3    79  LEU79       0.0270
     47  CG       -15.8540    6.1180  -53.9470 C.3    79  LEU79       0.0019
     48  CD1      -16.7850    4.9980  -53.4780 C.3    79  LEU79       0.0001
     49  CD2      -15.0520    6.6950  -52.7940 C.3    79  LEU79       0.0001
     50  N         -9.3520    3.3020  -56.5630 N.3    81  ASN81      -0.1240
     51  CA        -8.5140    2.3970  -55.8080 C.3    81  ASN81       0.1653
     52  C         -7.1020    2.5680  -56.3440 C.2    81  ASN81       0.2266
     53  O         -6.9070    2.7910  -57.5520 O.2    81  ASN81      -0.2867
     54  CB        -9.0030    0.9540  -55.9320 C.3    81  ASN81       0.1155
     55  CG        -8.2820    0.0230  -55.0060 C.2    81  ASN81       0.2627
     56  OD1       -8.4600    0.0870  -53.7970 O.2    81  ASN81      -0.2716
     57  ND2       -7.4620   -0.8570  -55.5650 N.am   81  ASN81      -0.0877
     58  N        -13.1430    2.9220  -58.9300 N.3    90  SER90      -0.1217
     59  CA       -13.6600    1.8380  -58.0970 C.3    90  SER90       0.1889
     60  C        -15.0880    2.0970  -57.6330 C.2    90  SER90       0.2288
     61  O        -15.3760    2.0240  -56.4310 O.2    90  SER90      -0.2866
     62  CB       -12.7640    1.6140  -56.8740 C.3    90  SER90       0.2089
     63  OG       -12.9060    0.2870  -56.4010 O.3    90  SER90      -0.2183
     64  N        -18.9450    1.3950  -56.6710 N.3    92  ASP92      -0.1239
     65  CA       -19.5100    0.2380  -55.9990 C.3    92  ASP92       0.1674
     66  C        -20.9840    0.4890  -55.7000 C.2    92  ASP92       0.2266
     67  O        -21.5790    1.4690  -56.1650 O.2    92  ASP92      -0.2867
     68  CB       -18.6950   -0.0870  -54.7330 C.3    92  ASP92       0.1410
     69  CG       -18.8220    0.9770  -53.6490 C.2    92  ASP92       0.3668
     70  OD1      -19.8150    1.7500  -53.6200 O.co2  92  ASP92      -0.2456
     71  OD2      -17.9110    1.0040  -52.7880 O.co2  92  ASP92      -0.2456
     72  N        -22.3500    0.6780  -52.4960 N.3    94  GLN94      -0.1245
     73  CA       -22.4950    1.0680  -51.0960 C.3    94  GLN94       0.1566
     74  C        -22.9370    2.5230  -51.0060 C.2    94  GLN94       0.2260
     75  O        -22.3900    3.3890  -51.6960 O.2    94  GLN94      -0.2867
     76  CB       -21.1750    0.8780  -50.3490 C.3    94  GLN94       0.0367
     77  CG       -21.2310    1.2330  -48.8840 C.3    94  GLN94       0.0905
     78  CD       -21.8320    0.1300  -48.0530 C.2    94  GLN94       0.2608
     79  OE1      -21.1840   -0.8860  -47.8000 O.2    94  GLN94      -0.2717
     80  NE2      -23.0720    0.3140  -47.6300 N.am   94  GLN94      -0.0878
     81  N        -23.0710    5.9510  -48.9150 N.3    96  ARG96      -0.1245
     82  CA       -22.2210    6.5950  -47.9270 C.3    96  ARG96       0.1563
     83  C        -22.7990    7.9500  -47.5380 C.2    96  ARG96       0.2260
     84  O        -23.1720    8.7470  -48.4060 O.2    96  ARG96      -0.2867
     85  CB       -20.7930    6.7380  -48.4620 C.3    96  ARG96       0.0307
     86  CG       -20.0870    5.4010  -48.6110 C.3    96  ARG96       0.0489
     87  CD       -18.6530    5.5510  -49.1170 C.3    96  ARG96       0.2205
     88  NE       -18.0280    4.2370  -49.2050 N.pl3  96  ARG96      -0.0865
     89  CZ       -18.1920    3.3760  -50.2110 C.cat  96  ARG96       0.5346
     90  NH1      -18.9270    3.6990  -51.2570 N.pl3  96  ARG96       0.1354
     91  NH2      -17.6010    2.1830  -50.1660 N.pl3  96  ARG96       0.1354
     92  N         -9.4430    4.4240  -52.0570 N.3   198  PHE198     -0.1227
     93  CA        -8.9710    3.3930  -51.1600 C.3   198  PHE198      0.1736
     94  C         -7.5420    3.0490  -51.5850 C.2   198  PHE198      0.2595
     95  O         -7.2970    2.7500  -52.7600 O.2   198  PHE198     -0.2718
     96  CB        -9.8930    2.1610  -51.2280 C.3   198  PHE198      0.0547
     97  CG       -11.3350    2.4530  -50.8760 C.ar  198  PHE198     -0.0202
     98  CD1      -11.7620    2.4420  -49.5590 C.ar  198  PHE198     -0.0042
     99  CD2      -12.2610    2.7140  -51.8620 C.ar  198  PHE198     -0.0042
    100  CE1      -13.0850    2.7050  -49.2360 C.ar  198  PHE198     -0.0003
    101  CE2      -13.5840    2.9790  -51.5460 C.ar  198  PHE198     -0.0003
    102  CZ       -13.9920    2.9710  -50.2330 C.ar  198  PHE198     -0.0000
    103  N         -6.5930    3.1080  -50.6500 N.am  199  VAL199     -0.1966
    104  CA        -5.1830    3.0510  -51.0080 C.3   199  VAL199      0.1727
    105  C         -4.5400    1.8290  -50.3750 C.2   199  VAL199      0.2616
    106  O         -4.6870    1.6020  -49.1650 O.2   199  VAL199     -0.2715
    107  CB        -4.4520    4.3460  -50.5990 C.3   199  VAL199      0.0290
    108  CG1       -2.9980    4.3310  -51.0920 C.3   199  VAL199      0.0023
    109  CG2       -5.1450    5.5260  -51.2160 C.3   199  VAL199      0.0023
    110  N         -3.7780    1.0760  -51.1820 N.am  200  GLN200     -0.1977
    111  CA        -2.9410   -0.0250  -50.7080 C.3   200  GLN200      0.1601
    112  C         -1.4780    0.2080  -51.0720 C.2   200  GLN200      0.2287
    113  O         -1.1490    0.9990  -51.9600 O.2   200  GLN200     -0.2864
    114  CB        -3.3760   -1.3740  -51.2860 C.3   200  GLN200      0.0394
    115  CG        -4.7560   -1.8270  -50.7880 C.3   200  GLN200      0.0908
    116  CD        -5.8850   -1.4250  -51.7300 C.2   200  GLN200      0.2608
    117  OE1       -5.8660   -1.7640  -52.9180 O.2   200  GLN200     -0.2717
    118  NE2       -6.8750   -0.7020  -51.2050 N.am  200  GLN200     -0.0878
    119  N         -3.8640    5.0720  -46.3490 N.3   205  ASP205     -0.1239
    120  CA        -5.0190    4.1840  -46.3220 C.3   205  ASP205      0.1674
    121  C         -6.1490    4.7120  -47.2130 C.2   205  ASP205      0.2266
    122  O         -6.8590    3.9390  -47.8820 O.2   205  ASP205     -0.2867
    123  CB        -5.5080    4.0830  -44.8620 C.3   205  ASP205      0.1410
    124  CG        -6.2010    2.7840  -44.5630 C.2   205  ASP205      0.3668
    125  OD1       -5.8840    1.7800  -45.2290 O.co2 205  ASP205     -0.2456
    126  OD2       -7.0540    2.7630  -43.6540 O.co2 205  ASP205     -0.2456
    127  N         -9.3860    4.0230  -33.8780 N.3   269  ARG269     -0.1245
    128  CA       -10.3500    2.9690  -34.1200 C.3   269  ARG269      0.1563
    129  C         -9.8880    1.7550  -33.3500 C.2   269  ARG269      0.2260
    130  O         -8.6770    1.5850  -33.1470 O.2   269  ARG269     -0.2867
    131  CB       -10.4440    2.6540  -35.6170 C.3   269  ARG269      0.0307
    132  CG        -9.1080    2.7170  -36.3280 C.3   269  ARG269      0.0489
    133  CD        -9.1940    2.1850  -37.7440 C.3   269  ARG269      0.2205
    134  NE       -10.2160    2.8560  -38.5470 N.pl3 269  ARG269     -0.0865
    135  CZ       -10.0640    4.0390  -39.1310 C.cat 269  ARG269      0.5346
    136  NH1      -11.0480    4.5500  -39.8520 N.pl3 269  ARG269      0.1354
    137  NH2       -8.9330    4.7160  -38.9950 N.pl3 269  ARG269      0.1354
    138  N        -16.5140   -0.2970  -34.3600 N.3   296  GLY296     -0.1210
    139  CA       -15.4930    0.7090  -34.5590 C.3   296  GLY296      0.1956
    140  C        -15.8360    1.6490  -35.6870 C.2   296  GLY296      0.2611
    141  O        -14.9420    2.1700  -36.3510 O.2   296  GLY296     -0.2717
    142  N        -17.1240    1.8520  -35.9270 N.am  297  ARG297     -0.1979
    143  CA       -17.6580    2.7420  -36.9280 C.3   297  ARG297      0.1597
    144  C        -18.6430    3.6820  -36.2410 C.2   297  ARG297      0.2287
    145  O        -19.0750    3.4480  -35.1020 O.2   297  ARG297     -0.2864
    146  CB       -18.3600    1.9420  -38.0480 C.3   297  ARG297      0.0334
    147  CG       -17.4350    1.0690  -38.8860 C.3   297  ARG297      0.0492
    148  CD       -18.1470   -0.1390  -39.5400 C.3   297  ARG297      0.2205
    149  NE       -19.2870    0.2380  -40.3680 N.pl3 297  ARG297     -0.0865
    150  CZ       -20.5730    0.0730  -40.0430 C.cat 297  ARG297      0.5346
    151  NH1      -20.9150   -0.4610  -38.8800 N.pl3 297  ARG297      0.1354
    152  NH2      -21.5330    0.4520  -40.8880 N.pl3 297  ARG297      0.1354
@<TRIPOS>BOND
     1    58    59    1
     2    59    60    1
     3    59    62    1
     4    45    44    2
     5    60    61    2
     6    53    52    2
     7    62    63    1
     8    44    43    1
     9    42    43    1
    10    64    65    1
    11    50    51    1
    12    52    51    1
    13    67    66    2
    14    65    66    1
    15    65    68    1
    16    54    51    1
    17    54    55    1
    18    43    46    1
    19    57    55   am
    20    46    47    1
    21    55    56    2
    22    68    69    1
    23    47    48    1
    24    47    49    1
    25    69    70   ar
    26    69    71   ar
    27   117   116    2
    28    95    94    2
    29    72    73    1
    30    92    93    1
    31   113   112    2
    32    99   101   ar
    33    99    97   ar
    34   116   118   am
    35   116   115    1
    36    75    74    2
    37    94    93    1
    38    94   103   am
    39   101   102   ar
    40   114   115    1
    41   114   111    1
    42    90    89    1
    43    96    93    1
    44    96    97    1
    45   109   107    1
    46   110   111    1
    47   110   105   am
    48    73    74    1
    49    73    76    1
    50   108   107    1
    51   112   111    1
    52   104   103    1
    53   104   107    1
    54   104   105    1
    55    97    98   ar
    56   105   106    2
    57    76    77    1
    58   102   100   ar
    59    89    91    1
    60    89    88    2
    61    98   100   ar
    62    88    87    1
    63    87    86    1
    64    81    82    1
    65    77    78    1
    66    86    85    1
    67    85    82    1
    68    84    83    2
    69    78    79    2
    70    78    80   am
    71    82    83    1
    72   122   121    2
    73   121   120    1
    74    12    11    1
    75    10    11   ar
    76    10     8   ar
    77   119   120    1
    78    11     9   ar
    79   120   123    1
    80     8     6   ar
    81     9     7   ar
    82     6     7   ar
    83     6     5    1
    84     5     2    1
    85    30    28    1
    86    41    39    1
    87   125   124   ar
    88   123   124    1
    89   124   126   ar
    90    28    25    1
    91    28    29    1
    92    38    39    2
    93    38    37    1
    94    39    40    1
    95    16    15    2
    96     2     1    1
    97     2     3    1
    98    25    24    1
    99    25    26    1
   100    15    24   am
   101    15    14    1
   102    13     3   am
   103    13    14    1
   104     3     4    2
   105    37    36    1
   106    36    35    1
   107    26    27    2
   108    14    17    1
   109    32    35    1
   110    32    31    1
   111    32    33    1
   112    34    33    2
   113    17    18    1
   114    18    20   ar
   115    18    19   ar
   116    20    22   ar
   117    19    21   ar
   118    22    23   ar
   119    21    23   ar
   120   152   150    1
   121   149   150    2
   122   149   148    1
   123   150   151    1
   124   136   135    1
   125   148   147    1
   126   135   137    1
   127   135   134    2
   128   147   146    1
   129   134   133    1
   130   146   143    1
   131   133   132    1
   132   143   144    1
   133   143   142    1
   134   141   140    2
   135   132   131    1
   136   144   145    2
   137   142   140   am
   138   140   139    1
   139   131   128    1
   140   139   138    1
   141   128   127    1
   142   128   129    1
   143   129   130    2
