@<TRIPOS>MOLECULE
tmp/5krsA00.pdb
 70 66 0 0 0
SMALL
GASTEIGER

@<TRIPOS>ATOM
      1  N         22.8810  133.8560   14.2970 N.3    37  GLU37      -0.1231
      2  CA        23.9670  134.7300   13.8500 C.3    37  GLU37       0.1699
      3  C         23.8070  136.0680   14.5650 C.2    37  GLU37       0.2593
      4  O         23.1740  136.9990   14.0710 O.2    37  GLU37      -0.2718
      5  CB        23.9320  134.8580   12.3380 C.3    37  GLU37       0.0402
      6  CG        25.1690  135.4830   11.7820 C.3    37  GLU37       0.1161
      7  CD        25.2340  135.4370   10.2640 C.2    37  GLU37       0.3649
      8  OE1       26.1560  136.0500    9.7030 O.co2  37  GLU37      -0.2457
      9  OE2       24.3680  134.7990    9.6350 O.co2  37  GLU37      -0.2457
     10  N         24.3580  136.1500   15.7730 N.am   38  THR38      -0.1939
     11  CA        24.1570  137.3070   16.6270 C.3    38  THR38       0.2028
     12  C         25.4550  137.7280   17.3040 C.2    38  THR38       0.2643
     13  O         26.3830  136.9340   17.4960 O.2    38  THR38      -0.2714
     14  CB        23.1210  137.0330   17.7190 C.3    38  THR38       0.1808
     15  OG1       23.6570  136.0840   18.6510 O.3    38  THR38      -0.2208
     16  CG2       21.8140  136.5290   17.1450 C.3    38  THR38       0.0379
     17  N         25.4730  138.9920   17.7350 N.am   39  GLY39      -0.1939
     18  CA        26.5610  139.4740   18.5640 C.3    39  GLY39       0.2014
     19  C         26.7020  138.7090   19.8640 C.2    39  GLY39       0.2638
     20  O         27.8130  138.4640   20.3190 O.2    39  GLY39      -0.2714
     21  N         25.5770  138.3230   20.4740 N.am   40  GLN40      -0.1977
     22  CA        25.6360  137.5780   21.7260 C.3    40  GLN40       0.1601
     23  C         26.3660  136.2550   21.5330 C.2    40  GLN40       0.2287
     24  O         27.2080  135.8780   22.3500 O.2    40  GLN40      -0.2864
     25  CB        24.2170  137.3580   22.2550 C.3    40  GLN40       0.0394
     26  CG        24.1610  136.8150   23.6640 C.3    40  GLN40       0.0908
     27  CD        22.7480  136.4770   24.1030 C.2    40  GLN40       0.2608
     28  OE1       21.7930  136.6000   23.3310 O.2    40  GLN40      -0.2717
     29  NE2       22.6090  136.0440   25.3500 N.am   40  GLN40      -0.0878
     30  N         28.4990  135.5430   19.0760 N.3    42  THR42      -0.1218
     31  CA        29.8730  135.8870   18.7430 C.3    42  THR42       0.1862
     32  C         30.6690  136.1580   20.0070 C.2    42  THR42       0.2287
     33  O         31.7970  135.6770   20.1710 O.2    42  THR42      -0.2866
     34  CB        29.8890  137.1240   17.8450 C.3    42  THR42       0.1770
     35  OG1       29.1500  136.8610   16.6470 O.3    42  THR42      -0.2211
     36  CG2       31.3050  137.4900   17.4800 C.3    42  THR42       0.0375
     37  N         31.0060  144.6580   10.4370 N.3    64  SER64      -0.1202
     38  CA        29.8330  144.9570   11.2480 C.3    64  SER64       0.2020
     39  C         29.6240  143.9470   12.3600 C.2    64  SER64       0.2618
     40  O         28.9440  144.2630   13.3370 O.2    64  SER64      -0.2717
     41  CB        28.5660  145.0150   10.3920 C.3    64  SER64       0.2103
     42  OG        28.2710  143.7470    9.8130 O.3    64  SER64      -0.2182
     43  N         30.1750  142.7420   12.2260 N.am   65  ASN65      -0.1974
     44  CA        30.1240  141.7670   13.3140 C.3    65  ASN65       0.1688
     45  C         30.6200  142.3410   14.6330 C.2    65  ASN65       0.2292
     46  O         30.1610  141.9340   15.7000 O.2    65  ASN65      -0.2864
     47  CB        30.9780  140.5530   12.9960 C.3    65  ASN65       0.1181
     48  CG        30.4060  139.6650   11.9310 C.2    65  ASN65       0.2629
     49  OD1       29.1930  139.6230   11.7010 O.2    65  ASN65      -0.2716
     50  ND2       31.2970  138.9110   11.2700 N.am   65  ASN65      -0.0877
     51  N         30.5430  145.3980   15.8530 N.3    67  THR67      -0.1203
     52  CA        29.9020  146.6080   16.3590 C.3    67  THR67       0.1994
     53  C         28.9030  146.3180   17.4720 C.2    67  THR67       0.2619
     54  O         28.3760  147.2610   18.0770 O.2    67  THR67      -0.2717
     55  CB        29.1900  147.3630   15.2320 C.3    67  THR67       0.1784
     56  OG1       28.1180  146.5660   14.7160 O.3    67  THR67      -0.2211
     57  CG2       30.1680  147.6990   14.1260 C.3    67  THR67       0.0376
     58  N         28.6480  145.0470   17.7510 N.am   68  SER68      -0.1937
     59  CA        27.8010  144.6300   18.8570 C.3    68  SER68       0.2055
     60  C         28.3890  145.0490   20.2030 C.2    68  SER68       0.2643
     61  O         29.5760  144.8420   20.4670 O.2    68  SER68      -0.2714
     62  CB        27.6590  143.1160   18.7980 C.3    68  SER68       0.2130
     63  OG        27.3200  142.5660   20.0380 O.3    68  SER68      -0.2179
     64  N         27.5550  145.6320   21.0650 N.am   69  THR69      -0.1950
     65  CA        28.0720  146.0450   22.3640 C.3    69  THR69       0.1897
     66  C         28.4060  144.8300   23.2140 C.2    69  THR69       0.2313
     67  O         29.3460  144.8810   24.0140 O.2    69  THR69      -0.2863
     68  CB        27.0730  146.9580   23.0810 C.3    69  THR69       0.1794
     69  OG1       25.8290  146.2870   23.2230 O.3    69  THR69      -0.2208
     70  CG2       26.8560  148.2320   22.2880 C.3    69  THR69       0.0378
@<TRIPOS>BOND
     1     9     7   ar
     2     8     7   ar
     3    42    41    1
     4     7     6    1
     5    41    38    1
     6    37    38    1
     7    38    39    1
     8    50    48   am
     9    49    48    2
    10     6     5    1
    11    48    47    1
    12    43    39   am
    13    43    44    1
    14     5     2    1
    15    39    40    2
    16    47    44    1
    17    44    45    1
    18     2     1    1
    19     2     3    1
    20     4     3    2
    21    57    55    1
    22     3    10   am
    23    45    46    2
    24    56    55    1
    25    55    52    1
    26    10    11    1
    27    51    52    1
    28    52    53    1
    29    11    12    1
    30    11    14    1
    31    35    34    1
    32    16    14    1
    33    12    13    2
    34    12    17   am
    35    53    58   am
    36    53    54    2
    37    36    34    1
    38    14    15    1
    39    17    18    1
    40    58    59    1
    41    34    31    1
    42    18    19    1
    43    31    30    1
    44    31    32    1
    45    62    59    1
    46    62    63    1
    47    59    60    1
    48    19    20    2
    49    19    21   am
    50    32    33    2
    51    60    61    2
    52    60    64   am
    53    21    22    1
    54    64    65    1
    55    23    22    1
    56    23    24    2
    57    22    25    1
    58    25    26    1
    59    70    68    1
    60    65    68    1
    61    65    66    1
    62    68    69    1
    63    66    67    2
    64    28    27    2
    65    26    27    1
    66    27    29   am
