@<TRIPOS>MOLECULE
tmp/5ks7A00.pdb
 123 118 0 0 0
SMALL
GASTEIGER

@<TRIPOS>ATOM
      1  N        -18.6860   -0.1430   -6.5650 N.3    10  ASN10      -0.1240
      2  CA       -18.5480   -1.3750   -7.3710 C.3    10  ASN10       0.1653
      3  C        -17.0580   -1.7340   -7.5380 C.2    10  ASN10       0.2266
      4  O        -16.2630   -0.9420   -8.0590 O.2    10  ASN10      -0.2867
      5  CB       -19.3850   -1.2790   -8.6860 C.3    10  ASN10       0.1155
      6  CG       -18.5700   -1.4740   -9.9690 C.2    10  ASN10       0.2627
      7  OD1      -17.8600   -2.4840  -10.1520 O.2    10  ASN10      -0.2716
      8  ND2      -18.7230   -0.5240  -10.9010 N.am   10  ASN10      -0.0877
      9  N        -15.1510   -3.6820   -9.2810 N.3    12  ASN12      -0.1226
     10  CA       -14.4340   -3.9600  -10.5440 C.3    12  ASN12       0.1770
     11  C        -14.3790   -2.7300  -11.4890 C.2    12  ASN12       0.2439
     12  O        -15.1900   -2.6090  -12.4290 O.2    12  ASN12      -0.2733
     13  CB       -15.0470   -5.1680  -11.2480 C.3    12  ASN12       0.1168
     14  CG       -14.1590   -5.6850  -12.3680 C.2    12  ASN12       0.2627
     15  OD1      -13.0220   -5.3010  -12.4900 O.2    12  ASN12      -0.2716
     16  ND2      -14.7270   -6.6020  -13.1190 N.am   12  ASN12      -0.0877
     17  N        -13.4420   -1.7940  -11.2260 N.am   13  PRO13      -0.2718
     18  CA       -13.1940   -0.6850  -12.1600 C.3    13  PRO13       0.1535
     19  C        -12.1740   -1.0740  -13.1750 C.2    13  PRO13       0.2598
     20  O        -11.2380   -1.7740  -12.8570 O.2    13  PRO13      -0.2715
     21  CB       -12.6030    0.4160  -11.2850 C.3    13  PRO13       0.0310
     22  CG       -12.6540   -0.1020   -9.8730 C.3    13  PRO13       0.0237
     23  CD       -12.7430   -1.5900   -9.9510 C.3    13  PRO13       0.0939
     24  N        -12.3290   -0.5910  -14.3860 N.am   14  VAL14      -0.1978
     25  CA       -11.4640   -1.0070  -15.4700 C.3    14  VAL14       0.1596
     26  C        -10.1360   -0.2020  -15.4890 C.2    14  VAL14       0.2287
     27  O        -10.1270    1.0250  -15.6130 O.2    14  VAL14      -0.2864
     28  CB       -12.1980   -0.9140  -16.8170 C.3    14  VAL14       0.0276
     29  CG1      -11.4950   -1.7930  -17.8380 C.3    14  VAL14       0.0022
     30  CG2      -13.6420   -1.3670  -16.6770 C.3    14  VAL14       0.0022
     31  N        -17.2450   -2.4400  -22.0660 N.3    33  ARG33      -0.1231
     32  CA       -18.2920   -1.4470  -22.3050 C.3    33  ARG33       0.1694
     33  C        -18.0670   -0.2190  -21.4070 C.2    33  ARG33       0.2592
     34  O        -18.8660    0.0600  -20.5200 O.2    33  ARG33      -0.2718
     35  CB       -19.6710   -2.0710  -22.0650 C.3    33  ARG33       0.0321
     36  CG       -19.8350   -3.4980  -22.5910 C.3    33  ARG33       0.0489
     37  CD       -19.6050   -3.6190  -24.1120 C.3    33  ARG33       0.2205
     38  NE       -20.3990   -2.6730  -24.9110 N.pl3  33  ARG33      -0.0865
     39  CZ       -19.9980   -2.0880  -26.0380 C.cat  33  ARG33       0.5346
     40  NH1      -18.7970   -2.3290  -26.5280 N.pl3  33  ARG33       0.1354
     41  NH2      -20.7870   -1.2230  -26.6600 N.pl3  33  ARG33       0.1354
     42  N        -16.9570    0.4820  -21.6140 N.am   34  VAL34      -0.1966
     43  CA       -16.6540    1.6950  -20.8490 C.3    34  VAL34       0.1727
     44  C        -15.9970    2.7720  -21.7190 C.2    34  VAL34       0.2616
     45  O        -15.1430    2.4440  -22.5540 O.2    34  VAL34      -0.2715
     46  CB       -15.7260    1.3960  -19.6590 C.3    34  VAL34       0.0290
     47  CG1      -16.5100    0.7140  -18.5420 C.3    34  VAL34       0.0023
     48  CG2      -14.5360    0.5520  -20.0900 C.3    34  VAL34       0.0023
     49  N        -16.3830    4.0450  -21.5250 N.am   35  ASP35      -0.1957
     50  CA       -15.7780    5.1770  -22.2750 C.3    35  ASP35       0.1840
     51  C        -14.3730    5.6300  -21.7450 C.2    35  ASP35       0.2622
     52  O        -13.6340    6.3360  -22.4450 O.2    35  ASP35      -0.2715
     53  CB       -16.7350    6.3780  -22.3610 C.3    35  ASP35       0.1450
     54  CG       -17.3160    6.7760  -21.0070 C.2    35  ASP35       0.3671
     55  OD1      -17.7720    5.8790  -20.2560 O.co2  35  ASP35      -0.2456
     56  OD2      -17.3470    7.9840  -20.6820 O.co2  35  ASP35      -0.2456
     57  N        -13.9880    5.2130  -20.5380 N.am   36  THR36      -0.1951
     58  CA       -12.6950    5.6260  -19.9730 C.3    36  THR36       0.1897
     59  C        -11.9570    4.4710  -19.3050 C.2    36  THR36       0.2313
     60  O        -12.5670    3.5620  -18.7570 O.2    36  THR36      -0.2863
     61  CB       -12.8370    6.7700  -18.9160 C.3    36  THR36       0.1794
     62  OG1      -13.2570    6.2290  -17.6620 O.3    36  THR36      -0.2208
     63  CG2      -13.8460    7.8300  -19.3550 C.3    36  THR36       0.0378
     64  N         -9.0700    3.7890  -16.3430 N.3    38  LEU38      -0.1245
     65  CA        -8.3140    4.2800  -15.1990 C.3    38  LEU38       0.1561
     66  C         -6.9150    3.6950  -15.2080 C.2    38  LEU38       0.2260
     67  O         -6.7130    2.5390  -15.5550 O.2    38  LEU38      -0.2867
     68  CB        -9.0310    3.9270  -13.8890 C.3    38  LEU38       0.0270
     69  CG       -10.1680    4.8860  -13.5090 C.3    38  LEU38       0.0019
     70  CD1      -11.0390    4.3680  -12.3650 C.3    38  LEU38       0.0001
     71  CD2       -9.5800    6.2370  -13.1380 C.3    38  LEU38       0.0001
     72  N        -18.6610   12.2840  -13.8240 N.3    95  LYS95      -0.1231
     73  CA       -19.2910   11.1250  -14.4790 C.3    95  LYS95       0.1693
     74  C        -19.2530    9.8700  -13.6100 C.2    95  LYS95       0.2592
     75  O        -20.1170    9.0050  -13.7360 O.2    95  LYS95      -0.2718
     76  CB       -18.6320   10.8370  -15.8470 C.3    95  LYS95       0.0285
     77  CG       -19.2830   11.5470  -17.0450 C.3    95  LYS95       0.0035
     78  CD       -20.3000   10.6620  -17.7640 C.3    95  LYS95       0.0206
     79  CE       -19.6530    9.8040  -18.8570 C.3    95  LYS95       0.1093
     80  NZ       -18.6040    8.8420  -18.3990 N.3    95  LYS95      -0.1314
     81  N        -18.2320    9.7630  -12.7600 N.am   96  TYR96      -0.1976
     82  CA       -18.1180    8.6850  -11.7690 C.3    96  TYR96       0.1639
     83  C        -16.9380    9.0560  -10.9140 C.2    96  TYR96       0.2290
     84  O        -16.2420    9.9880  -11.2450 O.2    96  TYR96      -0.2864
     85  CB       -17.8760    7.3220  -12.4230 C.3    96  TYR96       0.0560
     86  CG       -16.6080    7.2820  -13.2140 C.ar   96  TYR96      -0.0198
     87  CD1      -15.3980    7.2450  -12.5700 C.ar   96  TYR96      -0.0009
     88  CD2      -16.6190    7.3480  -14.6140 C.ar   96  TYR96      -0.0009
     89  CE1      -14.2220    7.2450  -13.2710 C.ar   96  TYR96       0.0417
     90  CE2      -15.4410    7.3480  -15.3300 C.ar   96  TYR96       0.0417
     91  CZ       -14.2410    7.2940  -14.6390 C.ar   96  TYR96       0.1957
     92  OH       -13.0230    7.2810  -15.2730 O.3    96  TYR96      -0.2866
     93  N        -14.8460    2.0310   -8.0060 N.3   109  ILE109     -0.1245
     94  CA       -15.4990    3.3090   -8.3860 C.3   109  ILE109      0.1561
     95  C        -17.0080    3.3540   -8.0870 C.2   109  ILE109      0.2260
     96  O        -17.6520    2.3400   -7.7770 O.2   109  ILE109     -0.2867
     97  CB       -15.2900    3.7900   -9.8620 C.3   109  ILE109      0.0252
     98  CG1      -16.1490    3.0530  -10.8330 C.3   109  ILE109      0.0019
     99  CG2      -13.8470    3.7090  -10.3190 C.3   109  ILE109      0.0019
    100  CD1      -16.4680    3.9350  -12.0230 C.3   109  ILE109      0.0001
    101  N        -20.2470    4.6600   -9.7210 N.3   111  THR111     -0.1203
    102  CA       -20.8530    4.9470  -10.9990 C.3   111  THR111      0.1994
    103  C        -22.2240    5.5720  -10.7770 C.2   111  THR111      0.2618
    104  O        -22.6830    5.7280   -9.6430 O.2   111  THR111     -0.2717
    105  CB       -20.9620    3.6340  -11.8270 C.3   111  THR111      0.1784
    106  OG1      -21.7050    2.6380  -11.0980 O.3   111  THR111     -0.2211
    107  CG2      -19.5820    3.1010  -12.1220 C.3   111  THR111      0.0376
    108  N        -22.8680    5.9440  -11.8680 N.am  112  ARG112     -0.1965
    109  CA       -24.2520    6.3780  -11.8120 C.3   112  ARG112      0.1729
    110  C        -25.1260    5.1580  -11.4620 C.2   112  ARG112      0.2616
    111  O        -26.1810    5.2970  -10.8180 O.2   112  ARG112     -0.2715
    112  CB       -24.6600    7.0040  -13.1540 C.3   112  ARG112      0.0348
    113  CG       -23.8040    8.2120  -13.5930 C.3   112  ARG112      0.0492
    114  CD       -24.4710    9.5350  -13.2430 C.3   112  ARG112      0.2205
    115  NE       -25.8200    9.5620  -13.7870 N.pl3 112  ARG112     -0.0865
    116  CZ       -26.8220   10.3170  -13.3490 C.cat 112  ARG112      0.5346
    117  NH1      -26.6700   11.1730  -12.3330 N.pl3 112  ARG112      0.1354
    118  NH2      -28.0040   10.2020  -13.9450 N.pl3 112  ARG112      0.1354
    119  N        -24.6620    3.9700  -11.8490 N.am  113  ALA113     -0.1977
    120  CA       -25.2890    2.7340  -11.4230 C.3   113  ALA113      0.1597
    121  C        -24.9060    2.3070  -10.0070 C.2   113  ALA113      0.2287
    122  O        -25.2320    1.2010   -9.6040 O.2   113  ALA113     -0.2864
    123  CB       -24.9610    1.6200  -12.3940 C.3   113  ALA113      0.0319
@<TRIPOS>BOND
     1    41    39    1
     2    40    39    1
     3    39    38    2
     4    38    37    1
     5    37    36    1
     6    36    35    1
     7    45    44    2
     8    52    51    2
     9    53    50    1
    10    53    54    1
    11    32    31    1
    12    32    35    1
    13    32    33    1
    14    50    51    1
    15    50    49    1
    16    51    57   am
    17    44    49   am
    18    44    43    1
    19    42    33   am
    20    42    43    1
    21    33    34    2
    22    54    56   ar
    23    54    55   ar
    24    43    46    1
    25    57    58    1
    26    48    46    1
    27    58    59    1
    28    58    61    1
    29    46    47    1
    30    63    61    1
    31    59    60    2
    32    61    62    1
    33    79    80    1
    34    79    78    1
    35    29    28    1
    36    78    77    1
    37    77    76    1
    38    28    30    1
    39    28    25    1
    40    64    65    1
    41    76    73    1
    42    27    26    2
    43    67    66    2
    44    26    25    1
    45    25    24    1
    46    90    91   ar
    47    90    88   ar
    48    92    91    1
    49    66    65    1
    50    65    68    1
    51    91    89   ar
    52    88    86   ar
    53    73    72    1
    54    73    74    1
    55    24    19   am
    56   118   116    1
    57    68    69    1
    58   115   116    2
    59   115   114    1
    60    75    74    2
    61    74    81   am
    62   113   114    1
    63   113   112    1
    64    69    71    1
    65    69    70    1
    66   116   117    1
    67    89    87   ar
    68    86    87   ar
    69    86    85    1
    70    19    20    2
    71    19    18    1
    72   112   109    1
    73    16    14   am
    74    81    82    1
    75    15    14    2
    76    12    11    2
    77    85    82    1
    78   123   120    1
    79    14    13    1
    80    18    21    1
    81    18    17    1
    82   107   105    1
    83   100    98    1
    84   108   109    1
    85   108   103   am
    86   119   110   am
    87   119   120    1
    88   105   106    1
    89   105   102    1
    90   109   110    1
    91    82    83    1
    92    11    17   am
    93    11    10    1
    94   110   111    2
    95   120   121    1
    96    21    22    1
    97    13    10    1
    98    84    83    2
    99    17    23    1
   100   102   103    1
   101   102   101    1
   102     8     6   am
   103    98    97    1
   104   103   104    2
   105    10     9    1
   106    99    97    1
   107     7     6    2
   108   121   122    2
   109     6     5    1
   110    23    22    1
   111    97    94    1
   112     5     2    1
   113    94    95    1
   114    94    93    1
   115    95    96    2
   116     4     3    2
   117     3     2    1
   118     2     1    1
