@<TRIPOS>MOLECULE
tmp/5ks8D00.pdb
 154 144 0 0 0
SMALL
GASTEIGER

@<TRIPOS>ATOM
      1  N        -65.9790  -11.8220 -106.5590 N.3    15  GLN15      -0.1245
      2  CA       -66.9820  -12.1360 -105.5220 C.3    15  GLN15       0.1566
      3  C        -66.9920  -13.6140 -105.2030 C.2    15  GLN15       0.2260
      4  O        -67.0390  -13.9830 -104.0300 O.2    15  GLN15      -0.2867
      5  CB       -68.3770  -11.7290 -105.9410 C.3    15  GLN15       0.0367
      6  CG       -69.3900  -11.9390 -104.8280 C.3    15  GLN15       0.0905
      7  CD       -70.7610  -11.3750 -105.1460 C.2    15  GLN15       0.2608
      8  OE1      -70.8940  -10.3250 -105.7800 O.2    15  GLN15      -0.2717
      9  NE2      -71.7960  -12.0900 -104.7210 N.am   15  GLN15      -0.0878
     10  N        -63.7130  -13.1910 -102.1220 N.3    19  ALA19      -0.1231
     11  CA       -64.5290  -12.5100 -101.1550 C.3    19  ALA19       0.1694
     12  C        -64.7700  -11.0500 -101.5080 C.2    19  ALA19       0.2593
     13  O        -64.8260  -10.1830 -100.6380 O.2    19  ALA19      -0.2718
     14  CB       -63.8730  -12.6110  -99.7910 C.3    19  ALA19       0.0304
     15  N        -64.9510  -10.7730 -102.7830 N.am   20  THR20      -0.1939
     16  CA       -65.4150   -9.4490 -103.2310 C.3    20  THR20       0.2028
     17  C        -64.4610   -8.3120 -102.8720 C.2    20  THR20       0.2642
     18  O        -64.8450   -7.1350 -102.8810 O.2    20  THR20      -0.2714
     19  CB       -66.8190   -9.1080 -102.6800 C.3    20  THR20       0.1808
     20  OG1      -67.6350  -10.2740 -102.6820 O.3    20  THR20      -0.2208
     21  CG2      -67.4970   -8.0640 -103.5650 C.3    20  THR20       0.0379
     22  N        -63.1940   -8.6480 -102.6720 N.am   21  ARG21      -0.1977
     23  CA       -62.2450   -7.6670 -102.1750 C.3    21  ARG21       0.1597
     24  C        -61.4600   -6.8870 -103.2710 C.2    21  ARG21       0.2287
     25  O        -60.5750   -6.0920 -102.9110 O.2    21  ARG21      -0.2864
     26  CB       -61.2730   -8.3560 -101.2240 C.3    21  ARG21       0.0334
     27  CG       -61.9210   -8.9680 -100.0140 C.3    21  ARG21       0.0492
     28  CD       -62.8430   -8.0060  -99.2710 C.3    21  ARG21       0.2205
     29  NE       -63.5770   -8.7940  -98.2650 N.pl3  21  ARG21      -0.0865
     30  CZ       -63.5140   -8.6860  -96.9570 C.cat  21  ARG21       0.5346
     31  NH1      -62.7520   -7.7630  -96.3840 N.pl3  21  ARG21       0.1354
     32  NH2      -64.2280   -9.5290  -96.2280 N.pl3  21  ARG21       0.1354
     33  N        -72.7380   -8.1780 -104.3080 N.3    48  ALA48      -0.1245
     34  CA       -72.1240   -7.8740 -103.0090 C.3    48  ALA48       0.1562
     35  C        -71.1320   -6.7250 -103.0470 C.2    48  ALA48       0.2260
     36  O        -70.5370   -6.4050 -102.0310 O.2    48  ALA48      -0.2867
     37  CB       -71.4250   -9.1170 -102.4920 C.3    48  ALA48       0.0290
     38  N        -71.9440   -3.5280 -100.8200 N.3    51  ASP51      -0.1225
     39  CA       -71.6320   -3.7650  -99.4240 C.3    51  ASP51       0.1805
     40  C        -70.1140   -3.7480  -99.2090 C.2    51  ASP51       0.2597
     41  O        -69.5920   -2.9630  -98.3840 O.2    51  ASP51      -0.2718
     42  CB       -72.2360   -5.0900  -98.9820 C.3    51  ASP51       0.1424
     43  CG       -72.0740   -5.3450  -97.4870 C.2    51  ASP51       0.3668
     44  OD1      -71.0880   -4.8620  -96.8880 O.co2  51  ASP51      -0.2456
     45  OD2      -72.9110   -6.0690  -96.9000 O.co2  51  ASP51      -0.2456
     46  N        -69.4140   -4.5900  -99.9710 N.am   52  ALA52      -0.1979
     47  CA       -67.9690   -4.7770  -99.8210 C.3    52  ALA52       0.1597
     48  C        -67.1640   -3.4860  -99.9960 C.2    52  ALA52       0.2287
     49  O        -66.2040   -3.2430  -99.2410 O.2    52  ALA52      -0.2864
     50  CB       -67.4940   -5.8170 -100.8130 C.3    52  ALA52       0.0319
     51  N        -68.1110   -1.4740  -96.6220 N.3    55  ARG55      -0.1231
     52  CA       -67.7120   -2.1350  -95.3970 C.3    55  ARG55       0.1694
     53  C        -66.2130   -2.3080  -95.2510 C.2    55  ARG55       0.2592
     54  O        -65.6730   -2.0170  -94.2050 O.2    55  ARG55      -0.2718
     55  CB       -68.4160   -3.4890  -95.3110 C.3    55  ARG55       0.0321
     56  CG       -68.3010   -4.1930  -93.9820 C.3    55  ARG55       0.0489
     57  CD       -69.1640   -5.4490  -94.0150 C.3    55  ARG55       0.2205
     58  NE       -70.5780   -5.1460  -94.2700 N.pl3  55  ARG55      -0.0865
     59  CZ       -71.4410   -4.7030  -93.3570 C.cat  55  ARG55       0.5346
     60  NH1      -71.0680   -4.5170  -92.0990 N.pl3  55  ARG55       0.1354
     61  NH2      -72.6880   -4.4290  -93.6990 N.pl3  55  ARG55       0.1354
     62  N        -65.5440   -2.7870  -96.3010 N.am   56  TYR56      -0.1976
     63  CA       -64.1510   -3.2370  -96.2160 C.3    56  TYR56       0.1639
     64  C        -63.1200   -2.3690  -96.9700 C.2    56  TYR56       0.2290
     65  O        -62.0080   -2.1470  -96.4770 O.2    56  TYR56      -0.2864
     66  CB       -64.0520   -4.6670  -96.7470 C.3    56  TYR56       0.0560
     67  CG       -64.9850   -5.6200  -96.0580 C.ar   56  TYR56      -0.0198
     68  CD1      -64.8340   -5.9170  -94.7010 C.ar   56  TYR56      -0.0009
     69  CD2      -65.9670   -6.2770  -96.7780 C.ar   56  TYR56      -0.0009
     70  CE1      -65.6600   -6.8070  -94.0710 C.ar   56  TYR56       0.0417
     71  CE2      -66.8160   -7.1750  -96.1560 C.ar   56  TYR56       0.0417
     72  CZ       -66.6580   -7.4310  -94.8020 C.ar   56  TYR56       0.1957
     73  OH       -67.5130   -8.3340  -94.2150 O.3    56  TYR56      -0.2866
     74  N        -81.1780   -7.4160 -106.7690 N.3    82  ARG82      -0.1245
     75  CA       -81.9690   -8.4570 -106.1230 C.3    82  ARG82       0.1563
     76  C        -83.4290   -8.0480 -105.9070 C.2    82  ARG82       0.2260
     77  O        -83.9630   -8.2080 -104.8080 O.2    82  ARG82      -0.2867
     78  CB       -81.3400   -8.7970 -104.7790 C.3    82  ARG82       0.0307
     79  CG       -79.8620   -9.1350 -104.8190 C.3    82  ARG82       0.0489
     80  CD       -79.1810   -8.8700 -103.4950 C.3    82  ARG82       0.2205
     81  NE       -77.7910   -9.2930 -103.5650 N.pl3  82  ARG82      -0.0865
     82  CZ       -76.8300   -8.8580 -102.7550 C.cat  82  ARG82       0.5346
     83  NH1      -75.5820   -9.2900 -102.9320 N.pl3  82  ARG82       0.1354
     84  NH2      -77.0910   -8.0050 -101.7670 N.pl3  82  ARG82       0.1354
     85  N        -80.1730   -7.1700  -97.9320 N.3    89  TYR89      -0.1241
     86  CA       -80.6290   -8.4500  -97.4070 C.3    89  TYR89       0.1605
     87  C        -82.1180   -8.4080  -96.9520 C.2    89  TYR89       0.2264
     88  O        -82.5960   -9.3080  -96.2680 O.2    89  TYR89      -0.2867
     89  CB       -79.6830   -8.8820  -96.2770 C.3    89  TYR89       0.0534
     90  CG       -78.2160   -8.6620  -96.6400 C.ar   89  TYR89      -0.0201
     91  CD1      -77.6240   -9.4100  -97.6490 C.ar   89  TYR89      -0.0009
     92  CD2      -77.4190   -7.7260  -95.9660 C.ar   89  TYR89      -0.0009
     93  CE1      -76.2910   -9.2370  -97.9880 C.ar   89  TYR89       0.0417
     94  CE2      -76.0920   -7.5440  -96.3020 C.ar   89  TYR89       0.0417
     95  CZ       -75.5330   -8.2990  -97.3160 C.ar   89  TYR89       0.1957
     96  OH       -74.2120   -8.1380  -97.6770 O.3    89  TYR89      -0.2866
     97  N        -74.4100  -21.2020 -103.0670 N.3   296  PRO296     -0.2116
     98  CA       -74.0990  -20.6300 -104.3840 C.3   296  PRO296      0.1372
     99  C        -72.6530  -20.1550 -104.4600 C.2   296  PRO296      0.2244
    100  O        -72.0880  -19.7930 -103.4160 O.2   296  PRO296     -0.2868
    101  CB       -75.0450  -19.4300 -104.4890 C.3   296  PRO296      0.0268
    102  CG       -75.6530  -19.2320 -103.1400 C.3   296  PRO296      0.0207
    103  CD       -75.0220  -20.2070 -102.1760 C.3   296  PRO296      0.0892
    104  N        -71.0280  -17.4000 -105.7500 N.3   298  GLY298     -0.1210
    105  CA       -70.9020  -16.0580 -105.1810 C.3   298  GLY298      0.1956
    106  C        -70.8880  -16.0400 -103.6690 C.2   298  GLY298      0.2611
    107  O        -70.4070  -15.0910 -103.0680 O.2   298  GLY298     -0.2717
    108  N        -71.4200  -17.0790 -103.0400 N.am  299  MET299     -0.1979
    109  CA       -71.4640  -17.0810 -101.5850 C.3   299  MET299      0.1605
    110  C        -70.2220  -17.6290 -100.9260 C.2   299  MET299      0.2287
    111  O        -69.7760  -17.0830  -99.9140 O.2   299  MET299     -0.2864
    112  CB       -72.6840  -17.8590 -101.0760 C.3   299  MET299      0.0413
    113  CG       -73.1110  -17.4780  -99.6570 C.3   299  MET299      0.0598
    114  SD       -74.3250  -18.5370  -98.8680 S.3   299  MET299     -0.1393
    115  CE       -73.7990  -18.3800  -97.1680 C.3   299  MET299      0.0692
    116  N        -66.9370  -15.9110  -99.5270 N.3   302  ASN302     -0.1240
    117  CA       -67.3520  -14.9610  -98.5190 C.3   302  ASN302      0.1653
    118  C        -67.7360  -15.6850  -97.2350 C.2   302  ASN302      0.2266
    119  O        -67.4180  -15.2120  -96.1250 O.2   302  ASN302     -0.2867
    120  CB       -68.5580  -14.1840  -98.9660 C.3   302  ASN302      0.1155
    121  CG       -68.2800  -13.2310 -100.0910 C.2   302  ASN302      0.2627
    122  OD1      -67.7200  -12.1620  -99.8940 O.2   302  ASN302     -0.2716
    123  ND2      -68.7800  -13.5610 -101.2570 N.am  302  ASN302     -0.0877
    124  N        -65.7990  -15.4420  -93.7570 N.3   306  GLN306     -0.1245
    125  CA       -66.5930  -15.1130  -92.5740 C.3   306  GLN306      0.1566
    126  C        -66.3080  -16.1010  -91.4380 C.2   306  GLN306      0.2260
    127  O        -66.1840  -15.6760  -90.2950 O.2   306  GLN306     -0.2867
    128  CB       -68.0960  -15.0520  -92.9280 C.3   306  GLN306      0.0367
    129  CG       -68.6050  -13.6460  -93.2920 C.3   306  GLN306      0.0905
    130  CD       -69.8520  -13.6020  -94.1900 C.2   306  GLN306      0.2608
    131  OE1      -70.4870  -14.6100  -94.5260 O.2   306  GLN306     -0.2717
    132  NE2      -70.1950  -12.4070  -94.5880 N.am  306  GLN306     -0.0878
    133  N        -78.9050  -14.9600 -102.7220 N.3   337  THR337     -0.1218
    134  CA       -79.0390  -13.7730 -101.8740 C.3   337  THR337      0.1862
    135  C        -80.4450  -13.2690 -102.0360 C.2   337  THR337      0.2287
    136  O        -80.9080  -13.0850 -103.1840 O.2   337  THR337     -0.2866
    137  CB       -78.1060  -12.5570 -102.2420 C.3   337  THR337      0.1770
    138  OG1      -76.9390  -12.9510 -102.9650 O.3   337  THR337     -0.2211
    139  CG2      -77.6580  -11.8430 -101.0020 C.3   337  THR337      0.0375
    140  N        -79.8620  -17.2380  -99.0830 N.3   340  SER340     -0.1202
    141  CA       -78.6660  -18.0290  -98.8420 C.3   340  SER340      0.2020
    142  C        -77.8580  -17.5120  -97.6470 C.2   340  SER340      0.2618
    143  O        -77.3700  -18.3400  -96.8450 O.2   340  SER340     -0.2717
    144  CB       -77.8060  -18.0870 -100.0830 C.3   340  SER340      0.2103
    145  OG       -77.7220  -16.8290 -100.6950 O.3   340  SER340     -0.2182
    146  N        -77.7510  -16.1830  -97.4880 N.am  341  GLN341     -0.1979
    147  CA       -77.1420  -15.6530  -96.2480 C.3   341  GLN341      0.1601
    148  C        -78.0030  -16.0970  -95.0970 C.2   341  GLN341      0.2287
    149  O        -77.4670  -16.5170  -94.0870 O.2   341  GLN341     -0.2864
    150  CB       -76.9690  -14.1250  -96.1400 C.3   341  GLN341      0.0394
    151  CG       -75.5430  -13.5800  -96.3300 C.3   341  GLN341      0.0908
    152  CD       -74.4610  -14.1060  -95.3580 C.2   341  GLN341      0.2608
    153  OE1      -74.2050  -13.5330  -94.3090 O.2   341  GLN341     -0.2717
    154  NE2      -73.7320  -15.1340  -95.7890 N.am  341  GLN341     -0.0878
@<TRIPOS>BOND
     1    74    75    1
     2     1     2    1
     3    75    76    1
     4    75    78    1
     5     5     2    1
     6     5     6    1
     7    76    77    2
     8     8     7    2
     9   104   105    1
    10     2     3    1
    11     3     4    2
    12   105   106    1
    13     7     6    1
    14     7     9   am
    15    79    78    1
    16    79    80    1
    17   101    98    1
    18   101   102    1
    19    99    98    1
    20    99   100    2
    21    98    97    1
    22    33    34    1
    23   106   107    2
    24   106   108   am
    25    81    80    1
    26    81    82    2
    27    21    19    1
    28    24    25    2
    29    24    23    1
    30    16    17    1
    31    16    15    1
    32    16    19    1
    33   136   135    2
    34   102   103    1
    35    97   103    1
    36    35    34    1
    37    35    36    2
    38   108   109    1
    39    34    37    1
    40   138   137    1
    41    83    82    1
    42    18    17    2
    43    17    22   am
    44    15    12   am
    45    82    84    1
    46   133   134    1
    47    20    19    1
    48    22    23    1
    49   137   134    1
    50   137   139    1
    51    23    26    1
    52    10    11    1
    53   135   134    1
    54   109   112    1
    55   109   110    1
    56    12    11    1
    57    12    13    2
    58   123   121   am
    59    26    27    1
    60    11    14    1
    61   112   113    1
    62   110   111    2
    63    38    39    1
    64    50    47    1
    65   145   144    1
    66   121   122    2
    67   121   120    1
    68   144   141    1
    69    27    28    1
    70    48    47    1
    71    48    49    2
    72    46    47    1
    73    46    40   am
    74   113   114    1
    75   116   117    1
    76    39    40    1
    77    39    42    1
    78    28    29    1
    79    40    41    2
    80   140   141    1
    81    42    43    1
    82   120   117    1
    83   114   115    1
    84   141   142    1
    85   117   118    1
    86    29    30    2
    87    93    91   ar
    88    93    95   ar
    89    85    86    1
    90    96    95    1
    91    91    90   ar
    92   142   146   am
    93   142   143    2
    94   146   147    1
    95    43    45   ar
    96    43    44   ar
    97    86    87    1
    98    86    89    1
    99    95    94   ar
   100   118   119    2
   101    64    65    2
   102    64    63    1
   103    30    31    1
   104    30    32    1
   105    87    88    2
   106    69    71   ar
   107    69    67   ar
   108    66    63    1
   109    66    67    1
   110    90    89    1
   111    90    92   ar
   112    51    52    1
   113   151   150    1
   114   151   152    1
   115    94    92   ar
   116    62    63    1
   117    62    53   am
   118   147   150    1
   119   147   148    1
   120    71    72   ar
   121    67    68   ar
   122   154   152   am
   123    52    55    1
   124    52    53    1
   125   152   153    2
   126    55    56    1
   127    53    54    2
   128   148   149    2
   129    72    73    1
   130    72    70   ar
   131    68    70   ar
   132   132   130   am
   133   131   130    2
   134    58    57    1
   135    58    59    2
   136   130   129    1
   137    57    56    1
   138   124   125    1
   139    61    59    1
   140    59    60    1
   141   129   128    1
   142   128   125    1
   143   125   126    1
   144   126   127    2
