@<TRIPOS>MOLECULE
tmp/5kscA00.pdb
 122 115 0 0 0
SMALL
GASTEIGER

@<TRIPOS>ATOM
      1  N         41.9000  -22.3680   10.5750 N.3    43  SER43      -0.1217
      2  CA        40.6760  -21.5690   10.5490 C.3    43  SER43       0.1889
      3  C         39.4430  -22.3170   11.0620 C.2    43  SER43       0.2288
      4  O         38.3240  -21.8230   10.9350 O.2    43  SER43      -0.2866
      5  CB        40.4100  -21.0680    9.1270 C.3    43  SER43       0.2089
      6  OG        41.4210  -20.1670    8.7060 O.3    43  SER43      -0.2183
      7  N         45.4090  -11.1390    4.7950 N.3    77  ASN77      -0.1225
      8  CA        45.7380  -11.9690    3.6380 C.3    77  ASN77       0.1785
      9  C         44.5240  -12.4120    2.8200 C.2    77  ASN77       0.2597
     10  O         44.5440  -12.3480    1.5900 O.2    77  ASN77      -0.2718
     11  CB        46.5190  -13.2020    4.0970 C.3    77  ASN77       0.1169
     12  CG        45.7260  -14.0750    5.0480 C.2    77  ASN77       0.2627
     13  OD1       44.9950  -13.5760    5.9020 O.2    77  ASN77      -0.2716
     14  ND2       45.8580  -15.3880    4.8990 N.am   77  ASN77      -0.0877
     15  N         43.4740  -12.8600    3.5020 N.am   78  TYR78      -0.1976
     16  CA        42.2970  -13.4120    2.8330 C.3    78  TYR78       0.1639
     17  C         41.0090  -12.9110    3.4700 C.2    78  TYR78       0.2290
     18  O         40.7480  -13.1620    4.6460 O.2    78  TYR78      -0.2864
     19  CB        42.3330  -14.9390    2.8700 C.3    78  TYR78       0.0560
     20  CG        41.1290  -15.5930    2.2350 C.ar   78  TYR78      -0.0198
     21  CD1       41.0990  -15.8540    0.8730 C.ar   78  TYR78      -0.0009
     22  CD2       40.0250  -15.9530    2.9970 C.ar   78  TYR78      -0.0009
     23  CE1       40.0020  -16.4530    0.2860 C.ar   78  TYR78       0.0417
     24  CE2       38.9260  -16.5510    2.4210 C.ar   78  TYR78       0.0417
     25  CZ        38.9160  -16.7980    1.0650 C.ar   78  TYR78       0.1957
     26  OH        37.8170  -17.3980    0.4960 O.3    78  TYR78      -0.2866
     27  N         35.1890  -18.1050    5.4000 N.3   103  SER103     -0.1217
     28  CA        36.5030  -18.1480    6.0380 C.3   103  SER103      0.1889
     29  C         37.2240  -16.8080    5.9320 C.2   103  SER103      0.2288
     30  O         38.4280  -16.7570    5.6790 O.2   103  SER103     -0.2866
     31  CB        37.3620  -19.2530    5.4200 C.3   103  SER103      0.2089
     32  OG        38.5010  -19.5100    6.2200 O.3   103  SER103     -0.2183
     33  N         39.1680  -13.8390    7.2070 N.3   105  ASN105     -0.1240
     34  CA        40.0840  -13.6910    8.3380 C.3   105  ASN105      0.1653
     35  C         39.9490  -12.3470    9.0400 C.2   105  ASN105      0.2266
     36  O         40.2240  -12.2370   10.2350 O.2   105  ASN105     -0.2867
     37  CB        41.5360  -13.8830    7.8830 C.3   105  ASN105      0.1155
     38  CG        41.9080  -15.3430    7.7060 C.2   105  ASN105      0.2627
     39  OD1       41.2750  -16.2330    8.2740 O.2   105  ASN105     -0.2716
     40  ND2       42.9480  -15.5950    6.9210 N.am  105  ASN105     -0.0877
     41  N         46.2930  -13.9100   10.1620 N.3   140  PRO140     -0.2102
     42  CA        46.4260  -15.2990    9.7100 C.3   140  PRO140      0.1504
     43  C         47.5680  -16.0510   10.3850 C.2   140  PRO140      0.2576
     44  O         47.8230  -17.2070   10.0490 O.2   140  PRO140     -0.2718
     45  CB        46.7040  -15.1380    8.2210 C.3   140  PRO140      0.0282
     46  CG        47.4910  -13.8760    8.1480 C.3   140  PRO140      0.0208
     47  CD        47.0040  -12.9840    9.2620 C.3   140  PRO140      0.0893
     48  N         48.2490  -15.3950   11.3170 N.am  141  THR141     -0.1953
     49  CA        49.4100  -15.9870   11.9740 C.3   141  THR141      0.1897
     50  C         49.0630  -17.2180   12.8070 C.2   141  THR141      0.2313
     51  O         49.9540  -17.9530   13.2280 O.2   141  THR141     -0.2863
     52  CB        50.1160  -14.9670   12.8870 C.3   141  THR141      0.1794
     53  OG1       49.1670  -14.3780   13.7850 O.3   141  THR141     -0.2208
     54  CG2       50.7710  -13.8800   12.0600 C.3   141  THR141      0.0378
     55  N         47.6930  -19.7230   11.6670 N.3   143  ASN143     -0.1225
     56  CA        47.7220  -20.8390   10.7260 C.3   143  ASN143      0.1785
     57  C         49.1350  -21.3020   10.3750 C.2   143  ASN143      0.2597
     58  O         49.3220  -22.0270    9.3980 O.2   143  ASN143     -0.2718
     59  CB        46.9960  -20.4540    9.4370 C.3   143  ASN143      0.1169
     60  CG        45.5860  -19.9670    9.6840 C.2   143  ASN143      0.2627
     61  OD1       44.6570  -20.7610    9.8240 O.2   143  ASN143     -0.2716
     62  ND2       45.4180  -18.6530    9.7340 N.am  143  ASN143     -0.0877
     63  N         50.1280  -20.8820   11.1530 N.am  144  THR144     -0.1953
     64  CA        51.5090  -21.2840   10.8910 C.3   144  THR144      0.1897
     65  C         51.6670  -22.7950   11.0130 C.2   144  THR144      0.2313
     66  O         52.4130  -23.4110   10.2530 O.2   144  THR144     -0.2863
     67  CB        52.4980  -20.5920   11.8420 C.3   144  THR144      0.1794
     68  OG1       52.0120  -20.6690   13.1880 O.3   144  THR144     -0.2208
     69  CG2       52.6750  -19.1350   11.4460 C.3   144  THR144      0.0378
     70  N         32.9820  -23.4590    1.5550 N.3   189  THR189     -0.1218
     71  CA        34.4110  -23.7390    1.3940 C.3   189  THR189      0.1862
     72  C         34.8010  -25.2070    1.6070 C.2   189  THR189      0.2287
     73  O         35.9850  -25.5400    1.5690 O.2   189  THR189     -0.2866
     74  CB        35.2500  -22.8870    2.3730 C.3   189  THR189      0.1770
     75  OG1       35.0400  -23.3440    3.7150 O.3   189  THR189     -0.2211
     76  CG2       34.8800  -21.4010    2.2730 C.3   189  THR189      0.0375
     77  N         33.2600  -26.6270    8.9390 N.3   207  LYS207     -0.1231
     78  CA        34.2000  -25.5160    8.8730 C.3   207  LYS207      0.1693
     79  C         35.5830  -26.0480    8.5350 C.2   207  LYS207      0.2593
     80  O         36.1380  -26.8630    9.2720 O.2   207  LYS207     -0.2718
     81  CB        34.2450  -24.7510   10.1940 C.3   207  LYS207      0.0285
     82  CG        35.2020  -23.5610   10.1830 C.3   207  LYS207      0.0035
     83  CD        34.6420  -22.4100    9.3570 C.3   207  LYS207      0.0206
     84  CE        35.7270  -21.4160    8.9520 C.3   207  LYS207      0.1093
     85  NZ        36.6640  -21.9950    7.9490 N.3   207  LYS207     -0.1314
     86  N         36.1390  -25.5840    7.4220 N.am  208  THR208     -0.1939
     87  CA        37.4480  -26.0440    6.9850 C.3   208  THR208      0.2028
     88  C         38.5480  -25.2130    7.6250 C.2   208  THR208      0.2643
     89  O         38.2790  -24.2940    8.3990 O.2   208  THR208     -0.2714
     90  CB        37.5920  -25.9770    5.4530 C.3   208  THR208      0.1808
     91  OG1       37.4350  -24.6230    5.0120 O.3   208  THR208     -0.2208
     92  CG2       36.5530  -26.8620    4.7750 C.3   208  THR208      0.0379
     93  N         39.7910  -25.5480    7.3000 N.am  209  GLY209     -0.1939
     94  CA        40.9340  -24.7960    7.7790 C.3   209  GLY209      0.2014
     95  C         42.2220  -25.2680    7.1350 C.2   209  GLY209      0.2640
     96  O         42.5820  -26.4420    7.2360 O.2   209  GLY209     -0.2714
     97  N         42.9160  -24.3490    6.4720 N.am  210  SER210     -0.1935
     98  CA        44.1630  -24.6710    5.7850 C.3   210  SER210      0.2055
     99  C         45.2830  -23.7210    6.1890 C.2   210  SER210      0.2644
    100  O         45.0620  -22.5230    6.3570 O.2   210  SER210     -0.2714
    101  CB        43.9640  -24.6250    4.2720 C.3   210  SER210      0.2130
    102  OG        43.0380  -25.6130    3.8520 O.3   210  SER210     -0.2179
    103  N         46.4860  -24.2650    6.3430 N.am  211  GLY211     -0.1939
    104  CA        47.6420  -23.4690    6.7100 C.3   211  GLY211      0.2014
    105  C         48.9310  -24.0230    6.1340 C.2   211  GLY211      0.2638
    106  O         48.9110  -24.8340    5.2090 O.2   211  GLY211     -0.2714
    107  N         50.0580  -23.5760    6.6800 N.am  212  ASP212     -0.1971
    108  CA        51.3630  -24.0650    6.2510 C.3   212  ASP212      0.1709
    109  C         51.5520  -25.5190    6.6750 C.2   212  ASP212      0.2293
    110  O         50.6920  -26.1000    7.3360 O.2   212  ASP212     -0.2864
    111  CB        52.4820  -23.1930    6.8300 C.3   212  ASP212      0.1436
    112  CG        52.4140  -21.7550    6.3500 C.2   212  ASP212      0.3671
    113  OD1       51.9200  -21.5210    5.2270 O.co2 212  ASP212     -0.2456
    114  OD2       52.8610  -20.8580    7.0980 O.co2 212  ASP212     -0.2456
    115  N         48.1680  -28.6720    0.2270 N.3   245  ASN245     -0.1240
    116  CA        47.0000  -28.9810    1.0440 C.3   245  ASN245      0.1653
    117  C         46.1870  -30.1230    0.4360 C.2   245  ASN245      0.2266
    118  O         45.7740  -30.0590   -0.7220 O.2   245  ASN245     -0.2867
    119  CB        46.1210  -27.7420    1.2130 C.3   245  ASN245      0.1155
    120  CG        46.8010  -26.6470    2.0100 C.2   245  ASN245      0.2627
    121  OD1       47.3440  -25.6990    1.4440 O.2   245  ASN245     -0.2716
    122  ND2       46.7830  -26.7760    3.3320 N.am  245  ASN245     -0.0877
@<TRIPOS>BOND
     1   118   117    2
     2   115   116    1
     3    23    21   ar
     4    23    25   ar
     5   117   116    1
     6    26    25    1
     7    21    20   ar
     8   116   119    1
     9    25    24   ar
    10   119   120    1
    11    71    70    1
    12    71    72    1
    13    71    74    1
    14   121   120    2
    15    73    72    2
    16    10     9    2
    17   120   122   am
    18    20    19    1
    19    20    22   ar
    20    76    74    1
    21    74    75    1
    22    24    22   ar
    23     9    15   am
    24     9     8    1
    25    16    19    1
    26    16    17    1
    27    16    15    1
    28    17    18    2
    29     8    11    1
    30     8     7    1
    31   102   101    1
    32    11    12    1
    33   101    98    1
    34    92    90    1
    35    14    12   am
    36    91    90    1
    37    12    13    2
    38   106   105    2
    39   113   112   ar
    40    27    28    1
    41    31    28    1
    42    31    32    1
    43    90    87    1
    44    30    29    2
    45    98    99    1
    46    98    97    1
    47    29    28    1
    48   105   107   am
    49   105   104    1
    50    99   103   am
    51    99   100    2
    52   108   109    1
    53   108   107    1
    54   108   111    1
    55   103   104    1
    56   112   111    1
    57   112   114   ar
    58    97    95   am
    59   109   110    2
    60    40    38   am
    61    87    86    1
    62    87    88    1
    63    95    96    2
    64    95    94    1
    65    33    34    1
    66    93    88   am
    67    93    94    1
    68    86    79   am
    69    88    89    2
    70    38    37    1
    71    38    39    2
    72    37    34    1
    73    85    84    1
    74    46    45    1
    75    46    47    1
    76    45    42    1
    77    34    35    1
    78    79    78    1
    79    79    80    2
    80     6     5    1
    81    78    77    1
    82    78    81    1
    83    84    83    1
    84    35    36    2
    85     5     2    1
    86    47    41    1
    87    83    82    1
    88    58    57    2
    89    59    60    1
    90    59    56    1
    91    60    62   am
    92    60    61    2
    93    42    41    1
    94    42    43    1
    95    44    43    2
    96    82    81    1
    97    66    65    2
    98    57    56    1
    99    57    63   am
   100    43    48   am
   101     2     1    1
   102     2     3    1
   103    56    55    1
   104    64    65    1
   105    64    63    1
   106    64    67    1
   107     4     3    2
   108    48    49    1
   109    69    67    1
   110    67    68    1
   111    49    50    1
   112    49    52    1
   113    54    52    1
   114    50    51    2
   115    52    53    1
