@<TRIPOS>MOLECULE
tmp/5ksdA00.pdb
 178 169 0 0 0
SMALL
GASTEIGER

@<TRIPOS>ATOM
      1  N         -4.3140   -8.3460   46.5350 N.3   318  ASP318     -0.1225
      2  CA        -4.7580   -9.0040   47.7580 C.3   318  ASP318      0.1805
      3  C         -3.6130   -9.7910   48.3850 C.2   318  ASP318      0.2598
      4  O         -3.0880  -10.7300   47.7800 O.2   318  ASP318     -0.2718
      5  CB        -5.9470   -9.9200   47.4680 C.3   318  ASP318      0.1424
      6  CG        -7.2010   -9.1500   47.0960 C.2   318  ASP318      0.3668
      7  OD1       -7.2710   -7.9390   47.3990 O.co2 318  ASP318     -0.2456
      8  OD2       -8.1220   -9.7570   46.5110 O.co2 318  ASP318     -0.2456
      9  N         -3.2240   -9.3900   49.5990 N.am  319  LYS319     -0.1966
     10  CA        -2.1190  -10.0350   50.3030 C.3   319  LYS319      0.1728
     11  C         -2.3590  -11.5270   50.5090 C.2   319  LYS319      0.2617
     12  O         -1.4770  -12.3530   50.2460 O.2   319  LYS319     -0.2715
     13  CB        -1.9210   -9.3570   51.6590 C.3   319  LYS319      0.0311
     14  CG        -0.8940  -10.0270   52.5490 C.3   319  LYS319      0.0038
     15  CD        -0.7680   -9.2950   53.8680 C.3   319  LYS319      0.0206
     16  CE        -2.0630   -9.4040   54.6610 C.3   319  LYS319      0.1093
     17  NZ        -2.2760  -10.7750   55.2110 N.3   319  LYS319     -0.1314
     18  N         -3.5500  -11.8880   50.9840 N.am  320  THR320     -0.1937
     19  CA        -3.8900  -13.2920   51.2060 C.3   320  THR320      0.2028
     20  C         -3.8560  -14.1150   49.9220 C.2   320  THR320      0.2642
     21  O         -3.2760  -15.2050   49.8900 O.2   320  THR320     -0.2714
     22  CB        -5.2540  -13.3900   51.8820 C.3   320  THR320      0.1808
     23  OG1       -5.2350  -12.5890   53.0690 O.3   320  THR320     -0.2208
     24  CG2       -5.5650  -14.8330   52.2510 C.3   320  THR320      0.0379
     25  N         -4.4460  -13.6040   48.8430 N.am  321  GLY321     -0.1954
     26  CA        -4.4700  -14.3750   47.6080 C.3   321  GLY321      0.1869
     27  C         -3.1370  -14.4120   46.8830 C.2   321  GLY321      0.2309
     28  O         -2.6180  -15.4890   46.5750 O.2   321  GLY321     -0.2863
     29  N        -11.0490  -25.9770   52.2590 N.3   361  ASP361     -0.1239
     30  CA       -10.5210  -24.6250   52.3180 C.3   361  ASP361      0.1674
     31  C         -9.0760  -24.6730   52.8000 C.2   361  ASP361      0.2266
     32  O         -8.6700  -25.5910   53.5180 O.2   361  ASP361     -0.2867
     33  CB       -11.3710  -23.7620   53.2540 C.3   361  ASP361      0.1410
     34  CG       -11.1540  -22.2730   53.0460 C.2   361  ASP361      0.3668
     35  OD1      -10.4780  -21.8910   52.0680 O.co2 361  ASP361     -0.2456
     36  OD2      -11.6680  -21.4800   53.8630 O.co2 361  ASP361     -0.2456
     37  N         -7.2580  -22.9390   54.9230 N.3   363  ILE363     -0.1231
     38  CA        -7.1560  -23.0020   56.3780 C.3   363  ILE363      0.1692
     39  C         -7.6840  -24.3280   56.9280 C.2   363  ILE363      0.2592
     40  O         -7.0960  -24.9050   57.8510 O.2   363  ILE363     -0.2718
     41  CB        -7.8720  -21.7830   56.9980 C.3   363  ILE363      0.0266
     42  CG1       -7.5610  -21.6640   58.4900 C.3   363  ILE363      0.0019
     43  CG2       -9.3750  -21.8180   56.7370 C.3   363  ILE363      0.0020
     44  CD1       -7.9220  -20.3160   59.0610 C.3   363  ILE363      0.0001
     45  N         -8.7960  -24.8290   56.3840 N.am  364  ASP364     -0.1974
     46  CA        -9.3130  -26.1370   56.7890 C.3   364  ASP364      0.1709
     47  C         -8.3130  -27.2600   56.5250 C.2   364  ASP364      0.2293
     48  O         -8.0890  -28.1230   57.3830 O.2   364  ASP364     -0.2864
     49  CB       -10.6340  -26.4180   56.0700 C.3   364  ASP364      0.1436
     50  CG       -11.7940  -25.6250   56.6460 C.2   364  ASP364      0.3671
     51  OD1      -11.5490  -24.5480   57.2300 O.co2 364  ASP364     -0.2456
     52  OD2      -12.9490  -26.0840   56.5200 O.co2 364  ASP364     -0.2456
     53  N        -18.4830  -22.2370   55.7170 N.3   389  PHE389     -0.1241
     54  CA       -18.0920  -20.8320   55.7880 C.3   389  PHE389      0.1605
     55  C        -19.0100  -19.9470   54.9530 C.2   389  PHE389      0.2264
     56  O        -19.4370  -20.3160   53.8570 O.2   389  PHE389     -0.2867
     57  CB       -16.6430  -20.6520   55.3280 C.3   389  PHE389      0.0534
     58  CG       -16.1010  -19.2700   55.5780 C.ar  389  PHE389     -0.0203
     59  CD1      -15.4840  -18.9610   56.7810 C.ar  389  PHE389     -0.0042
     60  CD2      -16.2210  -18.2750   54.6190 C.ar  389  PHE389     -0.0042
     61  CE1      -14.9900  -17.6910   57.0220 C.ar  389  PHE389     -0.0003
     62  CE2      -15.7320  -17.0020   54.8550 C.ar  389  PHE389     -0.0003
     63  CZ       -15.1140  -16.7100   56.0590 C.ar  389  PHE389     -0.0000
     64  N        -19.4520  -15.5370   54.2170 N.3   391  PRO391     -0.2116
     65  CA       -18.6950  -14.3040   54.4800 C.3   391  PRO391      0.1372
     66  C        -19.3800  -13.3620   55.4550 C.2   391  PRO391      0.2244
     67  O        -18.6920  -12.5780   56.1200 O.2   391  PRO391     -0.2868
     68  CB       -18.5780  -13.6760   53.0870 C.3   391  PRO391      0.0268
     69  CG       -18.4830  -14.8540   52.1910 C.3   391  PRO391      0.0207
     70  CD       -19.4500  -15.8670   52.7810 C.3   391  PRO391      0.0892
     71  N        -18.6570  -15.6410   58.8600 N.3   394  LYS394     -0.1245
     72  CA       -17.2440  -15.8580   59.1560 C.3   394  LYS394      0.1561
     73  C        -17.0300  -17.0210   60.1220 C.2   394  LYS394      0.2260
     74  O        -16.2360  -16.9290   61.0570 O.2   394  LYS394     -0.2867
     75  CB       -16.5960  -14.5780   59.6910 C.3   394  LYS394      0.0271
     76  CG       -16.7570  -13.3820   58.7660 C.3   394  LYS394      0.0035
     77  CD       -16.0220  -12.1610   59.2910 C.3   394  LYS394      0.0206
     78  CE       -15.9410  -11.0730   58.2300 C.3   394  LYS394      0.1093
     79  NZ       -17.2890  -10.6470   57.7590 N.3   394  LYS394     -0.1314
     80  N        -17.4990  -21.5640   60.8490 N.3   396  THR396     -0.1218
     81  CA       -17.8130  -22.9520   60.5390 C.3   396  THR396      0.1862
     82  C        -18.2180  -23.6470   61.8330 C.2   396  THR396      0.2287
     83  O        -17.8270  -23.2240   62.9220 O.2   396  THR396     -0.2866
     84  CB       -16.6270  -23.6810   59.8830 C.3   396  THR396      0.1770
     85  OG1      -15.4890  -23.6370   60.7520 O.3   396  THR396     -0.2211
     86  CG2      -16.2690  -23.0310   58.5580 C.3   396  THR396      0.0375
     87  N        -15.3090  -23.0530   64.4180 N.3   412  LYS412     -0.1231
     88  CA       -14.2400  -22.1090   64.1240 C.3   412  LYS412      0.1693
     89  C        -14.8460  -20.8530   63.5180 C.2   412  LYS412      0.2593
     90  O        -15.8960  -20.9060   62.8710 O.2   412  LYS412     -0.2718
     91  CB       -13.2230  -22.6540   63.1170 C.3   412  LYS412      0.0285
     92  CG       -12.3740  -23.8170   63.5530 C.3   412  LYS412      0.0035
     93  CD       -11.3450  -24.0900   62.4640 C.3   412  LYS412      0.0206
     94  CE       -12.0200  -24.3570   61.1290 C.3   412  LYS412      0.1093
     95  NZ       -11.0420  -24.6580   60.0480 N.3   412  LYS412     -0.1314
     96  N        -14.1800  -19.7240   63.7130 N.am  413  GLY413     -0.1942
     97  CA       -14.5160  -18.5630   62.9130 C.3   413  GLY413      0.2014
     98  C        -13.6420  -17.3790   63.2520 C.2   413  GLY413      0.2639
     99  O        -12.7140  -17.4660   64.0630 O.2   413  GLY413     -0.2714
    100  N        -13.9550  -16.2650   62.6000 N.am  414  ALA414     -0.1963
    101  CA       -13.3240  -14.9990   62.9330 C.3   414  ALA414      0.1713
    102  C        -13.6560  -14.6330   64.3780 C.2   414  ALA414      0.2458
    103  O        -14.8010  -14.8030   64.8120 O.2   414  ALA414     -0.2730
    104  CB       -13.7920  -13.8940   61.9880 C.3   414  ALA414      0.0333
    105  N        -12.6890  -14.1330   65.1500 N.am  415  PRO415     -0.2727
    106  CA       -12.8900  -14.0940   66.6050 C.3   415  PRO415      0.1402
    107  C        -13.9510  -13.0970   67.0340 C.2   415  PRO415      0.2269
    108  O        -14.6870  -13.3610   67.9920 O.2   415  PRO415     -0.2865
    109  CB       -11.5040  -13.6940   67.1270 C.3   415  PRO415      0.0296
    110  CG       -10.5650  -14.2740   66.1380 C.3   415  PRO415      0.0237
    111  CD       -11.2590  -14.1090   64.7970 C.3   415  PRO415      0.0939
    112  N         -2.3720  -13.9900   61.8330 N.3   445  ARG445     -0.1231
    113  CA        -3.8140  -13.8430   61.8940 C.3   445  ARG445      0.1694
    114  C         -4.3990  -14.7550   62.9670 C.2   445  ARG445      0.2593
    115  O         -3.7780  -15.7270   63.4060 O.2   445  ARG445     -0.2718
    116  CB        -4.4490  -14.1310   60.5330 C.3   445  ARG445      0.0321
    117  CG        -4.4360  -15.5890   60.1190 C.3   445  ARG445      0.0489
    118  CD        -5.2200  -15.8430   58.8290 C.3   445  ARG445      0.2205
    119  NE        -4.6210  -15.2130   57.6660 N.pl3 445  ARG445     -0.0865
    120  CZ        -4.8730  -13.9820   57.2350 C.cat 445  ARG445      0.5346
    121  NH1       -4.0520  -13.3990   56.3840 N.pl3 445  ARG445      0.1354
    122  NH2       -5.8390  -13.2710   57.8010 N.pl3 445  ARG445      0.1354
    123  N         -5.6170  -14.4250   63.3870 N.am  446  SER446     -0.1938
    124  CA        -6.2560  -15.0450   64.5390 C.3   446  SER446      0.2055
    125  C         -7.5120  -15.7890   64.1110 C.2   446  SER446      0.2642
    126  O         -8.3610  -15.2290   63.4110 O.2   446  SER446     -0.2714
    127  CB        -6.6060  -13.9940   65.5940 C.3   446  SER446      0.2130
    128  OG        -7.1800  -12.8470   64.9910 O.3   446  SER446     -0.2179
    129  N         -7.6240  -17.0450   64.5320 N.am  447  LEU447     -0.1977
    130  CA        -8.8590  -17.8070   64.4270 C.3   447  LEU447      0.1596
    131  C         -9.2410  -18.2980   65.8160 C.2   447  LEU447      0.2287
    132  O         -8.3840  -18.7530   66.5790 O.2   447  LEU447     -0.2864
    133  CB        -8.7240  -18.9860   63.4460 C.3   447  LEU447      0.0297
    134  CG        -9.8850  -19.9880   63.3540 C.3   447  LEU447      0.0022
    135  CD1      -10.0060  -20.5230   61.9460 C.3   447  LEU447      0.0001
    136  CD2       -9.7010  -21.1570   64.3180 C.3   447  LEU447      0.0001
    137  N         -3.6510   -4.9720   49.4340 N.3   499  ILE499     -0.1231
    138  CA        -5.0350   -4.9180   49.8850 C.3   499  ILE499      0.1692
    139  C         -5.2310   -6.0920   50.8320 C.2   499  ILE499      0.2593
    140  O         -4.8910   -7.2290   50.4850 O.2   499  ILE499     -0.2718
    141  CB        -6.0300   -4.9830   48.7100 C.3   499  ILE499      0.0266
    142  CG1       -5.8880   -3.7450   47.8200 C.3   499  ILE499      0.0019
    143  CG2       -7.4550   -5.1160   49.2220 C.3   499  ILE499      0.0020
    144  CD1       -6.2240   -2.4470   48.5200 C.3   499  ILE499      0.0001
    145  N         -5.7810   -5.8310   52.0180 N.am  500  THR500     -0.1939
    146  CA        -6.2310   -6.9270   52.8650 C.3   500  THR500      0.2028
    147  C         -7.2870   -6.4450   53.8470 C.2   500  THR500      0.2643
    148  O         -7.3080   -5.2760   54.2400 O.2   500  THR500     -0.2714
    149  CB        -5.0620   -7.5580   53.6350 C.3   500  THR500      0.1808
    150  OG1       -5.5220   -8.7080   54.3560 O.3   500  THR500     -0.2208
    151  CG2       -4.4540   -6.5550   54.6110 C.3   500  THR500      0.0379
    152  N         -8.1800   -7.3670   54.2170 N.am  501  GLY501     -0.1939
    153  CA        -9.1120   -7.1360   55.3060 C.3   501  GLY501      0.2014
    154  C         -8.5110   -7.2700   56.6900 C.2   501  GLY501      0.2638
    155  O         -9.1130   -6.8010   57.6600 O.2   501  GLY501     -0.2714
    156  N         -7.3460   -7.9110   56.8020 N.am  502  ASP502     -0.1971
    157  CA        -6.5920   -7.9200   58.0510 C.3   502  ASP502      0.1709
    158  C         -6.3010   -6.5080   58.5510 C.2   502  ASP502      0.2293
    159  O         -6.0820   -5.5760   57.7730 O.2   502  ASP502     -0.2864
    160  CB        -5.2820   -8.6900   57.8780 C.3   502  ASP502      0.1436
    161  CG        -5.5050  -10.1630   57.6000 C.2   502  ASP502      0.3671
    162  OD1       -4.5730  -10.8230   57.0960 O.co2 502  ASP502     -0.2456
    163  OD2       -6.6120  -10.6620   57.8920 O.co2 502  ASP502     -0.2456
    164  N         -9.8470   -3.7030   54.3680 N.3   553  VAL553     -0.1245
    165  CA       -10.6150   -3.4030   53.1640 C.3   553  VAL553      0.1561
    166  C        -11.8860   -4.2480   53.1360 C.2   553  VAL553      0.2260
    167  O        -11.8260   -5.4740   53.0180 O.2   553  VAL553     -0.2867
    168  CB        -9.7770   -3.6240   51.9010 C.3   553  VAL553      0.0252
    169  CG1      -10.6000   -3.3120   50.6640 C.3   553  VAL553      0.0019
    170  CG2       -8.5230   -2.7640   51.9470 C.3   553  VAL553      0.0019
    171  N        -10.8930  -12.3350   44.3950 N.3   577  ASP577     -0.1239
    172  CA       -11.0760  -13.7480   44.7140 C.3   577  ASP577      0.1674
    173  C        -12.5080  -14.1500   45.0420 C.2   577  ASP577      0.2266
    174  O        -12.8600  -15.3100   44.8060 O.2   577  ASP577     -0.2867
    175  CB       -10.1370  -14.1550   45.8710 C.3   577  ASP577      0.1410
    176  CG       -10.8000  -14.1010   47.2450 C.2   577  ASP577      0.3668
    177  OD1      -11.6360  -14.9790   47.5540 O.co2 577  ASP577     -0.2456
    178  OD2      -10.4610  -13.1880   48.0320 O.co2 577  ASP577     -0.2456
@<TRIPOS>BOND
     1   171   172    1
     2   172   173    1
     3   172   175    1
     4   174   173    2
     5   175   176    1
     6     8     6   ar
     7     1     2    1
     8    28    27    2
     9    27    26    1
    10     6     7   ar
    11     6     5    1
    12   176   177   ar
    13   176   178   ar
    14     5     2    1
    15    26    25    1
    16     2     3    1
    17     4     3    2
    18   142   144    1
    19   142   141    1
    20     3     9   am
    21   141   143    1
    22   141   138    1
    23    25    20   am
    24   137   138    1
    25     9    10    1
    26   138   139    1
    27    21    20    2
    28    20    19    1
    29    12    11    2
    30    10    11    1
    31    10    13    1
    32   140   139    2
    33    11    18   am
    34   169   168    1
    35   139   145   am
    36    18    19    1
    37    19    22    1
    38    13    14    1
    39    22    24    1
    40    22    23    1
    41   168   170    1
    42   168   165    1
    43   145   146    1
    44    35    34   ar
    45    69    70    1
    46    69    68    1
    47    29    30    1
    48    30    31    1
    49    30    33    1
    50    14    15    1
    51    70    64    1
    52    31    32    2
    53   146   149    1
    54   146   147    1
    55   167   166    2
    56    34    33    1
    57    34    36   ar
    58    68    65    1
    59   166   165    1
    60   165   164    1
    61   149   150    1
    62   149   151    1
    63   147   152   am
    64   147   148    2
    65    56    55    2
    66    15    16    1
    67   152   153    1
    68    64    65    1
    69    65    66    1
    70    60    62   ar
    71    60    58   ar
    72    16    17    1
    73    62    63   ar
    74    37    38    1
    75    55    54    1
    76   153   154    1
    77    57    58    1
    78    57    54    1
    79    66    67    2
    80    58    59   ar
    81    53    54    1
    82    63    61   ar
    83    49    50    1
    84    49    46    1
    85    38    39    1
    86    38    41    1
    87   121   120    1
    88    45    46    1
    89    45    39   am
    90    52    50   ar
    91    47    46    1
    92    47    48    2
    93    50    51   ar
    94   154   156   am
    95   154   155    2
    96    43    41    1
    97    59    61   ar
    98   156   157    1
    99    39    40    2
   100    41    42    1
   101   162   161   ar
   102   120   119    2
   103   120   122    1
   104   161   160    1
   105   161   163   ar
   106   119   118    1
   107    79    78    1
   108   159   158    2
   109   160   157    1
   110   157   158    1
   111    78    77    1
   112    42    44    1
   113    86    84    1
   114    76    77    1
   115    76    75    1
   116   118   117    1
   117    71    72    1
   118    72    75    1
   119    72    73    1
   120    84    81    1
   121    84    85    1
   122    95    94    1
   123   117   116    1
   124    73    74    2
   125   116   113    1
   126    81    80    1
   127    81    82    1
   128    94    93    1
   129    82    83    2
   130   112   113    1
   131   113   114    1
   132   135   134    1
   133   104   101    1
   134    93    92    1
   135   100   101    1
   136   100    98   am
   137    90    89    2
   138    97    98    1
   139    97    96    1
   140   101   102    1
   141   114   123   am
   142   114   115    2
   143    91    92    1
   144    91    88    1
   145    98    99    2
   146   134   133    1
   147   134   136    1
   148   123   124    1
   149   126   125    2
   150   133   130    1
   151    89    96   am
   152    89    88    1
   153   125   129   am
   154   125   124    1
   155    88    87    1
   156   102   103    2
   157   102   105   am
   158   130   129    1
   159   130   131    1
   160   124   127    1
   161   111   105    1
   162   111   110    1
   163   128   127    1
   164   105   106    1
   165   131   132    2
   166   110   109    1
   167   106   107    1
   168   106   109    1
   169   107   108    2
