@<TRIPOS>MOLECULE
tmp/5ksgB01.pdb
 80 75 0 0 0
SMALL
GASTEIGER

@<TRIPOS>ATOM
      1  N         -2.7390  -50.9100   12.3490 N.3   106  PRO106     -0.2116
      2  CA        -2.1130  -51.3670   13.5960 C.3   106  PRO106      0.1372
      3  C         -2.3540  -50.3660   14.7370 C.2   106  PRO106      0.2244
      4  O         -2.6170  -50.7900   15.8830 O.2   106  PRO106     -0.2868
      5  CB        -0.6220  -51.3950   13.2550 C.3   106  PRO106      0.0268
      6  CG        -0.6630  -51.5920   11.8030 C.3   106  PRO106      0.0207
      7  CD        -1.8270  -51.0000   11.1630 C.3   106  PRO106      0.0892
      8  N         -5.5710  -50.8840   16.7180 N.3   109  ALA109     -0.1245
      9  CA        -5.7800  -52.2010   17.3620 C.3   109  ALA109      0.1562
     10  C         -6.5970  -52.0880   18.6290 C.2   109  ALA109      0.2260
     11  O         -6.3960  -51.1780   19.4610 O.2   109  ALA109     -0.2867
     12  CB        -4.4650  -52.9000   17.6770 C.3   109  ALA109      0.0290
     13  N          3.5760  -50.5390    8.7350 N.3   175  LEU175     -0.1245
     14  CA         4.5400  -50.0000    9.6780 C.3   175  LEU175      0.1561
     15  C          5.9900  -49.9380    9.0660 C.2   175  LEU175      0.2260
     16  O          6.9310  -49.8020    9.8670 O.2   175  LEU175     -0.2867
     17  CB         4.6030  -50.7180   11.0750 C.3   175  LEU175      0.0270
     18  CG         3.2060  -50.7550   11.7290 C.3   175  LEU175      0.0019
     19  CD1        3.3000  -51.4840   12.9880 C.3   175  LEU175      0.0001
     20  CD2        2.7310  -49.3670   12.0570 C.3   175  LEU175      0.0001
     21  N          4.2780  -59.6520   20.8830 N.3   256  ALA256     -0.1245
     22  CA         3.3230  -59.3120   19.8600 C.3   256  ALA256      0.1562
     23  C          3.0160  -60.4200   18.9270 C.2   256  ALA256      0.2260
     24  O          1.9380  -60.4800   18.2810 O.2   256  ALA256     -0.2867
     25  CB         3.8120  -58.0970   19.0450 C.3   256  ALA256      0.0290
     26  N         -0.4530  -62.0020   18.8780 N.3   259  VAL259     -0.1231
     27  CA        -1.6670  -61.2840   18.3260 C.3   259  VAL259      0.1692
     28  C         -1.8850  -61.6980   16.8930 C.2   259  VAL259      0.2592
     29  O         -1.0270  -61.6490   16.0260 O.2   259  VAL259     -0.2718
     30  CB        -1.4540  -59.8300   18.4410 C.3   259  VAL259      0.0266
     31  CG1       -2.6860  -59.0930   17.8140 C.3   259  VAL259      0.0020
     32  CG2       -1.2340  -59.3550   19.8890 C.3   259  VAL259      0.0020
     33  N         -3.1310  -62.0910   16.6360 N.am  260  GLY260     -0.1957
     34  CA        -3.5420  -62.5690   15.3210 C.3   260  GLY260      0.1869
     35  C         -4.1110  -61.4860   14.3910 C.2   260  GLY260      0.2309
     36  O         -3.8590  -60.2950   14.5620 O.2   260  GLY260     -0.2863
     37  N         -7.4210  -58.9850   15.9370 N.3   275  TRP275     -0.1241
     38  CA        -6.3010  -58.9540   16.9040 C.3   275  TRP275      0.1605
     39  C         -6.4930  -59.9240   18.0600 C.2   275  TRP275      0.2264
     40  O         -6.0850  -59.6770   19.2150 O.2   275  TRP275     -0.2867
     41  CB        -6.0030  -57.5640   17.3940 C.3   275  TRP275      0.0550
     42  CG        -5.6350  -56.6390   16.2690 C.ar  275  TRP275      0.0003
     43  CD1       -4.4640  -56.5480   15.5760 C.ar  275  TRP275      0.0946
     44  CD2       -6.4230  -55.5210   15.7730 C.ar  275  TRP275      0.0152
     45  NE1       -4.4690  -55.5040   14.6440 N.ar  275  TRP275     -0.2442
     46  CE2       -5.6940  -54.9140   14.7310 C.ar  275  TRP275      0.0810
     47  CE3       -7.7010  -55.0460   16.0730 C.ar  275  TRP275      0.0012
     48  CZ2       -6.1090  -53.7280   14.1260 C.ar  275  TRP275      0.0191
     49  CZ3       -8.1800  -53.9320   15.3360 C.ar  275  TRP275      0.0001
     50  CH2       -7.3600  -53.2770   14.4210 C.ar  275  TRP275      0.0015
     51  N         -2.6700  -57.0250   24.8070 N.3   288  ILE288     -0.1231
     52  CA        -1.5900  -56.5870   23.9800 C.3   288  ILE288      0.1692
     53  C         -2.2040  -55.7000   22.8390 C.2   288  ILE288      0.2593
     54  O         -3.0290  -56.2700   22.0540 O.2   288  ILE288     -0.2718
     55  CB        -0.7990  -57.7090   23.3590 C.3   288  ILE288      0.0266
     56  CG1       -0.1560  -58.5710   24.4790 C.3   288  ILE288      0.0019
     57  CG2        0.2800  -57.1490   22.4200 C.3   288  ILE288      0.0020
     58  CD1        0.2880  -59.9810   23.8820 C.3   288  ILE288      0.0001
     59  N         -1.8430  -54.4480   22.7960 N.am  289  THR289     -0.1939
     60  CA        -2.3560  -53.5290   21.8100 C.3   289  THR289      0.2028
     61  C         -1.1520  -52.9680   21.0810 C.2   289  THR289      0.2643
     62  O         -0.8490  -53.3820   19.9620 O.2   289  THR289     -0.2714
     63  CB        -3.2260  -52.4670   22.4490 C.3   289  THR289      0.1808
     64  OG1       -4.3610  -53.1230   23.0110 O.3   289  THR289     -0.2208
     65  CG2       -3.7360  -51.4240   21.3990 C.3   289  THR289      0.0379
     66  N         -0.4000  -52.0320   21.6590 N.am  290  SER290     -0.1935
     67  CA         0.8110  -51.4780   21.0460 C.3   290  SER290      0.2055
     68  C          2.0710  -52.2930   21.3010 C.2   290  SER290      0.2643
     69  O          3.0440  -52.0580   20.6570 O.2   290  SER290     -0.2714
     70  CB         1.0100  -50.0750   21.5790 C.3   290  SER290      0.2130
     71  OG         1.2490  -50.0680   22.9790 O.3   290  SER290     -0.2179
     72  N          2.0490  -53.0670   22.3730 N.am  291  GLY291     -0.1954
     73  CA         3.2660  -53.7330   22.7970 C.3   291  GLY291      0.1869
     74  C          3.9930  -52.9590   23.8430 C.2   291  GLY291      0.2309
     75  O          5.0150  -53.4850   24.3590 O.2   291  GLY291     -0.2863
     76  N          6.8650  -57.0530   25.7100 N.3   323  ALA323     -0.1245
     77  CA         6.8950  -57.3410   24.2830 C.3   323  ALA323      0.1562
     78  C          8.1680  -56.9830   23.6030 C.2   323  ALA323      0.2260
     79  O          8.2740  -57.1320   22.4180 O.2   323  ALA323     -0.2867
     80  CB         5.6810  -56.6350   23.5720 C.3   323  ALA323      0.0290
@<TRIPOS>BOND
     1    13    14    1
     2    15    14    1
     3    15    16    2
     4    14    17    1
     5    17    18    1
     6     7     6    1
     7     7     1    1
     8    18    20    1
     9    18    19    1
    10     6     5    1
    11     1     2    1
    12     5     2    1
    13     2     3    1
    14    48    50   ar
    15    48    46   ar
    16    35    36    2
    17    35    34    1
    18    50    49   ar
    19    45    46   ar
    20    45    43   ar
    21    46    44   ar
    22     3     4    2
    23    34    33    1
    24    49    47   ar
    25    43    42   ar
    26    44    47   ar
    27    44    42   ar
    28    37    38    1
    29    29    28    2
    30    42    41    1
    31    33    28   am
    32     8     9    1
    33    28    27    1
    34    38    41    1
    35    38    39    1
    36     9    12    1
    37     9    10    1
    38    31    30    1
    39    39    40    2
    40    24    23    2
    41    27    30    1
    42    27    26    1
    43    30    32    1
    44    10    11    2
    45    23    22    1
    46    25    22    1
    47    22    21    1
    48    62    61    2
    49    69    68    2
    50    67    68    1
    51    67    70    1
    52    67    66    1
    53    61    66   am
    54    61    60    1
    55    68    72   am
    56    65    63    1
    57    70    71    1
    58    60    63    1
    59    60    59    1
    60    54    53    2
    61    72    73    1
    62    79    78    2
    63    57    55    1
    64    63    64    1
    65    59    53   am
    66    73    74    1
    67    53    52    1
    68    55    52    1
    69    55    56    1
    70    80    77    1
    71    78    77    1
    72    74    75    2
    73    58    56    1
    74    52    51    1
    75    77    76    1
