@<TRIPOS>MOLECULE
tmp/5ksgB03.pdb
 97 90 0 0 0
SMALL
GASTEIGER

@<TRIPOS>ATOM
      1  N        -20.0660  -43.1100   -2.9890 N.3    21  HIS21      -0.1241
      2  CA       -21.0220  -42.3890   -2.2180 C.3    21  HIS21       0.1621
      3  C        -22.2900  -42.1140   -3.0500 C.2    21  HIS21       0.2264
      4  O        -23.0320  -41.2680   -2.7650 O.2    21  HIS21      -0.2867
      5  CB       -20.2760  -41.1900   -1.4210 C.3    21  HIS21       0.0745
      6  CG       -18.9660  -41.6400   -0.7790 C.ar   21  HIS21       0.0817
      7  ND1      -18.9230  -42.4920    0.3340 N.ar   21  HIS21      -0.2268
      8  CD2      -17.6510  -41.4310   -1.1310 C.ar   21  HIS21       0.1154
      9  CE1      -17.6460  -42.7830    0.6360 C.ar   21  HIS21       0.1986
     10  NE2      -16.8550  -42.2220   -0.2920 N.ar   21  HIS21      -0.2212
     11  N         -8.4050  -34.4660    3.9840 N.3    89  ARG89      -0.1245
     12  CA        -8.8660  -35.8320    4.0180 C.3    89  ARG89       0.1563
     13  C         -8.5530  -36.4120    5.4520 C.2    89  ARG89       0.2260
     14  O         -7.7660  -35.8740    6.2090 O.2    89  ARG89      -0.2867
     15  CB        -8.3780  -36.6690    2.8950 C.3    89  ARG89       0.0307
     16  CG        -8.9260  -36.2070    1.5740 C.3    89  ARG89       0.0489
     17  CD        -8.5510  -37.1230    0.4190 C.3    89  ARG89       0.2205
     18  NE        -9.1730  -36.7830   -0.8870 N.pl3  89  ARG89      -0.0865
     19  CZ        -8.4900  -36.0690   -1.7670 C.cat  89  ARG89       0.5346
     20  NH1       -7.2590  -35.6880   -1.6690 N.pl3  89  ARG89       0.1354
     21  NH2       -9.1810  -35.8080   -2.9170 N.pl3  89  ARG89       0.1354
     22  N        -16.6060  -38.3470    8.9350 N.3    94  GLU94      -0.1245
     23  CA       -17.3630  -39.3170    8.1830 C.3    94  GLU94       0.1567
     24  C        -17.4650  -40.6630    8.8630 C.2    94  GLU94       0.2260
     25  O        -17.9980  -41.6190    8.3190 O.2    94  GLU94      -0.2867
     26  CB       -16.7530  -39.4870    6.8210 C.3    94  GLU94       0.0388
     27  CG       -16.7470  -38.1930    6.0230 C.3    94  GLU94       0.1160
     28  CD       -16.0950  -38.3190    4.6170 C.2    94  GLU94       0.3649
     29  OE1      -15.8630  -39.4060    4.1290 O.co2  94  GLU94      -0.2457
     30  OE2      -15.5610  -37.2720    4.1640 O.co2  94  GLU94      -0.2457
     31  N        -13.6560  -44.3180    2.0130 N.3   164  GLU164     -0.1231
     32  CA       -13.1950  -43.1720    1.2640 C.3   164  GLU164      0.1699
     33  C        -11.9580  -43.5710    0.4580 C.2   164  GLU164      0.2592
     34  O        -11.2350  -44.4800    0.8610 O.2   164  GLU164     -0.2718
     35  CB       -12.8270  -42.0440    2.1150 C.3   164  GLU164      0.0402
     36  CG       -13.9890  -41.2310    2.4240 C.3   164  GLU164      0.1161
     37  CD       -14.5820  -40.4500    1.2220 C.2   164  GLU164      0.3649
     38  OE1      -14.4070  -40.7470   -0.0890 O.co2 164  GLU164     -0.2457
     39  OE2      -15.3620  -39.5070    1.6510 O.co2 164  GLU164     -0.2457
     40  N        -11.7180  -42.9430   -0.6740 N.am  165  ASP165     -0.1960
     41  CA       -10.5020  -43.1770   -1.4100 C.3   165  ASP165      0.1840
     42  C         -9.4800  -42.1200   -1.0330 C.2   165  ASP165      0.2621
     43  O         -9.7780  -40.8430   -1.2170 O.2   165  ASP165     -0.2715
     44  CB       -10.8650  -42.9940   -2.8590 C.3   165  ASP165      0.1450
     45  CG       -11.7140  -44.1710   -3.3520 C.2   165  ASP165      0.3671
     46  OD1      -11.2730  -45.3290   -3.3270 O.co2 165  ASP165     -0.2456
     47  OD2      -12.9470  -43.7230   -3.5950 O.co2 165  ASP165     -0.2456
     48  N         -8.5390  -42.5230   -0.1830 N.am  166  VAL166     -0.1977
     49  CA        -7.5470  -41.6350    0.3180 C.3   166  VAL166      0.1596
     50  C         -6.1410  -42.2520    0.0330 C.2   166  VAL166      0.2287
     51  O         -5.9410  -43.4490    0.2260 O.2   166  VAL166     -0.2864
     52  CB        -7.6570  -41.4850    1.8440 C.3   166  VAL166      0.0276
     53  CG1       -6.5870  -40.5370    2.3360 C.3   166  VAL166      0.0022
     54  CG2       -9.0360  -41.0240    2.1990 C.3   166  VAL166      0.0022
     55  N        -14.6020  -30.6130   -0.0800 N.3   459  GLY459     -0.1210
     56  CA       -15.5640  -31.3280    0.7080 C.3   459  GLY459      0.1956
     57  C        -14.9480  -32.2450    1.7770 C.2   459  GLY459      0.2612
     58  O        -15.7240  -32.6860    2.6580 O.2   459  GLY459     -0.2717
     59  N        -13.6830  -32.5020    1.7040 N.am  460  SER460     -0.1952
     60  CA       -12.9980  -33.3570    2.6490 C.3   460  SER460      0.1924
     61  C        -13.0770  -32.7730    4.0730 C.2   460  SER460      0.2314
     62  O        -13.3660  -33.5120    5.0560 O.2   460  SER460     -0.2863
     63  CB       -11.5950  -33.5410    2.1730 C.3   460  SER460      0.2116
     64  OG       -11.0390  -32.2080    2.0740 O.3   460  SER460     -0.2180
     65  N        -14.5820  -29.3270    4.3300 N.3   462  LYS462     -0.1245
     66  CA       -15.5590  -28.3020    4.1400 C.3   462  LYS462      0.1561
     67  C        -14.9660  -26.9270    4.3830 C.2   462  LYS462      0.2260
     68  O        -15.6870  -25.9860    4.7150 O.2   462  LYS462     -0.2867
     69  CB       -16.8530  -28.5690    4.8960 C.3   462  LYS462      0.0271
     70  CG       -17.5140  -29.8670    4.3690 C.3   462  LYS462      0.0035
     71  CD       -18.3890  -30.4920    5.3020 C.3   462  LYS462      0.0206
     72  CE       -19.1700  -31.7590    4.8070 C.3   462  LYS462      0.1093
     73  NZ       -18.3460  -32.6760    4.2440 N.3   462  LYS462     -0.1314
     74  N        -12.5590  -34.4920   -7.0690 N.3   588  GLN588     -0.1231
     75  CA       -13.1430  -35.1630   -5.9250 C.3   588  GLN588      0.1698
     76  C        -13.3420  -34.1770   -4.7940 C.2   588  GLN588      0.2592
     77  O        -14.4020  -34.1640   -4.1530 O.2   588  GLN588     -0.2718
     78  CB       -12.2350  -36.3390   -5.5890 C.3   588  GLN588      0.0381
     79  CG       -12.8700  -37.2590   -4.6440 C.3   588  GLN588      0.0905
     80  CD       -12.8740  -36.8860   -3.2320 C.2   588  GLN588      0.2608
     81  OE1      -11.9990  -36.1610   -2.7370 O.2   588  GLN588     -0.2717
     82  NE2      -13.9320  -37.2920   -2.5540 N.am  588  GLN588     -0.0878
     83  N        -12.3580  -33.3100   -4.5440 N.am  589  LEU589     -0.1980
     84  CA       -12.5080  -32.2900   -3.4960 C.3   589  LEU589      0.1596
     85  C        -13.6740  -31.3420   -3.7460 C.2   589  LEU589      0.2287
     86  O        -14.3780  -30.8720   -2.8150 O.2   589  LEU589     -0.2864
     87  CB       -11.2290  -31.5550   -3.3250 C.3   589  LEU589      0.0297
     88  CG        -9.9950  -32.2940   -2.7660 C.3   589  LEU589      0.0022
     89  CD1       -8.8020  -31.4050   -2.7130 C.3   589  LEU589      0.0001
     90  CD2      -10.3260  -32.9850   -1.4530 C.3   589  LEU589      0.0001
     91  N        -16.3480  -32.1850   -5.2030 N.3   591  THR591     -0.1218
     92  CA       -17.5260  -33.0030   -5.1420 C.3   591  THR591      0.1862
     93  C        -18.1710  -33.3060   -6.5180 C.2   591  THR591      0.2287
     94  O        -19.3700  -33.6070   -6.6250 O.2   591  THR591     -0.2866
     95  CB       -18.6440  -32.5930   -4.1290 C.3   591  THR591      0.1770
     96  OG1      -19.3890  -31.4420   -4.5400 O.3   591  THR591     -0.2211
     97  CG2      -18.0060  -32.2790   -2.7900 C.3   591  THR591      0.0375
@<TRIPOS>BOND
     1    74    75    1
     2    94    93    2
     3    93    92    1
     4    75    78    1
     5    75    76    1
     6    78    79    1
     7    91    92    1
     8    92    95    1
     9    76    83   am
    10    76    77    2
    11    79    80    1
    12    83    84    1
    13    96    95    1
    14    95    97    1
    15    85    84    1
    16    85    86    2
    17    47    45   ar
    18    84    87    1
    19    45    46   ar
    20    45    44    1
    21    87    88    1
    22    80    81    2
    23    80    82   am
    24     3     4    2
    25     3     2    1
    26     1     2    1
    27    21    19    1
    28    44    41    1
    29    88    89    1
    30    88    90    1
    31     2     5    1
    32    19    20    1
    33    19    18    2
    34     5     6    1
    35    41    42    1
    36    41    40    1
    37    43    42    2
    38     8     6   ar
    39     8    10   ar
    40    42    48   am
    41    18    17    1
    42     6     7   ar
    43    40    33   am
    44    10     9   ar
    45    48    49    1
    46    38    37   ar
    47    55    56    1
    48    50    51    2
    49    50    49    1
    50    49    52    1
    51     7     9   ar
    52    17    16    1
    53    33    34    2
    54    33    32    1
    55    56    57    1
    56    37    39   ar
    57    37    36    1
    58    32    31    1
    59    32    35    1
    60    16    15    1
    61    59    57   am
    62    59    60    1
    63    57    58    2
    64    52    54    1
    65    52    53    1
    66    64    63    1
    67    35    36    1
    68    63    60    1
    69    60    61    1
    70    15    12    1
    71    11    12    1
    72    12    13    1
    73    61    62    2
    74    29    28   ar
    75    66    65    1
    76    66    67    1
    77    66    69    1
    78    30    28   ar
    79    73    72    1
    80    70    69    1
    81    70    71    1
    82    67    68    2
    83    28    27    1
    84    72    71    1
    85    13    14    2
    86    27    26    1
    87    26    23    1
    88    23    24    1
    89    23    22    1
    90    25    24    2
