@<TRIPOS>MOLECULE
tmp/5ksxA00.pdb
 102 97 0 0 0
SMALL
GASTEIGER

@<TRIPOS>ATOM
      1  N          5.4000   67.1600   44.6470 N.3   303  LEU303     -0.1245
      2  CA         3.9640   67.0030   44.8930 C.3   303  LEU303      0.1561
      3  C          3.4500   67.9960   45.9070 C.2   303  LEU303      0.2260
      4  O          2.5370   68.7380   45.6210 O.2   303  LEU303     -0.2867
      5  CB         3.6810   65.6130   45.4170 C.3   303  LEU303      0.0270
      6  CG         3.2830   64.5520   44.3890 C.3   303  LEU303      0.0019
      7  CD1        4.1190   64.5310   43.1010 C.3   303  LEU303      0.0001
      8  CD2        3.3240   63.1930   45.1020 C.3   303  LEU303      0.0001
      9  N          3.6530   71.3460   44.2030 N.3   306  GLU306     -0.1231
     10  CA         2.6180   71.4590   43.1420 C.3   306  GLU306      0.1699
     11  C          1.2320   71.7480   43.6980 C.2   306  GLU306      0.2592
     12  O          0.4500   72.4790   43.0750 O.2   306  GLU306     -0.2718
     13  CB         2.5680   70.2060   42.2680 C.3   306  GLU306      0.0402
     14  CG         1.5790   70.2360   41.1100 C.3   306  GLU306      0.1161
     15  CD         1.7920   69.1060   40.0830 C.2   306  GLU306      0.3649
     16  OE1        2.4390   68.0530   40.4520 O.co2 306  GLU306     -0.2457
     17  OE2        1.2640   69.2580   38.9080 O.co2 306  GLU306     -0.2457
     18  N          0.9570   71.2270   44.8870 N.am  307  GLU307     -0.1979
     19  CA        -0.3200   71.4540   45.5430 C.3   307  GLU307      0.1602
     20  C         -0.4310   72.9130   45.9690 C.2   307  GLU307      0.2287
     21  O         -1.3810   73.6590   45.5600 O.2   307  GLU307     -0.2864
     22  CB        -0.4610   70.5330   46.7240 C.3   307  GLU307      0.0415
     23  CG        -0.5740   69.0880   46.2820 C.3   307  GLU307      0.1163
     24  CD        -0.1730   68.1170   47.3720 C.2   307  GLU307      0.3649
     25  OE1       -0.1800   68.5850   48.5420 O.co2 307  GLU307     -0.2457
     26  OE2        0.1210   66.9130   47.0710 O.co2 307  GLU307     -0.2457
     27  N         -0.5980   75.1330   43.0980 N.3   310  TYR310     -0.1241
     28  CA        -1.9000   75.1560   42.5180 C.3   310  TYR310      0.1605
     29  C         -2.8660   76.0870   43.3010 C.2   310  TYR310      0.2264
     30  O         -3.4950   76.9290   42.7180 O.2   310  TYR310     -0.2867
     31  CB        -2.4010   73.7350   42.3440 C.3   310  TYR310      0.0534
     32  CG        -3.7390   73.6870   41.7110 C.ar  310  TYR310     -0.0201
     33  CD1       -3.8940   73.7040   40.3310 C.ar  310  TYR310     -0.0009
     34  CD2       -4.8770   73.6670   42.5120 C.ar  310  TYR310     -0.0009
     35  CE1       -5.1570   73.6760   39.7630 C.ar  310  TYR310      0.0417
     36  CE2       -6.1460   73.6260   41.9700 C.ar  310  TYR310      0.0417
     37  CZ        -6.2980   73.6360   40.6020 C.ar  310  TYR310      0.1957
     38  OH        -7.6180   73.5810   40.1410 O.3   310  TYR310     -0.2866
     39  N         -4.5660   79.8070   41.8550 N.3   314  MET314     -0.1245
     40  CA        -5.9830   80.0670   41.8880 C.3   314  MET314      0.1570
     41  C         -6.2890   81.3170   42.7300 C.2   314  MET314      0.2261
     42  O         -7.0460   82.1990   42.3130 O.2   314  MET314     -0.2867
     43  CB        -6.7130   78.8300   42.3550 C.3   314  MET314      0.0387
     44  CG        -6.5670   77.6390   41.4120 C.3   314  MET314      0.0595
     45  SD        -7.2410   77.9640   39.7860 S.3   314  MET314     -0.1393
     46  CE        -6.3620   76.8430   38.7520 C.3   314  MET314      0.0692
     47  N         -6.7750   80.5420   33.3810 N.3   330  LEU330     -0.1245
     48  CA        -7.0790   79.1290   33.5790 C.3   330  LEU330      0.1561
     49  C         -6.7220   78.3290   32.3670 C.2   330  LEU330      0.2260
     50  O         -6.3830   77.1750   32.4940 O.2   330  LEU330     -0.2867
     51  CB        -8.5410   78.9050   33.8720 C.3   330  LEU330      0.0270
     52  CG        -9.0300   79.5610   35.1670 C.3   330  LEU330      0.0019
     53  CD1      -10.5640   79.6270   35.1330 C.3   330  LEU330      0.0001
     54  CD2       -8.5100   78.8710   36.4350 C.3   330  LEU330      0.0001
     55  N         -3.2000   77.5300   33.0580 N.3   333  ALA333     -0.1231
     56  CA        -3.0160   76.6070   34.1730 C.3   333  ALA333      0.1694
     57  C         -3.4600   75.1570   33.7710 C.2   333  ALA333      0.2591
     58  O         -2.8470   74.1980   34.0700 O.2   333  ALA333     -0.2718
     59  CB        -3.7310   77.0930   35.4120 C.3   333  ALA333      0.0304
     60  N         -4.5010   75.0460   33.0040 N.am  334  ARG334     -0.1980
     61  CA        -4.8870   73.8030   32.4370 C.3   334  ARG334      0.1597
     62  C         -3.7150   73.1110   31.6970 C.2   334  ARG334      0.2287
     63  O         -3.5470   71.9090   31.7950 O.2   334  ARG334     -0.2864
     64  CB        -6.0690   74.0780   31.4900 C.3   334  ARG334      0.0334
     65  CG        -6.9860   72.9200   31.2480 C.3   334  ARG334      0.0492
     66  CD        -6.8560   72.3750   29.8470 C.3   334  ARG334      0.2205
     67  NE        -7.6170   71.1130   29.7570 N.pl3 334  ARG334     -0.0865
     68  CZ        -7.1470   69.9400   29.3130 C.cat 334  ARG334      0.5346
     69  NH1       -5.8940   69.8020   28.8720 N.pl3 334  ARG334      0.1354
     70  NH2       -7.9540   68.8870   29.2850 N.pl3 334  ARG334      0.1354
     71  N         -0.8350   72.1120   35.0220 N.3   337  TYR337     -0.1227
     72  CA        -1.1420   71.3070   36.2150 C.3   337  TYR337      0.1736
     73  C         -1.9220   69.9240   36.0950 C.2   337  TYR337      0.2595
     74  O         -2.8710   69.7500   36.8760 O.2   337  TYR337     -0.2718
     75  CB        -1.9210   72.1990   37.2080 C.3   337  TYR337      0.0548
     76  CG        -1.1660   73.3850   37.7690 C.ar  337  TYR337     -0.0200
     77  CD1       -1.1930   74.6140   37.1400 C.ar  337  TYR337     -0.0009
     78  CD2       -0.4160   73.2630   38.9530 C.ar  337  TYR337     -0.0009
     79  CE1       -0.4910   75.6840   37.6590 C.ar  337  TYR337      0.0417
     80  CE2        0.2860   74.3330   39.4990 C.ar  337  TYR337      0.0417
     81  CZ         0.2390   75.5530   38.8620 C.ar  337  TYR337      0.1957
     82  OH         0.9350   76.6710   39.3760 O.3   337  TYR337     -0.2866
     83  N         -1.5430   68.9390   35.2320 N.am  338  LYS338     -0.1966
     84  CA        -2.2640   67.6050   35.1720 C.3   338  LYS338      0.1728
     85  C         -2.4750   66.9810   36.5840 C.2   338  LYS338      0.2616
     86  O         -1.6350   67.1920   37.4580 O.2   338  LYS338     -0.2715
     87  CB        -1.5500   66.5850   34.2440 C.3   338  LYS338      0.0311
     88  CG        -1.2930   67.1020   32.8340 C.3   338  LYS338      0.0038
     89  CD        -2.5820   67.2600   32.0440 C.3   338  LYS338      0.0206
     90  CE        -2.3420   67.8470   30.6650 C.3   338  LYS338      0.1093
     91  NZ        -2.2500   69.3340   30.6850 N.3   338  LYS338     -0.1314
     92  N         -3.5770   66.2380   36.8040 N.am  339  ARG339     -0.1977
     93  CA        -3.9940   65.7570   38.1790 C.3   339  ARG339      0.1597
     94  C         -3.1480   64.5930   38.6860 C.2   339  ARG339      0.2287
     95  O         -3.1570   63.5250   38.1010 O.2   339  ARG339     -0.2864
     96  CB        -5.5110   65.4190   38.2770 C.3   339  ARG339      0.0334
     97  CG        -6.4690   66.6120   38.1420 C.3   339  ARG339      0.0492
     98  CD        -6.3130   67.5050   39.3400 C.3   339  ARG339      0.2205
     99  NE        -7.2310   68.6490   39.2750 N.pl3 339  ARG339     -0.0865
    100  CZ        -6.7970   69.8760   38.9520 C.cat 339  ARG339      0.5346
    101  NH1       -5.4900   70.1800   38.7330 N.pl3 339  ARG339      0.1354
    102  NH2       -7.7040   70.8510   38.9300 N.pl3 339  ARG339      0.1354
@<TRIPOS>BOND
     1    69    68    1
     2    70    68    1
     3    68    67    2
     4    67    66    1
     5    66    65    1
     6    90    91    1
     7    90    89    1
     8    65    64    1
     9    64    61    1
    10    62    63    2
    11    62    61    1
    12    89    88    1
    13    49    50    2
    14    49    48    1
    15    61    60    1
    16    88    87    1
    17    60    57   am
    18    55    56    1
    19    47    48    1
    20    48    51    1
    21    57    58    2
    22    57    56    1
    23    51    52    1
    24    56    59    1
    25    87    84    1
    26    71    72    1
    27    53    52    1
    28    52    54    1
    29    84    83    1
    30    84    85    1
    31    83    73   am
    32    73    72    1
    33    73    74    2
    34    72    75    1
    35    85    92   am
    36    85    86    2
    37    92    93    1
    38    77    79   ar
    39    77    76   ar
    40    75    76    1
    41    79    81   ar
    42    76    78   ar
    43    95    94    2
    44    97    96    1
    45    97    98    1
    46    93    96    1
    47    93    94    1
    48   101   100    1
    49    46    45    1
    50    81    82    1
    51    81    80   ar
    52    17    15   ar
    53   102   100    1
    54   100    99    2
    55    78    80   ar
    56    99    98    1
    57    35    33   ar
    58    35    37   ar
    59    45    44    1
    60    15    16   ar
    61    15    14    1
    62    38    37    1
    63    33    32   ar
    64    37    36   ar
    65    14    13    1
    66    44    43    1
    67    32    31    1
    68    32    34   ar
    69    39    40    1
    70    40    43    1
    71    40    41    1
    72    36    34   ar
    73    13    10    1
    74    42    41    2
    75    31    28    1
    76    28    27    1
    77    28    29    1
    78    30    29    2
    79    12    11    2
    80     7     6    1
    81    10    11    1
    82    10     9    1
    83    11    18   am
    84     6     8    1
    85     6     5    1
    86     1     2    1
    87    18    19    1
    88     2     5    1
    89     2     3    1
    90    19    20    1
    91    19    22    1
    92    21    20    2
    93     4     3    2
    94    23    22    1
    95    23    24    1
    96    26    24   ar
    97    24    25   ar
