@<TRIPOS>MOLECULE
tmp/5ksxA01.pdb
 151 142 0 0 0
SMALL
GASTEIGER

@<TRIPOS>ATOM
      1  N         -7.0410   75.6440   22.5880 N.3     2  TYR2       -0.1241
      2  CA        -5.6730   75.5090   21.9220 C.3     2  TYR2        0.1605
      3  C         -5.6130   74.4890   20.7680 C.2     2  TYR2        0.2264
      4  O         -5.1050   74.8250   19.6780 O.2     2  TYR2       -0.2867
      5  CB        -4.4990   75.1790   22.9210 C.3     2  TYR2        0.0534
      6  CG        -4.0360   76.3350   23.8090 C.ar    2  TYR2       -0.0201
      7  CD1       -4.8660   76.8370   24.8390 C.ar    2  TYR2       -0.0009
      8  CD2       -2.7730   76.9180   23.6560 C.ar    2  TYR2       -0.0009
      9  CE1       -4.4480   77.8930   25.6580 C.ar    2  TYR2        0.0417
     10  CE2       -2.3500   77.9660   24.4750 C.ar    2  TYR2        0.0417
     11  CZ        -3.1900   78.4400   25.4590 C.ar    2  TYR2        0.1957
     12  OH        -2.8040   79.4470   26.2640 O.3     2  TYR2       -0.2866
     13  N          5.8890   72.8550   20.0400 N.3    46  LYS46      -0.1245
     14  CA         4.4480   72.7470   20.2800 C.3    46  LYS46       0.1561
     15  C          3.6960   74.0810   20.1590 C.2    46  LYS46       0.2260
     16  O          2.5080   74.0700   20.3220 O.2    46  LYS46      -0.2867
     17  CB         4.1420   72.2030   21.6690 C.3    46  LYS46       0.0271
     18  CG         5.0030   71.0580   22.1610 C.3    46  LYS46       0.0035
     19  CD         5.8770   71.5040   23.3360 C.3    46  LYS46       0.0206
     20  CE         7.0730   70.5650   23.5820 C.3    46  LYS46       0.1093
     21  NZ         7.4540   70.3390   25.0190 N.3    46  LYS46      -0.1314
     22  N          3.0110   76.6890   21.9250 N.3    48  ASN48      -0.1225
     23  CA         2.1580   77.1000   23.0350 C.3    48  ASN48       0.1785
     24  C          2.2270   78.5830   23.3400 C.2    48  ASN48       0.2597
     25  O          1.2410   79.2030   23.6570 O.2    48  ASN48      -0.2718
     26  CB         2.4740   76.2880   24.2850 C.3    48  ASN48       0.1169
     27  CG         2.0140   74.7960   24.1820 C.2    48  ASN48       0.2627
     28  OD1        0.9090   74.5020   23.8390 O.2    48  ASN48      -0.2716
     29  ND2        2.8900   73.8840   24.5050 N.am   48  ASN48      -0.0877
     30  N          3.3790   79.1700   23.1860 N.am   49  ARG49      -0.1979
     31  CA         3.5330   80.5780   23.4550 C.3    49  ARG49       0.1597
     32  C          2.8390   81.4230   22.4160 C.2    49  ARG49       0.2287
     33  O          2.0260   82.2870   22.7890 O.2    49  ARG49      -0.2864
     34  CB         4.9880   80.9410   23.5460 C.3    49  ARG49       0.0334
     35  CG         5.6620   80.3360   24.7580 C.3    49  ARG49       0.0492
     36  CD         7.1810   80.5070   24.6260 C.3    49  ARG49       0.2205
     37  NE         7.8950   79.8430   25.6920 N.pl3  49  ARG49      -0.0865
     38  CZ         8.0130   78.5430   25.7830 C.cat  49  ARG49       0.5346
     39  NH1        7.5010   77.7170   24.8690 N.pl3  49  ARG49       0.1354
     40  NH2        8.6360   78.0520   26.8380 N.pl3  49  ARG49       0.1354
     41  N         -0.8850   81.1690   22.6590 N.3    52  THR52      -0.1218
     42  CA        -1.4460   81.8340   23.7660 C.3    52  THR52       0.1862
     43  C         -1.8720   83.2320   23.3250 C.2    52  THR52       0.2287
     44  O         -2.8320   83.7840   23.8690 O.2    52  THR52      -0.2866
     45  CB        -0.4500   81.8770   24.9210 C.3    52  THR52       0.1770
     46  OG1       -0.2590   80.5610   25.4120 O.3    52  THR52      -0.2211
     47  CG2       -0.9570   82.6770   26.0720 C.3    52  THR52       0.0375
     48  N          7.6750   83.5990   28.4780 N.3   193  SER193     -0.1202
     49  CA         6.9060   82.4240   28.1220 C.3   193  SER193      0.2020
     50  C          5.4750   82.6170   28.5480 C.2   193  SER193      0.2618
     51  O          4.5830   82.1320   27.8440 O.2   193  SER193     -0.2717
     52  CB         7.4950   81.1600   28.6830 C.3   193  SER193      0.2103
     53  OG         8.8090   80.9800   28.2230 O.3   193  SER193     -0.2182
     54  N          5.2630   83.3450   29.6650 N.am  194  PHE194     -0.1975
     55  CA         3.9510   83.5320   30.2570 C.3   194  PHE194      0.1639
     56  C          3.4380   84.9300   30.1850 C.2   194  PHE194      0.2290
     57  O          2.2500   85.1150   29.7790 O.2   194  PHE194     -0.2864
     58  CB         3.9680   83.0040   31.6880 C.3   194  PHE194      0.0560
     59  CG         4.0700   81.5260   31.7160 C.ar  194  PHE194     -0.0200
     60  CD1        5.3130   80.9160   31.5940 C.ar  194  PHE194     -0.0042
     61  CD2        2.9250   80.7520   31.6740 C.ar  194  PHE194     -0.0042
     62  CE1        5.3930   79.5320   31.5040 C.ar  194  PHE194     -0.0003
     63  CE2        2.9950   79.3950   31.6170 C.ar  194  PHE194     -0.0003
     64  CZ         4.2310   78.7850   31.5210 C.ar  194  PHE194     -0.0000
     65  N          5.9440   76.2040   36.0340 N.3   227  PHE227     -0.1241
     66  CA         6.1700   75.5080   34.8010 C.3   227  PHE227      0.1605
     67  C          7.5750   75.0080   34.7460 C.2   227  PHE227      0.2264
     68  O          7.8260   73.8600   34.4260 O.2   227  PHE227     -0.2867
     69  CB         5.9210   76.4450   33.6480 C.3   227  PHE227      0.0534
     70  CG         6.3480   75.9060   32.3260 C.ar  227  PHE227     -0.0203
     71  CD1        5.6360   74.8930   31.7280 C.ar  227  PHE227     -0.0042
     72  CD2        7.4540   76.4180   31.6900 C.ar  227  PHE227     -0.0042
     73  CE1        6.0290   74.3780   30.5280 C.ar  227  PHE227     -0.0003
     74  CE2        7.8510   75.9210   30.4680 C.ar  227  PHE227     -0.0003
     75  CZ         7.1350   74.8930   29.8930 C.ar  227  PHE227     -0.0000
     76  N          8.4100   72.2320   37.2730 N.3   230  GLN230     -0.1245
     77  CA         7.9160   70.9590   36.8150 C.3   230  GLN230      0.1566
     78  C          8.8680   70.4260   35.7240 C.2   230  GLN230      0.2260
     79  O          9.1970   69.2520   35.6870 O.2   230  GLN230     -0.2867
     80  CB         6.4710   71.0840   36.3630 C.3   230  GLN230      0.0367
     81  CG         5.8620   69.8540   35.6920 C.3   230  GLN230      0.0905
     82  CD         4.3880   70.0190   35.3840 C.2   230  GLN230      0.2608
     83  OE1        4.0060   70.6920   34.4370 O.2   230  GLN230     -0.2717
     84  NE2        3.5530   69.4070   36.1850 N.am  230  GLN230     -0.0878
     85  N         10.5180   66.6720   35.8140 N.3   234  LEU234     -0.1245
     86  CA        10.3300   65.7320   34.7280 C.3   234  LEU234      0.1561
     87  C         11.5810   65.4570   33.8930 C.2   234  LEU234      0.2260
     88  O         11.6330   64.4560   33.2000 O.2   234  LEU234     -0.2867
     89  CB         9.2770   66.2660   33.7350 C.3   234  LEU234      0.0270
     90  CG         7.7910   66.5470   34.0920 C.3   234  LEU234      0.0019
     91  CD1        7.0440   67.0700   32.8550 C.3   234  LEU234      0.0001
     92  CD2        7.1120   65.3160   34.6690 C.3   234  LEU234      0.0001
     93  N          6.5050   59.3700   27.6800 N.3   242  VAL242     -0.1231
     94  CA         5.4560   60.4110   27.6990 C.3   242  VAL242      0.1692
     95  C          6.1900   61.6120   27.1190 C.2   242  VAL242      0.2592
     96  O          5.9960   61.9340   25.9480 O.2   242  VAL242     -0.2718
     97  CB         4.8350   60.6940   29.1270 C.3   242  VAL242      0.0266
     98  CG1        4.1810   62.0960   29.2410 C.3   242  VAL242      0.0020
     99  CG2        3.8340   59.5910   29.5080 C.3   242  VAL242      0.0020
    100  N          7.1060   62.1790   27.9220 N.am  243  THR243     -0.1953
    101  CA         7.7950   63.4470   27.6470 C.3   243  THR243      0.1897
    102  C          8.2650   63.6390   26.2060 C.2   243  THR243      0.2313
    103  O          7.9040   64.6140   25.6080 O.2   243  THR243     -0.2863
    104  CB         8.9950   63.6890   28.6250 C.3   243  THR243      0.1794
    105  OG1        9.8310   62.5170   28.7650 O.3   243  THR243     -0.2208
    106  CG2        8.4740   64.0850   29.9970 C.3   243  THR243      0.0378
    107  N         -4.2160   78.6040   30.5640 N.3   332  LEU332     -0.1245
    108  CA        -2.8100   78.2170   30.7790 C.3   332  LEU332      0.1561
    109  C         -2.5960   77.2690   31.9100 C.2   332  LEU332      0.2260
    110  O         -1.8510   76.3030   31.7440 O.2   332  LEU332     -0.2867
    111  CB        -1.9160   79.4300   31.0170 C.3   332  LEU332      0.0270
    112  CG        -1.8350   80.4700   29.9310 C.3   332  LEU332      0.0019
    113  CD1       -1.1590   81.7320   30.4480 C.3   332  LEU332      0.0001
    114  CD2       -1.0170   79.8710   28.8010 C.3   332  LEU332      0.0001
    115  N         -4.5010   75.0460   33.0040 N.3   334  ARG334     -0.1231
    116  CA        -4.8870   73.8030   32.4370 C.3   334  ARG334      0.1694
    117  C         -3.7150   73.1110   31.6970 C.2   334  ARG334      0.2592
    118  O         -3.5470   71.9090   31.7950 O.2   334  ARG334     -0.2718
    119  CB        -6.0690   74.0780   31.4900 C.3   334  ARG334      0.0321
    120  CG        -6.9860   72.9200   31.2480 C.3   334  ARG334      0.0489
    121  CD        -6.8560   72.3750   29.8470 C.3   334  ARG334      0.2205
    122  NE        -7.6170   71.1130   29.7570 N.pl3 334  ARG334     -0.0865
    123  CZ        -7.1470   69.9400   29.3130 C.cat 334  ARG334      0.5346
    124  NH1       -5.8940   69.8020   28.8720 N.pl3 334  ARG334      0.1354
    125  NH2       -7.9540   68.8870   29.2850 N.pl3 334  ARG334      0.1354
    126  N         -2.9060   73.8620   30.9700 N.am  335  LYS335     -0.1966
    127  CA        -1.8870   73.2440   30.1410 C.3   335  LYS335      0.1728
    128  C         -0.6750   72.7590   30.9640 C.2   335  LYS335      0.2616
    129  O          0.2810   72.2510   30.4290 O.2   335  LYS335     -0.2715
    130  CB        -1.4020   74.2090   29.0670 C.3   335  LYS335      0.0311
    131  CG        -2.5040   74.7570   28.2060 C.3   335  LYS335      0.0038
    132  CD        -2.0950   74.8810   26.7400 C.3   335  LYS335      0.0206
    133  CE        -2.7450   73.8470   25.8040 C.3   335  LYS335      0.1093
    134  NZ        -1.9690   72.5840   25.8100 N.3   335  LYS335     -0.1314
    135  N         -0.7390   72.8780   32.2670 N.am  336  ILE336     -0.1977
    136  CA         0.4280   72.8210   33.0860 C.3   336  ILE336      0.1596
    137  C          0.1020   71.7970   34.1330 C.2   336  ILE336      0.2287
    138  O          0.6320   70.7080   34.0740 O.2   336  ILE336     -0.2864
    139  CB         0.7280   74.2550   33.6550 C.3   336  ILE336      0.0276
    140  CG1        1.2420   75.2000   32.5440 C.3   336  ILE336      0.0022
    141  CG2        1.6960   74.2590   34.8430 C.3   336  ILE336      0.0022
    142  CD1        1.4940   76.5820   33.0860 C.3   336  ILE336      0.0001
    143  N         -1.5430   68.9390   35.2320 N.3   338  LYS338     -0.1245
    144  CA        -2.2640   67.6050   35.1720 C.3   338  LYS338      0.1561
    145  C         -2.4750   66.9810   36.5840 C.2   338  LYS338      0.2260
    146  O         -1.6350   67.1920   37.4580 O.2   338  LYS338     -0.2867
    147  CB        -1.5500   66.5850   34.2440 C.3   338  LYS338      0.0271
    148  CG        -1.2930   67.1020   32.8340 C.3   338  LYS338      0.0035
    149  CD        -2.5820   67.2600   32.0440 C.3   338  LYS338      0.0206
    150  CE        -2.3420   67.8470   30.6650 C.3   338  LYS338      0.1093
    151  NZ        -2.2500   69.3340   30.6850 N.3   338  LYS338     -0.1314
@<TRIPOS>BOND
     1     4     3    2
     2    13    14    1
     3    15    14    1
     4    15    16    2
     5    14    17    1
     6     3     2    1
     7    17    18    1
     8     2     1    1
     9     2     5    1
    10    22    23    1
    11    18    19    1
    12    32    33    2
    13    32    31    1
    14    41    42    1
    15     5     6    1
    16    23    24    1
    17    23    26    1
    18    30    24   am
    19    30    31    1
    20    43    42    1
    21    43    44    2
    22    19    20    1
    23    24    25    2
    24    31    34    1
    25    34    35    1
    26    20    21    1
    27     8     6   ar
    28     8    10   ar
    29    42    45    1
    30     6     7   ar
    31    28    27    2
    32    27    26    1
    33    27    29   am
    34    10    11   ar
    35    36    35    1
    36    36    37    1
    37     7     9   ar
    38    39    38    1
    39    45    46    1
    40    45    47    1
    41    11     9   ar
    42    11    12    1
    43   103   102    2
    44    37    38    2
    45    38    40    1
    46   133   134    1
    47   133   132    1
    48    96    95    2
    49   102   101    1
    50   132   131    1
    51    95    94    1
    52    95   100   am
    53   101   100    1
    54   101   104    1
    55    93    94    1
    56    94    97    1
    57    51    50    2
    58    49    48    1
    59    49    50    1
    60    49    52    1
    61   131   130    1
    62    53    52    1
    63    50    54   am
    64   104   105    1
    65   104   106    1
    66   114   112    1
    67   124   123    1
    68   130   127    1
    69    97    98    1
    70    97    99    1
    71   125   123    1
    72   123   122    2
    73    54    55    1
    74   122   121    1
    75    57    56    2
    76   121   120    1
    77    75    74   ar
    78    75    73   ar
    79   112   113    1
    80   112   111    1
    81   127   128    1
    82   127   126    1
    83    56    55    1
    84    55    58    1
    85   129   128    2
    86    74    72   ar
    87    73    71   ar
    88   107   108    1
    89   150   151    1
    90   150   149    1
    91   108   111    1
    92   108   109    1
    93   128   135   am
    94   126   117   am
    95   120   119    1
    96   119   116    1
    97    62    64   ar
    98    62    60   ar
    99    64    63   ar
   100    60    59   ar
   101    63    61   ar
   102    61    59   ar
   103    58    59    1
   104    72    70   ar
   105   117   118    2
   106   117   116    1
   107    71    70   ar
   108   110   109    2
   109   149   148    1
   110   135   136    1
   111    70    69    1
   112   116   115    1
   113   140   142    1
   114   140   139    1
   115   148   147    1
   116    91    90    1
   117   136   139    1
   118   136   137    1
   119    88    87    2
   120    69    66    1
   121   139   141    1
   122    89    90    1
   123    89    86    1
   124    87    86    1
   125   138   137    2
   126    90    92    1
   127   147   144    1
   128    68    67    2
   129    83    82    2
   130    86    85    1
   131    67    66    1
   132    66    65    1
   133   144   143    1
   134   144   145    1
   135    82    81    1
   136    82    84   am
   137    79    78    2
   138    81    80    1
   139    78    77    1
   140    80    77    1
   141   145   146    2
   142    77    76    1
