@<TRIPOS>MOLECULE
tmp/5kszA00.pdb
 178 170 0 0 0
SMALL
GASTEIGER

@<TRIPOS>ATOM
      1  N        -13.7440  -23.9910   10.0820 N.3   243  LYS243     -0.1231
      2  CA       -13.1570  -23.1140    9.0780 C.3   243  LYS243      0.1693
      3  C        -11.6340  -23.2370    9.0930 C.2   243  LYS243      0.2592
      4  O        -11.0110  -23.2350   10.1550 O.2   243  LYS243     -0.2718
      5  CB       -13.5900  -21.6600    9.2990 C.3   243  LYS243      0.0285
      6  CG       -12.9670  -20.6880    8.3070 C.3   243  LYS243      0.0035
      7  CD       -13.8120  -19.4410    8.1190 C.3   243  LYS243      0.0206
      8  CE       -13.4460  -18.7130    6.8310 C.3   243  LYS243      0.1093
      9  NZ       -13.2810  -19.6480    5.6880 N.3   243  LYS243     -0.1314
     10  N        -11.0540  -23.3690    7.9020 N.am  244  ASN244     -0.1960
     11  CA        -9.6110  -23.5230    7.7150 C.3   244  ASN244      0.1819
     12  C         -9.0410  -24.7550    8.4070 C.2   244  ASN244      0.2621
     13  O         -7.9510  -24.7030    8.9750 O.2   244  ASN244     -0.2715
     14  CB        -8.8640  -22.2730    8.1940 C.3   244  ASN244      0.1195
     15  CG        -9.0940  -21.0750    7.2930 C.2   244  ASN244      0.2630
     16  OD1       -9.9650  -20.2460    7.5560 O.2   244  ASN244     -0.2716
     17  ND2       -8.3180  -20.9820    6.2180 N.am  244  ASN244     -0.0877
     18  N         -9.7740  -25.8630    8.3540 N.am  245  CYS245     -0.1954
     19  CA        -9.2800  -27.1200    8.9050 C.3   245  CYS245      0.1843
     20  C         -8.6680  -27.9890    7.8100 C.2   245  CYS245      0.2626
     21  O         -8.2290  -29.1100    8.0670 O.2   245  CYS245     -0.2714
     22  CB       -10.3960  -27.8810    9.6220 C.3   245  CYS245      0.0997
     23  SG       -11.6670  -28.5750    8.5470 S.3   245  CYS245     -0.0797
     24  N         -8.6460  -27.4630    6.5890 N.am  246  GLY246     -0.1940
     25  CA        -8.0140  -28.1400    5.4710 C.3   246  GLY246      0.2014
     26  C         -8.9500  -28.9720    4.6130 C.2   246  GLY246      0.2639
     27  O         -8.5210  -29.9400    3.9830 O.2   246  GLY246     -0.2714
     28  N        -10.2260  -28.5960    4.5810 N.am  247  LYS247     -0.1963
     29  CA       -11.2190  -29.3170    3.7860 C.3   247  LYS247      0.1728
     30  C        -10.9350  -29.2050    2.2910 C.2   247  LYS247      0.2617
     31  O        -10.9240  -30.2080    1.5790 O.2   247  LYS247     -0.2715
     32  CB       -12.6290  -28.8030    4.0880 C.3   247  LYS247      0.0311
     33  CG       -13.1660  -29.2290    5.4440 C.3   247  LYS247      0.0038
     34  CD       -14.5560  -28.6680    5.6990 C.3   247  LYS247      0.0206
     35  CE       -14.5340  -27.1520    5.7890 C.3   247  LYS247      0.1093
     36  NZ       -15.8820  -26.6000    6.0930 N.3   247  LYS247     -0.1314
     37  N        -10.7080  -27.9820    1.8220 N.am  248  SER248     -0.1936
     38  CA       -10.4260  -27.7400    0.4100 C.3   248  SER248      0.2055
     39  C         -9.1620  -28.4680   -0.0340 C.2   248  SER248      0.2643
     40  O         -9.0460  -28.8790   -1.1860 O.2   248  SER248     -0.2714
     41  CB       -10.2910  -26.2410    0.1360 C.3   248  SER248      0.2130
     42  OG       -10.0060  -25.9990   -1.2290 O.3   248  SER248     -0.2179
     43  N         -8.2190  -28.6250    0.8880 N.am  249  GLY249     -0.1954
     44  CA        -6.9960  -29.3520    0.6070 C.3   249  GLY249      0.1869
     45  C         -7.2700  -30.8190    0.3490 C.2   249  GLY249      0.2309
     46  O         -6.5860  -31.4570   -0.4500 O.2   249  GLY249     -0.2863
     47  N         -0.1270  -29.1380   -2.1530 N.3   259  LEU259     -0.1245
     48  CA        -0.5270  -27.9360   -1.4290 C.3   259  LEU259      0.1561
     49  C          0.0050  -26.6780   -2.1090 C.2   259  LEU259      0.2260
     50  O         -0.6740  -25.6530   -2.1480 O.2   259  LEU259     -0.2867
     51  CB        -0.0430  -27.9860    0.0230 C.3   259  LEU259      0.0270
     52  CG        -0.4230  -26.7710    0.8750 C.3   259  LEU259      0.0019
     53  CD1       -1.9360  -26.6240    0.9640 C.3   259  LEU259      0.0001
     54  CD2        0.1910  -26.8520    2.2600 C.3   259  LEU259      0.0001
     55  N         -2.0600  -25.6870   -4.8920 N.3   262  GLN262     -0.1231
     56  CA        -3.3400  -25.1710   -4.4180 C.3   262  GLN262      0.1698
     57  C         -3.2730  -23.6920   -4.0440 C.2   262  GLN262      0.2592
     58  O         -4.2930  -23.0030   -4.0390 O.2   262  GLN262     -0.2718
     59  CB        -3.8270  -25.9780   -3.2150 C.3   262  GLN262      0.0381
     60  CG        -4.0690  -27.4470   -3.5010 C.3   262  GLN262      0.0905
     61  CD        -4.5910  -28.1890   -2.2890 C.2   262  GLN262      0.2608
     62  OE1       -5.2740  -27.6120   -1.4450 O.2   262  GLN262     -0.2717
     63  NE2       -4.2670  -29.4730   -2.1940 N.am  262  GLN262     -0.0878
     64  N         -2.0750  -23.2080   -3.7290 N.am  263  LYS263     -0.1980
     65  CA        -1.9010  -21.8220   -3.3040 C.3   263  LYS263      0.1596
     66  C         -1.9740  -20.8470   -4.4800 C.2   263  LYS263      0.2287
     67  O         -2.0780  -19.6370   -4.2830 O.2   263  LYS263     -0.2864
     68  CB        -0.5690  -21.6490   -2.5680 C.3   263  LYS263      0.0298
     69  CG        -0.3690  -22.6000   -1.3970 C.3   263  LYS263      0.0038
     70  CD        -1.3570  -22.3420   -0.2670 C.3   263  LYS263      0.0206
     71  CE        -1.0760  -21.0190    0.4270 C.3   263  LYS263      0.1093
     72  NZ        -1.9010  -20.8450    1.6570 N.3   263  LYS263     -0.1314
     73  N        -12.7370  -20.6780   -7.1620 N.3   270  LYS270     -0.1245
     74  CA       -12.8650  -21.6700   -6.0940 C.3   270  LYS270      0.1561
     75  C        -14.0520  -22.6030   -6.3160 C.2   270  LYS270      0.2260
     76  O        -15.0890  -22.1900   -6.8340 O.2   270  LYS270     -0.2867
     77  CB       -13.0050  -20.9720   -4.7380 C.3   270  LYS270      0.0271
     78  CG       -12.0530  -21.4650   -3.6570 C.3   270  LYS270      0.0035
     79  CD       -10.7630  -20.6630   -3.6480 C.3   270  LYS270      0.0206
     80  CE        -9.9280  -20.9490   -2.4120 C.3   270  LYS270      0.1093
     81  NZ       -10.4420  -20.2130   -1.2200 N.3   270  LYS270     -0.1314
     82  N        -16.3980  -25.8620   -4.3810 N.3   272  TYR272     -0.1241
     83  CA       -16.7180  -26.6700   -3.2100 C.3   272  TYR272      0.1605
     84  C        -17.0620  -28.0990   -3.6140 C.2   272  TYR272      0.2264
     85  O        -17.7520  -28.8150   -2.8870 O.2   272  TYR272     -0.2867
     86  CB       -17.8750  -26.0440   -2.4310 C.3   272  TYR272      0.0534
     87  CG       -17.5370  -24.6950   -1.8420 C.ar  272  TYR272     -0.0201
     88  CD1      -17.0300  -24.5880   -0.5540 C.ar  272  TYR272     -0.0009
     89  CD2      -17.7130  -23.5300   -2.5770 C.ar  272  TYR272     -0.0009
     90  CE1      -16.7150  -23.3570   -0.0110 C.ar  272  TYR272      0.0417
     91  CE2      -17.4000  -22.2950   -2.0420 C.ar  272  TYR272      0.0417
     92  CZ       -16.9010  -22.2140   -0.7580 C.ar  272  TYR272      0.1957
     93  OH       -16.5880  -20.9880   -0.2200 O.3   272  TYR272     -0.2866
     94  N        -17.5030  -30.0910   -0.3100 N.3   291  ASP291     -0.1239
     95  CA       -16.9910  -29.3030    0.8040 C.3   291  ASP291      0.1674
     96  C        -18.1180  -28.5450    1.5000 C.2   291  ASP291      0.2266
     97  O        -18.6700  -27.5890    0.9520 O.2   291  ASP291     -0.2867
     98  CB       -15.9110  -28.3310    0.3180 C.3   291  ASP291      0.1410
     99  CG       -15.2680  -27.5550    1.4510 C.2   291  ASP291      0.3668
    100  OD1      -15.3960  -27.9840    2.6180 O.co2 291  ASP291     -0.2456
    101  OD2      -14.6260  -26.5200    1.1760 O.co2 291  ASP291     -0.2456
    102  N        -19.1900  -26.0000    4.0310 N.3   293  SER293     -0.1202
    103  CA       -18.7010  -24.8720    4.8190 C.3   293  SER293      0.2020
    104  C        -19.3800  -24.8060    6.1810 C.2   293  SER293      0.2618
    105  O        -20.5860  -25.0260    6.2950 O.2   293  SER293     -0.2717
    106  CB       -18.9090  -23.5550    4.0700 C.3   293  SER293      0.2103
    107  OG       -17.9840  -23.4270    3.0030 O.3   293  SER293     -0.2182
    108  N        -18.5920  -24.5060    7.2090 N.am  294  GLU294     -0.1979
    109  CA       -19.1020  -24.3840    8.5690 C.3   294  GLU294      0.1602
    110  C        -20.1510  -23.2840    8.6730 C.2   294  GLU294      0.2287
    111  O        -19.8290  -22.0980    8.5940 O.2   294  GLU294     -0.2864
    112  CB       -17.9570  -24.1070    9.5450 C.3   294  GLU294      0.0415
    113  CG       -18.3850  -24.0230   11.0010 C.3   294  GLU294      0.1163
    114  CD       -17.3170  -23.4120   11.8910 C.2   294  GLU294      0.3649
    115  OE1      -16.3200  -22.8810   11.3540 O.co2 294  GLU294     -0.2457
    116  OE2      -17.4750  -23.4620   13.1290 O.co2 294  GLU294     -0.2457
    117  N         -6.1890  -34.0180    9.2690 N.3   343  ALA343     -0.1231
    118  CA        -5.5550  -33.2710    8.1870 C.3   343  ALA343      0.1694
    119  C         -4.3930  -32.4240    8.6870 C.2   343  ALA343      0.2591
    120  O         -4.2260  -32.2290    9.8920 O.2   343  ALA343     -0.2718
    121  CB        -6.5760  -32.3950    7.4800 C.3   343  ALA343      0.0304
    122  N         -3.6030  -31.9230    7.7410 N.am  344  LYS344     -0.1980
    123  CA        -2.4100  -31.1310    8.0290 C.3   344  LYS344      0.1596
    124  C         -1.4600  -31.8790    8.9570 C.2   344  LYS344      0.2287
    125  O         -0.8270  -31.2780    9.8260 O.2   344  LYS344     -0.2864
    126  CB        -2.7870  -29.7800    8.6440 C.3   344  LYS344      0.0298
    127  CG        -3.8460  -29.0070    7.8780 C.3   344  LYS344      0.0038
    128  CD        -3.9790  -27.5950    8.4210 C.3   344  LYS344      0.0206
    129  CE        -5.2290  -26.9040    7.9050 C.3   344  LYS344      0.1093
    130  NZ        -5.3890  -25.5510    8.5110 N.3   344  LYS344     -0.1314
    131  N          1.2980  -32.9150    8.4910 N.3   346  ASP346     -0.1225
    132  CA         2.6850  -32.5230    8.2830 C.3   346  ASP346      0.1805
    133  C          3.1090  -31.5220    9.3540 C.2   346  ASP346      0.2597
    134  O          4.2980  -31.2820    9.5610 O.2   346  ASP346     -0.2718
    135  CB         2.8760  -31.9230    6.8900 C.3   346  ASP346      0.1424
    136  CG         2.0270  -30.6890    6.6720 C.2   346  ASP346      0.3668
    137  OD1        0.8230  -30.7310    7.0030 O.co2 346  ASP346     -0.2456
    138  OD2        2.5640  -29.6740    6.1800 O.co2 346  ASP346     -0.2456
    139  N          2.1210  -30.9360   10.0250 N.am  347  LEU347     -0.1979
    140  CA         2.3710  -29.9700   11.0880 C.3   347  LEU347      0.1596
    141  C          2.5200  -30.6760   12.4300 C.2   347  LEU347      0.2287
    142  O          2.1070  -31.8270   12.5810 O.2   347  LEU347     -0.2864
    143  CB         1.2400  -28.9420   11.1600 C.3   347  LEU347      0.0297
    144  CG         0.9470  -28.1470    9.8860 C.3   347  LEU347      0.0022
    145  CD1       -0.1140  -27.0900   10.1510 C.3   347  LEU347      0.0001
    146  CD2        2.2170  -27.5150    9.3390 C.3   347  LEU347      0.0001
    147  N         -3.5200  -37.5780    7.3740 N.3   373  PHE373     -0.1227
    148  CA        -3.5470  -37.1220    5.9910 C.3   373  PHE373      0.1736
    149  C         -2.8630  -35.7720    5.8090 C.2   373  PHE373      0.2596
    150  O         -2.9320  -34.9070    6.6810 O.2   373  PHE373     -0.2718
    151  CB        -4.9910  -37.0390    5.4900 C.3   373  PHE373      0.0547
    152  CG        -5.1320  -36.3620    4.1560 C.ar  373  PHE373     -0.0202
    153  CD1       -4.7780  -37.0200    2.9900 C.ar  373  PHE373     -0.0042
    154  CD2       -5.6130  -35.0650    4.0680 C.ar  373  PHE373     -0.0042
    155  CE1       -4.9030  -36.4000    1.7620 C.ar  373  PHE373     -0.0003
    156  CE2       -5.7390  -34.4390    2.8430 C.ar  373  PHE373     -0.0003
    157  CZ        -5.3840  -35.1080    1.6890 C.ar  373  PHE373     -0.0000
    158  N         -2.2070  -35.6010    4.6650 N.am  374  THR374     -0.1939
    159  CA        -1.6080  -34.3220    4.3080 C.3   374  THR374      0.2028
    160  C         -1.5430  -34.1340    2.7940 C.2   374  THR374      0.2642
    161  O         -1.3380  -35.0890    2.0420 O.2   374  THR374     -0.2714
    162  CB        -0.1910  -34.1750    4.8900 C.3   374  THR374      0.1808
    163  OG1        0.3900  -32.9500    4.4260 O.3   374  THR374     -0.2208
    164  CG2        0.6890  -35.3410    4.4600 C.3   374  THR374      0.0379
    165  N         -1.7280  -32.8950    2.3530 N.am  375  CYS375     -0.1953
    166  CA        -1.6000  -32.5600    0.9440 C.3   375  CYS375      0.1843
    167  C         -0.3100  -31.7840    0.7170 C.2   375  CYS375      0.2625
    168  O          0.0220  -31.4250   -0.4140 O.2   375  CYS375     -0.2714
    169  CB        -2.8060  -31.7510    0.4650 C.3   375  CYS375      0.0997
    170  SG        -3.0910  -30.2180    1.3780 S.3   375  CYS375     -0.0797
    171  N          0.4140  -31.5310    1.8040 N.am  376  ASN376     -0.1972
    172  CA         1.6820  -30.8150    1.7330 C.3   376  ASN376      0.1688
    173  C          2.8590  -31.7710    1.6000 C.2   376  ASN376      0.2292
    174  O          3.6830  -31.8930    2.5060 O.2   376  ASN376     -0.2864
    175  CB         1.8730  -29.9290    2.9640 C.3   376  ASN376      0.1181
    176  CG         3.0440  -28.9750    2.8170 C.2   376  ASN376      0.2629
    177  OD1        3.4920  -28.6880    1.7060 O.2   376  ASN376     -0.2716
    178  ND2        3.5490  -28.4800    3.9410 N.am  376  ASN376     -0.0877
@<TRIPOS>BOND
     1    73    74    1
     2    76    75    2
     3    75    74    1
     4    74    77    1
     5    55    56    1
     6    77    78    1
     7    66    67    2
     8    66    65    1
     9    56    57    1
    10    56    59    1
    11    82    83    1
    12    57    58    2
    13    57    64   am
    14    64    65    1
    15    78    79    1
    16    79    80    1
    17    84    83    1
    18    84    85    2
    19    60    59    1
    20    60    61    1
    21    65    68    1
    22    83    86    1
    23    89    91   ar
    24    89    87   ar
    25    68    69    1
    26    86    87    1
    27    80    81    1
    28    61    63   am
    29    61    62    2
    30    47    48    1
    31    50    49    2
    32    49    48    1
    33    91    92   ar
    34    87    88   ar
    35    48    51    1
    36    69    70    1
    37    42    41    1
    38    40    39    2
    39    92    93    1
    40    92    90   ar
    41    88    90   ar
    42    46    45    2
    43   168   167    2
    44    94    95    1
    45    70    71    1
    46    39    38    1
    47    39    43   am
    48    51    52    1
    49    41    38    1
    50    98    95    1
    51    98    99    1
    52    45    44    1
    53    38    37    1
    54    71    72    1
    55   169   166    1
    56   169   170    1
    57    44    43    1
    58   167   166    1
    59   167   171   am
    60    95    96    1
    61    52    53    1
    62    52    54    1
    63   166   165    1
    64    97    96    2
    65   101    99   ar
    66    99   100   ar
    67    31    30    2
    68   173   172    1
    69   173   174    2
    70   157   155   ar
    71   157   156   ar
    72   177   176    2
    73   172   171    1
    74   172   175    1
    75   155   153   ar
    76    37    30   am
    77   161   160    2
    78    30    29    1
    79   165   160   am
    80   160   159    1
    81   176   175    1
    82   176   178   am
    83   156   154   ar
    84   153   152   ar
    85   107   106    1
    86    29    32    1
    87    29    28    1
    88    27    26    2
    89   102   103    1
    90   154   152   ar
    91   106   103    1
    92    32    33    1
    93   152   151    1
    94   159   158    1
    95   159   162    1
    96   163   162    1
    97   164   162    1
    98    28    26   am
    99    26    25    1
   100   158   149   am
   101   103   104    1
   102    33    34    1
   103    25    24    1
   104   151   148    1
   105     9     8    1
   106    34    35    1
   107    35    36    1
   108   149   148    1
   109   149   150    2
   110   148   147    1
   111   138   136   ar
   112   104   105    2
   113   104   108   am
   114    17    15   am
   115    24    20   am
   116   136   135    1
   117   136   137   ar
   118     8     7    1
   119   135   132    1
   120   108   109    1
   121    15    16    2
   122    15    14    1
   123   121   118    1
   124    11    10    1
   125    11    14    1
   126    11    12    1
   127   122   123    1
   128   122   119   am
   129    20    21    2
   130    20    19    1
   131   127   128    1
   132   127   126    1
   133    10     3   am
   134   129   128    1
   135   129   130    1
   136   123   126    1
   137   123   124    1
   138     7     6    1
   139   118   119    1
   140   118   117    1
   141   132   131    1
   142   132   133    1
   143     6     5    1
   144    18    12   am
   145    18    19    1
   146    12    13    2
   147    23    22    1
   148   109   110    1
   149   109   112    1
   150   111   110    2
   151   119   120    2
   152    19    22    1
   153   124   125    2
   154     2     3    1
   155     2     5    1
   156     2     1    1
   157     3     4    2
   158   146   144    1
   159   133   134    2
   160   133   139   am
   161   112   113    1
   162   144   145    1
   163   144   143    1
   164   139   140    1
   165   113   114    1
   166   140   143    1
   167   140   141    1
   168   115   114   ar
   169   114   116   ar
   170   141   142    2
