@<TRIPOS>MOLECULE
tmp/5kt2C00.pdb
 161 156 0 0 0
SMALL
GASTEIGER

@<TRIPOS>ATOM
      1  N          9.9510   18.6060   11.6280 N.3     9  ASP9       -0.1225
      2  CA         8.7460   18.9930   12.3550 C.3     9  ASP9        0.1805
      3  C          8.3150   17.8010   13.1960 C.2     9  ASP9        0.2598
      4  O          8.0140   16.7390   12.6490 O.2     9  ASP9       -0.2718
      5  CB         7.6300   19.4030   11.3820 C.3     9  ASP9        0.1424
      6  CG         6.3660   19.8790   12.0860 C.2     9  ASP9        0.3668
      7  OD1        5.5960   20.6280   11.4540 O.co2   9  ASP9       -0.2456
      8  OD2        6.1250   19.5170   13.2540 O.co2   9  ASP9       -0.2456
      9  N          8.2530   17.9820   14.5100 N.am   10  LEU10      -0.1966
     10  CA         7.9590   16.8790   15.4160 C.3    10  LEU10       0.1728
     11  C          6.4870   16.4780   15.3590 C.2    10  LEU10       0.2616
     12  O          5.6000   17.3150   15.1710 O.2    10  LEU10      -0.2715
     13  CB         8.3460   17.2620   16.8440 C.3    10  LEU10       0.0311
     14  CG         9.8360   17.5990   16.9150 C.3    10  LEU10       0.0022
     15  CD1       10.3080   17.9890   18.3040 C.3    10  LEU10       0.0001
     16  CD2       10.6070   16.4120   16.4160 C.3    10  LEU10       0.0001
     17  N          6.2360   15.1780   15.5200 N.am   11  ASP11      -0.1957
     18  CA         4.8680   14.6760   15.5970 C.3    11  ASP11       0.1840
     19  C          4.2270   15.0910   16.9160 C.2    11  ASP11       0.2622
     20  O          4.8280   14.9180   17.9810 O.2    11  ASP11      -0.2715
     21  CB         4.8510   13.1530   15.4740 C.3    11  ASP11       0.1450
     22  CG         5.5250   12.6610   14.2150 C.2    11  ASP11       0.3671
     23  OD1        5.3210   13.2790   13.1470 O.co2  11  ASP11      -0.2456
     24  OD2        6.2590   11.6550   14.2950 O.co2  11  ASP11      -0.2456
     25  N          3.0020   15.6250   16.8360 N.am   12  CYS12      -0.1954
     26  CA         2.1960   16.0720   17.9750 C.3    12  CYS12       0.1843
     27  C          3.0340   16.4150   19.2050 C.2    12  CYS12       0.2625
     28  O          2.8850   15.7910   20.2610 O.2    12  CYS12      -0.2714
     29  CB         1.1400   15.0170   18.3230 C.3    12  CYS12       0.0997
     30  SG         1.7760   13.3580   18.6370 S.3    12  CYS12      -0.0797
     31  N          3.9060   17.4170   19.0670 N.am   13  PHE13      -0.1960
     32  CA         5.0380   17.6330   19.9660 C.3    13  PHE13       0.1771
     33  C          4.6960   17.5600   21.4520 C.2    13  PHE13       0.2619
     34  O          5.1750   16.6560   22.1480 O.2    13  PHE13      -0.2715
     35  CB         5.6980   18.9800   19.6560 C.3    13  PHE13       0.0574
     36  CG         6.9090   19.2600   20.4960 C.ar   13  PHE13      -0.0200
     37  CD1        7.8410   18.2600   20.7420 C.ar   13  PHE13      -0.0042
     38  CD2        7.1210   20.5130   21.0390 C.ar   13  PHE13      -0.0042
     39  CE1        8.9630   18.5050   21.5180 C.ar   13  PHE13      -0.0003
     40  CE2        8.2410   20.7690   21.8140 C.ar   13  PHE13      -0.0003
     41  CZ         9.1660   19.7610   22.0540 C.ar   13  PHE13      -0.0000
     42  N          3.9010   18.5140   21.9490 N.am   14  TYR14      -0.1974
     43  CA         3.5430   18.5270   23.3690 C.3    14  TYR14       0.1639
     44  C          2.9840   17.1780   23.7990 C.2    14  TYR14       0.2290
     45  O          3.4210   16.5950   24.8010 O.2    14  TYR14      -0.2864
     46  CB         2.5180   19.6280   23.6610 C.3    14  TYR14       0.0560
     47  CG         3.0190   21.0560   23.5900 C.ar   14  TYR14      -0.0198
     48  CD1        4.2970   21.3570   23.1370 C.ar   14  TYR14      -0.0009
     49  CD2        2.2090   22.1030   24.0080 C.ar   14  TYR14      -0.0009
     50  CE1        4.7410   22.6640   23.0830 C.ar   14  TYR14       0.0417
     51  CE2        2.6440   23.4060   23.9630 C.ar   14  TYR14       0.0417
     52  CZ         3.9090   23.6820   23.4990 C.ar   14  TYR14       0.1957
     53  OH         4.3390   24.9840   23.4530 O.3    14  TYR14      -0.2866
     54  N         -4.5720   24.0510   27.3470 N.3    34  GLN34      -0.1245
     55  CA        -4.1160   25.3070   27.9320 C.3    34  GLN34       0.1566
     56  C         -5.3540   26.1780   28.0730 C.2    34  GLN34       0.2260
     57  O         -5.8780   26.6750   27.0710 O.2    34  GLN34      -0.2867
     58  CB        -3.0450   25.9770   27.0700 C.3    34  GLN34       0.0367
     59  CG        -1.7560   25.1700   27.0010 C.3    34  GLN34       0.0905
     60  CD        -0.7250   25.7650   26.0670 C.2    34  GLN34       0.2608
     61  OE1       -1.0610   26.4520   25.1030 O.2    34  GLN34      -0.2717
     62  NE2        0.5450   25.4980   26.3470 N.am   34  GLN34      -0.0878
     63  N         -8.2450   25.6210   25.4960 N.3    37  LEU37      -0.1245
     64  CA        -7.7190   25.2800   24.1820 C.3    37  LEU37       0.1561
     65  C         -6.9790   23.9520   24.2560 C.2    37  LEU37       0.2260
     66  O         -6.0970   23.7740   25.1030 O.2    37  LEU37      -0.2867
     67  CB        -6.7860   26.3790   23.6690 C.3    37  LEU37       0.0270
     68  CG        -6.3790   26.3300   22.1960 C.3    37  LEU37       0.0019
     69  CD1       -7.6160   26.2600   21.3240 C.3    37  LEU37       0.0001
     70  CD2       -5.5350   27.5430   21.8310 C.3    37  LEU37       0.0001
     71  N         -4.3930   22.5600   22.4550 N.3    39  VAL39      -0.1231
     72  CA        -3.4340   23.0640   21.4770 C.3    39  VAL39       0.1692
     73  C         -2.9570   21.9490   20.5590 C.2    39  VAL39       0.2592
     74  O         -2.6080   22.2010   19.3990 O.2    39  VAL39      -0.2718
     75  CB        -2.2560   23.7600   22.1850 C.3    39  VAL39       0.0266
     76  CG1       -2.7320   25.0340   22.8420 C.3    39  VAL39       0.0020
     77  CG2       -1.6170   22.8360   23.2060 C.3    39  VAL39       0.0020
     78  N         -2.9340   20.7110   21.0440 N.am   40  THR40      -0.1953
     79  CA        -2.6130   19.5750   20.1910 C.3    40  THR40       0.1897
     80  C         -3.1860   18.3150   20.8190 C.2    40  THR40       0.2313
     81  O         -3.5950   18.3010   21.9820 O.2    40  THR40      -0.2863
     82  CB        -1.1030   19.4230   19.9710 C.3    40  THR40       0.1794
     83  OG1       -0.8720   18.3990   18.9970 O.3    40  THR40      -0.2208
     84  CG2       -0.4050   19.0340   21.2680 C.3    40  THR40       0.0378
     85  N         -2.2530   11.1760   17.8120 N.3    43  TYR43      -0.1241
     86  CA        -2.9110   10.7870   16.5700 C.3    43  TYR43       0.1605
     87  C         -4.0960    9.8580   16.8040 C.2    43  TYR43       0.2264
     88  O         -5.0400    9.8520   15.9990 O.2    43  TYR43      -0.2867
     89  CB        -1.8850   10.1760   15.6170 C.3    43  TYR43       0.0534
     90  CG        -1.1260   11.2580   14.8880 C.ar   43  TYR43      -0.0201
     91  CD1       -0.0660   11.9230   15.4940 C.ar   43  TYR43      -0.0009
     92  CD2       -1.5060   11.6560   13.6150 C.ar   43  TYR43      -0.0009
     93  CE1        0.6150   12.9350   14.8330 C.ar   43  TYR43       0.0417
     94  CE2       -0.8340   12.6620   12.9490 C.ar   43  TYR43       0.0417
     95  CZ         0.2230   13.2990   13.5610 C.ar   43  TYR43       0.1957
     96  OH         0.8850   14.3000   12.8900 O.3    43  TYR43      -0.2866
     97  N         -6.7650   12.1920   16.9890 N.3    46  ARG46      -0.1245
     98  CA        -7.0940   12.7090   15.6670 C.3    46  ARG46       0.1563
     99  C         -7.9800   11.7400   14.8990 C.2    46  ARG46       0.2260
    100  O         -8.8290   12.1730   14.1130 O.2    46  ARG46      -0.2867
    101  CB        -5.8150   13.0210   14.8860 C.3    46  ARG46       0.0307
    102  CG        -5.1160   14.2610   15.4150 C.3    46  ARG46       0.0489
    103  CD        -3.8030   14.5950   14.7270 C.3    46  ARG46       0.2205
    104  NE        -2.9080   15.2560   15.6750 N.pl3  46  ARG46      -0.0865
    105  CZ        -1.9010   16.0580   15.3440 C.cat  46  ARG46       0.5346
    106  NH1       -1.6510   16.3330   14.0720 N.pl3  46  ARG46       0.1354
    107  NH2       -1.1530   16.6000   16.2940 N.pl3  46  ARG46       0.1354
    108  N         -6.1070   19.8220   16.0810 N.3    52  LYS52      -0.1231
    109  CA        -5.2450   20.7970   16.7330 C.3    52  LYS52       0.1693
    110  C         -5.9840   22.1170   16.8980 C.2    52  LYS52       0.2591
    111  O         -6.6670   22.5750   15.9780 O.2    52  LYS52      -0.2718
    112  CB        -3.9700   21.0020   15.9140 C.3    52  LYS52       0.0285
    113  CG        -2.9690   19.8630   16.0180 C.3    52  LYS52       0.0035
    114  CD        -1.8650   19.9920   14.9720 C.3    52  LYS52       0.0206
    115  CE        -2.4250   19.9130   13.5610 C.3    52  LYS52       0.1093
    116  NZ        -1.3700   19.6010   12.5530 N.3    52  LYS52      -0.1314
    117  N         -5.8530   22.7150   18.0840 N.am   53  LEU53      -0.1980
    118  CA        -6.4160   24.0190   18.4290 C.3    53  LEU53       0.1596
    119  C         -7.9380   24.0110   18.5230 C.2    53  LEU53       0.2287
    120  O         -8.5730   25.0660   18.4200 O.2    53  LEU53      -0.2864
    121  CB        -5.9460   25.1050   17.4550 C.3    53  LEU53       0.0297
    122  CG        -4.4230   25.2240   17.4180 C.3    53  LEU53       0.0022
    123  CD1       -3.9910   26.1030   16.2670 C.3    53  LEU53       0.0001
    124  CD2       -3.8980   25.7660   18.7380 C.3    53  LEU53       0.0001
    125  N          8.8200   25.8880   18.7400 N.3   100  PHE100     -0.1227
    126  CA         9.4730   24.9150   19.6010 C.3   100  PHE100      0.1736
    127  C          9.7770   23.6020   18.8990 C.2   100  PHE100      0.2595
    128  O         10.5710   22.8160   19.4240 O.2   100  PHE100     -0.2718
    129  CB         8.6200   24.6200   20.8390 C.3   100  PHE100      0.0547
    130  CG         8.7780   25.6230   21.9490 C.ar  100  PHE100     -0.0202
    131  CD1        8.3360   25.3230   23.2280 C.ar  100  PHE100     -0.0042
    132  CD2        9.3570   26.8640   21.7180 C.ar  100  PHE100     -0.0042
    133  CE1        8.4780   26.2310   24.2640 C.ar  100  PHE100     -0.0003
    134  CE2        9.4980   27.7840   22.7500 C.ar  100  PHE100     -0.0003
    135  CZ         9.0580   27.4660   24.0240 C.ar  100  PHE100     -0.0000
    136  N          9.1770   23.3200   17.7410 N.am  101  ASP101     -0.1960
    137  CA         9.3020   21.9760   17.1920 C.3   101  ASP101      0.1840
    138  C          9.7130   21.9160   15.7260 C.2   101  ASP101      0.2621
    139  O          9.6380   20.8330   15.1320 O.2   101  ASP101     -0.2715
    140  CB         7.9990   21.1860   17.4000 C.3   101  ASP101      0.1450
    141  CG         7.0070   21.3250   16.2440 C.2   101  ASP101      0.3671
    142  OD1        6.8430   22.4320   15.6900 O.co2 101  ASP101     -0.2456
    143  OD2        6.3680   20.3010   15.9120 O.co2 101  ASP101     -0.2456
    144  N         10.1760   23.0100   15.1250 N.am  102  GLU102     -0.1977
    145  CA        10.6620   22.9320   13.7550 C.3   102  GLU102      0.1602
    146  C         12.1030   23.4140   13.6780 C.2   102  GLU102      0.2287
    147  O         12.4980   24.3420   14.3900 O.2   102  GLU102     -0.2864
    148  CB         9.7600   23.7260   12.8070 C.3   102  GLU102      0.0415
    149  CG         8.3870   23.0890   12.6680 C.3   102  GLU102      0.1163
    150  CD         7.4530   23.8870   11.7880 C.2   102  GLU102      0.3649
    151  OE1        7.9410   24.6140   10.8920 O.co2 102  GLU102     -0.2457
    152  OE2        6.2270   23.7790   11.9850 O.co2 102  GLU102     -0.2457
    153  N          2.5230   12.2720    6.8270 N.3   189  LYS189     -0.1245
    154  CA         2.5440   12.3380    8.2820 C.3   189  LYS189      0.1561
    155  C          1.7790   11.1540    8.8720 C.2   189  LYS189      0.2260
    156  O          0.8710   10.6300    8.2320 O.2   189  LYS189     -0.2867
    157  CB         1.9230   13.6490    8.7700 C.3   189  LYS189      0.0271
    158  CG         2.8000   14.8800    8.6530 C.3   189  LYS189      0.0035
    159  CD         1.9380   16.1280    8.7760 C.3   189  LYS189      0.0206
    160  CE         0.8720   15.9460    9.8520 C.3   189  LYS189      0.1093
    161  NZ         0.3500   17.2380   10.3720 N.3   189  LYS189     -0.1314
@<TRIPOS>BOND
     1   153   154    1
     2   156   155    2
     3   154   157    1
     4   154   155    1
     5   158   157    1
     6   158   159    1
     7   159   160    1
     8   160   161    1
     9   151   150   ar
    10     5     6    1
    11     5     2    1
    12     7     6   ar
    13     1     2    1
    14   150   152   ar
    15   150   149    1
    16     6     8   ar
    17     2     3    1
    18   116   115    1
    19     4     3    2
    20   149   148    1
    21   148   145    1
    22    96    95    1
    23    94    95   ar
    24    94    92   ar
    25    23    22   ar
    26     3     9   am
    27    95    93   ar
    28   115   114    1
    29    92    90   ar
    30   146   145    1
    31   146   147    2
    32   145   144    1
    33   106   105    1
    34   100    99    2
    35    22    24   ar
    36    22    21    1
    37     9    10    1
    38   103   102    1
    39   103   104    1
    40    93    91   ar
    41   101   102    1
    42   101    98    1
    43    90    91   ar
    44    90    89    1
    45    99    98    1
    46   114   113    1
    47   144   138   am
    48   139   138    2
    49    12    11    2
    50   105   104    2
    51   105   107    1
    52    11    10    1
    53    11    17   am
    54    10    13    1
    55    21    18    1
    56    17    18    1
    57    18    19    1
    58    89    86    1
    59    98    97    1
    60   142   141   ar
    61   138   137    1
    62   143   141   ar
    63   112   113    1
    64   112   109    1
    65   111   110    2
    66    88    87    2
    67   108   109    1
    68   141   140    1
    69   123   122    1
    70    16    14    1
    71    86    87    1
    72    86    85    1
    73   109   110    1
    74    25    19   am
    75    25    26    1
    76    13    14    1
    77   110   117   am
    78    14    15    1
    79    19    20    2
    80   137   140    1
    81   137   136    1
    82   122   121    1
    83   122   124    1
    84   121   118    1
    85   136   127   am
    86    26    29    1
    87    26    27    1
    88   117   118    1
    89    29    30    1
    90   120   119    2
    91   118   119    1
    92   125   126    1
    93   127   128    2
    94   127   126    1
    95    83    82    1
    96    31    27   am
    97    31    32    1
    98    27    28    2
    99    74    73    2
   100   126   129    1
   101    35    32    1
   102    35    36    1
   103    32    33    1
   104    82    79    1
   105    82    84    1
   106    79    80    1
   107    79    78    1
   108    36    37   ar
   109    36    38   ar
   110    73    78   am
   111    73    72    1
   112    37    39   ar
   113    80    81    2
   114   129   130    1
   115    38    40   ar
   116    69    68    1
   117    33    42   am
   118    33    34    2
   119    72    75    1
   120    72    71    1
   121    39    41   ar
   122   132   130   ar
   123   132   134   ar
   124    40    41   ar
   125    70    68    1
   126   130   131   ar
   127    42    43    1
   128    75    76    1
   129    75    77    1
   130    68    67    1
   131   134   135   ar
   132    50    48   ar
   133    50    52   ar
   134    48    47   ar
   135   131   133   ar
   136    43    46    1
   137    43    44    1
   138    53    52    1
   139    52    51   ar
   140    47    46    1
   141    47    49   ar
   142    67    64    1
   143    44    45    2
   144    51    49   ar
   145   135   133   ar
   146    64    65    1
   147    64    63    1
   148    65    66    2
   149    61    60    2
   150    60    62   am
   151    60    59    1
   152    59    58    1
   153    58    55    1
   154    57    56    2
   155    54    55    1
   156    55    56    1
