@<TRIPOS>MOLECULE
tmp/5ktdA01.pdb
 239 234 0 0 0
SMALL
GASTEIGER

@<TRIPOS>ATOM
      1  N          4.0400   19.1320   -3.8980 N.3    31  LYS31      -0.1231
      2  CA         3.4980   20.4490   -3.5110 C.3    31  LYS31       0.1693
      3  C          2.1320   20.3380   -2.8430 C.2    31  LYS31       0.2591
      4  O          1.7270   21.2290   -2.1190 O.2    31  LYS31      -0.2718
      5  CB         3.3950   21.3660   -4.7180 C.3    31  LYS31       0.0285
      6  CG         4.7430   21.7140   -5.3160 C.3    31  LYS31       0.0035
      7  CD         4.5670   22.6400   -6.5100 C.3    31  LYS31       0.0206
      8  CE         5.7690   22.5750   -7.4490 C.3    31  LYS31       0.1093
      9  NZ         5.4510   23.3230   -8.7020 N.3    31  LYS31      -0.1314
     10  N          1.4160   19.2550   -3.1170 N.am   32  LEU32      -0.1980
     11  CA         0.0350   19.1210   -2.6690 C.3    32  LEU32       0.1596
     12  C         -0.1730   18.1810   -1.5110 C.2    32  LEU32       0.2287
     13  O         -1.2120   18.2480   -0.8970 O.2    32  LEU32      -0.2864
     14  CB        -0.8270   18.6000   -3.8420 C.3    32  LEU32       0.0297
     15  CG        -0.8550   19.5230   -5.0650 C.3    32  LEU32       0.0022
     16  CD1       -1.7160   18.8970   -6.1650 C.3    32  LEU32       0.0001
     17  CD2       -1.3450   20.9510   -4.7180 C.3    32  LEU32       0.0001
     18  N         -0.0060   17.4450    3.7870 N.3    35  TYR35      -0.1227
     19  CA        -0.9050   17.2200    4.8960 C.3    35  TYR35       0.1736
     20  C         -1.9520   16.1240    4.6320 C.2    35  TYR35       0.2595
     21  O         -2.9710   16.0880    5.3180 O.2    35  TYR35      -0.2718
     22  CB        -1.5750   18.5590    5.2440 C.3    35  TYR35       0.0548
     23  CG        -0.5910   19.6210    5.6460 C.ar   35  TYR35      -0.0200
     24  CD1        0.1270   19.5160    6.8440 C.ar   35  TYR35      -0.0009
     25  CD2       -0.3740   20.7280    4.8470 C.ar   35  TYR35      -0.0009
     26  CE1        1.0290   20.4840    7.2220 C.ar   35  TYR35       0.0417
     27  CE2        0.5290   21.7140    5.2100 C.ar   35  TYR35       0.0417
     28  CZ         1.2370   21.5910    6.3910 C.ar   35  TYR35       0.1957
     29  OH         2.1140   22.5910    6.7570 O.3    35  TYR35      -0.2866
     30  N         -1.7240   15.2310    3.6620 N.am   36  ILE36      -0.1980
     31  CA        -2.6970   14.1590    3.4050 C.3    36  ILE36       0.1595
     32  C         -1.9840   12.8480    3.5670 C.2    36  ILE36       0.2287
     33  O         -0.7790   12.8550    3.7380 O.2    36  ILE36      -0.2864
     34  CB        -3.3650   14.2900    2.0180 C.3    36  ILE36       0.0276
     35  CG1       -2.3580   14.0280    0.9030 C.3    36  ILE36       0.0022
     36  CG2       -3.9580   15.6870    1.8990 C.3    36  ILE36       0.0022
     37  CD1       -2.9150   14.1330   -0.5000 C.3    36  ILE36       0.0001
     38  N        -13.4130   14.7920    2.8750 N.3    94  GLY94      -0.1210
     39  CA       -11.9780   15.0150    2.7660 C.3    94  GLY94       0.1956
     40  C        -11.4330   14.4730    1.4890 C.2    94  GLY94       0.2613
     41  O        -12.1140   14.5790    0.4520 O.2    94  GLY94      -0.2717
     42  N        -10.1950   13.9450    1.5210 N.am   95  SER95      -0.1938
     43  CA        -9.4700   13.6500    0.2810 C.3    95  SER95       0.2055
     44  C         -9.5150   14.8520   -0.6760 C.2    95  SER95       0.2643
     45  O         -9.6340   14.6940   -1.8930 O.2    95  SER95      -0.2714
     46  CB        -9.9870   12.3730   -0.4070 C.3    95  SER95       0.2130
     47  OG        -9.9550   11.2630    0.4700 O.3    95  SER95      -0.2179
     48  N         -9.3770   16.0430   -0.1160 N.am   96  TRP96      -0.1959
     49  CA        -9.7390   17.2800   -0.8050 C.3    96  TRP96       0.1771
     50  C         -8.4530   17.9420   -1.3250 C.2    96  TRP96       0.2620
     51  O         -7.6370   18.4450   -0.5370 O.2    96  TRP96      -0.2715
     52  CB       -10.4360   18.1870    0.1630 C.3    96  TRP96       0.0590
     53  CG       -11.0500   19.4110   -0.4500 C.ar   96  TRP96       0.0006
     54  CD1      -11.6850   19.5280   -1.6640 C.ar   96  TRP96       0.0946
     55  CD2      -11.1600   20.6710    0.1910 C.ar   96  TRP96       0.0152
     56  NE1      -12.1330   20.8270   -1.8220 N.ar   96  TRP96      -0.2442
     57  CE2      -11.8540   21.5330   -0.6890 C.ar   96  TRP96       0.0810
     58  CE3      -10.7340   21.1610    1.4470 C.ar   96  TRP96       0.0012
     59  CZ2      -12.1130   22.8460   -0.3820 C.ar   96  TRP96       0.0191
     60  CZ3      -10.9870   22.4860    1.7640 C.ar   96  TRP96       0.0001
     61  CH2      -11.6680   23.3220    0.8280 C.ar   96  TRP96       0.0015
     62  N         -8.2960   17.8970   -2.6430 N.am   97  ILE97      -0.1963
     63  CA        -7.0800   18.2750   -3.2910 C.3    97  ILE97       0.1727
     64  C         -7.4610   19.0070   -4.5730 C.2    97  ILE97       0.2616
     65  O         -8.3550   18.5710   -5.3050 O.2    97  ILE97      -0.2715
     66  CB        -6.1850   17.0920   -3.6760 C.3    97  ILE97       0.0290
     67  CG1       -5.9110   16.1380   -2.4990 C.3    97  ILE97       0.0022
     68  CG2       -4.8550   17.6570   -4.1360 C.3    97  ILE97       0.0023
     69  CD1       -5.4570   14.7410   -2.9210 C.3    97  ILE97       0.0001
     70  N         -6.8080   20.1450   -4.8030 N.am   98  LEU98      -0.1977
     71  CA        -6.9540   20.8970   -6.0570 C.3    98  LEU98       0.1596
     72  C         -5.5550   21.2280   -6.5960 C.2    98  LEU98       0.2287
     73  O         -4.6890   21.6430   -5.8250 O.2    98  LEU98      -0.2864
     74  CB        -7.7140   22.1780   -5.7810 C.3    98  LEU98       0.0297
     75  CG        -9.1970   22.1190   -5.4980 C.3    98  LEU98       0.0022
     76  CD1       -9.7160   23.4610   -5.0100 C.3    98  LEU98       0.0001
     77  CD2       -9.9930   21.6560   -6.7230 C.3    98  LEU98       0.0001
     78  N         -6.5170   24.6150  -11.1140 N.3   102  LYS102     -0.1245
     79  CA        -7.7650   24.9170  -10.5070 C.3   102  LYS102      0.1561
     80  C         -8.2160   26.3430  -10.8780 C.2   102  LYS102      0.2260
     81  O         -7.3930   27.2490  -11.0160 O.2   102  LYS102     -0.2867
     82  CB        -7.6450   24.8400   -8.9740 C.3   102  LYS102      0.0271
     83  CG        -6.7850   25.9360   -8.3470 C.3   102  LYS102      0.0035
     84  CD        -6.3740   25.6450   -6.9080 C.3   102  LYS102      0.0206
     85  CE        -5.6610   26.8610   -6.2840 C.3   102  LYS102      0.1093
     86  NZ        -4.9550   26.5110   -5.0090 N.3   102  LYS102     -0.1314
     87  N         -9.7660   29.8210   -9.6670 N.3   104  LYS104     -0.1231
     88  CA        -9.4380   30.5750   -8.4570 C.3   104  LYS104      0.1693
     89  C        -10.2630   30.1710   -7.2100 C.2   104  LYS104      0.2592
     90  O         -9.6920   30.0240   -6.1390 O.2   104  LYS104     -0.2718
     91  CB        -9.6300   32.0840   -8.6970 C.3   104  LYS104      0.0285
     92  CG        -9.1590   32.9640   -7.5440 C.3   104  LYS104      0.0035
     93  CD        -8.7190   34.3170   -8.0900 C.3   104  LYS104      0.0206
     94  CE        -8.3250   35.3100   -7.0010 C.3   104  LYS104      0.1093
     95  NZ        -6.9010   35.1480   -6.6040 N.3   104  LYS104     -0.1314
     96  N        -11.5780   30.0260   -7.3870 N.am  105  TYR105     -0.1976
     97  CA       -12.5370   29.7760   -6.3110 C.3   105  TYR105      0.1639
     98  C        -13.0390   28.3100   -6.2740 C.2   105  TYR105      0.2290
     99  O        -14.0690   28.0190   -5.6420 O.2   105  TYR105     -0.2864
    100  CB       -13.7480   30.7450   -6.4210 C.3   105  TYR105      0.0560
    101  CG       -13.2840   32.1920   -6.3690 C.ar  105  TYR105     -0.0198
    102  CD1      -12.8870   32.7770   -5.1550 C.ar  105  TYR105     -0.0009
    103  CD2      -13.1600   32.9740   -7.5430 C.ar  105  TYR105     -0.0009
    104  CE1      -12.4120   34.0860   -5.1130 C.ar  105  TYR105      0.0417
    105  CE2      -12.6630   34.2780   -7.5010 C.ar  105  TYR105      0.0417
    106  CZ       -12.3090   34.8170   -6.3010 C.ar  105  TYR105      0.1957
    107  OH       -11.8330   36.0810   -6.2540 O.3   105  TYR105     -0.2866
    108  N        -12.0260   25.8940   -4.5840 N.3   107  ALA107     -0.1231
    109  CA       -12.0910   25.4000   -3.1810 C.3   107  ALA107      0.1694
    110  C        -13.4530   25.7240   -2.5890 C.2   107  ALA107      0.2591
    111  O        -14.1080   24.8500   -2.0230 O.2   107  ALA107     -0.2718
    112  CB       -10.9600   25.9670   -2.3450 C.3   107  ALA107      0.0304
    113  N        -13.9040   26.9740   -2.7640 N.am  108  VAL108     -0.1980
    114  CA       -15.2330   27.3720   -2.2560 C.3   108  VAL108      0.1595
    115  C        -16.3220   26.5660   -2.9610 C.2   108  VAL108      0.2287
    116  O        -17.2870   26.0800   -2.3230 O.2   108  VAL108     -0.2864
    117  CB       -15.5490   28.8920   -2.4130 C.3   108  VAL108      0.0276
    118  CG1      -16.9290   29.1960   -1.8570 C.3   108  VAL108      0.0022
    119  CG2      -14.5140   29.7730   -1.7540 C.3   108  VAL108      0.0022
    120  N        -11.4040   16.5610    9.6600 N.3   130  GLU130     -0.1231
    121  CA       -10.2530   17.0110   10.3850 C.3   130  GLU130      0.1699
    122  C         -9.2310   17.5660    9.4270 C.2   130  GLU130      0.2592
    123  O         -9.2830   17.2830    8.2470 O.2   130  GLU130     -0.2718
    124  CB        -9.6460   15.8610   11.2000 C.3   130  GLU130      0.0402
    125  CG        -9.0240   14.7120   10.4470 C.3   130  GLU130      0.1161
    126  CD        -9.9260   13.5310   10.2710 C.2   130  GLU130      0.3649
    127  OE1       -9.8130   12.8120    9.2790 O.co2 130  GLU130     -0.2457
    128  OE2      -10.7470   13.2830   11.1320 O.co2 130  GLU130     -0.2457
    129  N         -8.3010   18.3400    9.9710 N.am  131  VAL131     -0.1966
    130  CA        -7.2980   19.0410    9.2030 C.3   131  VAL131      0.1727
    131  C         -6.0440   18.9870   10.0400 C.2   131  VAL131      0.2616
    132  O         -6.1070   19.2550   11.2390 O.2   131  VAL131     -0.2715
    133  CB        -7.6890   20.5090    9.0530 C.3   131  VAL131      0.0290
    134  CG1       -6.6150   21.3180    8.3220 C.3   131  VAL131      0.0023
    135  CG2       -9.0890   20.6410    8.3900 C.3   131  VAL131      0.0023
    136  N         -4.9170   18.6340    9.4330 N.am  132  MET132     -0.1977
    137  CA        -3.6370   18.6230   10.1650 C.3   132  MET132      0.1605
    138  C         -3.2530   19.9300   10.7580 C.2   132  MET132      0.2287
    139  O         -3.3540   20.9480   10.1220 O.2   132  MET132     -0.2864
    140  CB        -2.4770   18.1540    9.2880 C.3   132  MET132      0.0413
    141  CG        -2.5500   16.6420    9.0630 C.3   132  MET132      0.0598
    142  SD        -1.0150   15.8900    8.4840 S.3   132  MET132     -0.1393
    143  CE        -0.0200   15.9860    9.9810 C.3   132  MET132      0.0692
    144  N         -1.5250   22.8930    8.6240 N.3   135  ASN135     -0.1240
    145  CA        -2.2240   23.2330    7.3690 C.3   135  ASN135      0.1653
    146  C         -3.0640   24.4970    7.4940 C.2   135  ASN135      0.2266
    147  O         -4.2950   24.5070    7.3170 O.2   135  ASN135     -0.2867
    148  CB        -3.0650   22.0310    6.9300 C.3   135  ASN135      0.1155
    149  CG        -3.3090   21.9690    5.4230 C.2   135  ASN135      0.2627
    150  OD1       -3.0010   22.8810    4.6580 O.2   135  ASN135     -0.2716
    151  ND2       -3.8540   20.8430    4.9990 N.am  135  ASN135     -0.0877
    152  N         -3.9780   27.5140    6.2660 N.3   137  LYS137     -0.1231
    153  CA        -4.9820   28.1380    5.4550 C.3   137  LYS137      0.1693
    154  C         -6.2780   27.2870    5.3710 C.2   137  LYS137      0.2591
    155  O         -7.3430   27.8070    5.0630 O.2   137  LYS137     -0.2718
    156  CB        -4.3760   28.3770    4.0450 C.3   137  LYS137      0.0285
    157  CG        -5.1030   29.3990    3.2280 C.3   137  LYS137      0.0035
    158  CD        -4.4440   29.6480    1.8700 C.3   137  LYS137      0.0206
    159  CE        -5.1420   30.8580    1.2420 C.3   137  LYS137      0.1093
    160  NZ        -4.9870   31.0450   -0.2270 N.3   137  LYS137     -0.1314
    161  N         -6.1700   25.9840    5.5970 N.am  138  VAL138     -0.1980
    162  CA        -7.3420   25.0640    5.5100 C.3   138  VAL138      0.1595
    163  C         -8.2210   25.2510    6.7730 C.2   138  VAL138      0.2287
    164  O         -9.4650   25.4100    6.7040 O.2   138  VAL138     -0.2864
    165  CB        -6.8600   23.6120    5.2370 C.3   138  VAL138      0.0276
    166  CG1       -8.0380   22.6200    5.1810 C.3   138  VAL138      0.0022
    167  CG2       -6.0630   23.5890    3.9340 C.3   138  VAL138      0.0022
    168  N         -9.8950   28.4470    6.1790 N.3   141  PHE141     -0.1227
    169  CA       -11.0520   28.2440    5.2840 C.3   141  PHE141      0.1736
    170  C        -12.3230   27.7030    5.9470 C.2   141  PHE141      0.2595
    171  O        -13.4150   28.1760    5.7110 O.2   141  PHE141     -0.2718
    172  CB       -10.6500   27.2420    4.1530 C.3   141  PHE141      0.0547
    173  CG       -11.7410   26.9700    3.1480 C.ar  141  PHE141     -0.0202
    174  CD1      -12.7400   26.0300    3.3850 C.ar  141  PHE141     -0.0042
    175  CD2      -11.7450   27.6450    1.9200 C.ar  141  PHE141     -0.0042
    176  CE1      -13.7400   25.8050    2.4480 C.ar  141  PHE141     -0.0003
    177  CE2      -12.7250   27.4070    0.9810 C.ar  141  PHE141     -0.0003
    178  CZ       -13.7450   26.4920    1.2630 C.ar  141  PHE141     -0.0000
    179  N        -12.1720   26.6360    6.7040 N.am  142  HIS142     -0.1975
    180  CA       -13.3330   25.9590    7.3280 C.3   142  HIS142      0.1656
    181  C        -13.9660   26.8470    8.3840 C.2   142  HIS142      0.2291
    182  O        -15.1980   26.9210    8.4450 O.2   142  HIS142     -0.2864
    183  CB       -12.9640   24.5810    7.9150 C.3   142  HIS142      0.0771
    184  CG       -12.5860   23.5730    6.8780 C.ar  142  HIS142      0.0820
    185  ND1      -13.4470   23.1960    5.8750 N.ar  142  HIS142     -0.2267
    186  CD2      -11.4350   22.8980    6.6620 C.ar  142  HIS142      0.1154
    187  CE1      -12.8450   22.3160    5.0960 C.ar  142  HIS142      0.1986
    188  NE2      -11.6200   22.1180    5.5560 N.ar  142  HIS142     -0.2212
    189  N        -13.9140   30.1010    8.5140 N.3   144  LYS144     -0.1231
    190  CA       -14.6380   31.1090    7.7620 C.3   144  LYS144      0.1693
    191  C        -16.0050   30.6450    7.2270 C.2   144  LYS144      0.2591
    192  O        -17.0060   31.3840    7.3070 O.2   144  LYS144     -0.2718
    193  CB       -13.7340   31.6340    6.6410 C.3   144  LYS144      0.0285
    194  CG       -14.2730   32.8480    5.8990 C.3   144  LYS144      0.0035
    195  CD       -13.1160   33.5880    5.1960 C.3   144  LYS144      0.0206
    196  CE       -13.5630   34.5460    4.0900 C.3   144  LYS144      0.1093
    197  NZ       -14.8030   35.2800    4.4660 N.3   144  LYS144     -0.1314
    198  N        -16.0710   29.4240    6.7070 N.am  145  MET145     -0.1979
    199  CA       -17.3520   28.8890    6.1820 C.3   145  MET145      0.1605
    200  C        -18.3710   28.5040    7.2490 C.2   145  MET145      0.2287
    201  O        -19.5300   28.3420    6.9570 O.2   145  MET145     -0.2864
    202  CB       -17.1160   27.6730    5.2620 C.3   145  MET145      0.0413
    203  CG       -18.3280   27.2840    4.4110 C.3   145  MET145      0.0598
    204  SD       -17.7900   26.1420    3.1330 S.3   145  MET145     -0.1393
    205  CE       -16.9570   27.2400    1.9920 C.3   145  MET145      0.0692
    206  N        -23.7390   32.2520   -0.0920 N.3   173  TYR173     -0.1241
    207  CA       -22.7490   31.7510   -1.0440 C.3   173  TYR173      0.1605
    208  C        -23.3480   31.4440   -2.4370 C.2   173  TYR173      0.2264
    209  O        -22.6560   30.8610   -3.2900 O.2   173  TYR173     -0.2867
    210  CB       -22.0870   30.4980   -0.4410 C.3   173  TYR173      0.0534
    211  CG       -21.0520   30.8190    0.6160 C.ar  173  TYR173     -0.0201
    212  CD1      -21.4050   30.9890    1.9640 C.ar  173  TYR173     -0.0009
    213  CD2      -19.7550   30.9910    0.2500 C.ar  173  TYR173     -0.0009
    214  CE1      -20.4400   31.2860    2.9390 C.ar  173  TYR173      0.0417
    215  CE2      -18.7840   31.2830    1.1930 C.ar  173  TYR173      0.0417
    216  CZ       -19.1450   31.4230    2.5530 C.ar  173  TYR173      0.1957
    217  OH       -18.1580   31.7340    3.4320 O.3   173  TYR173     -0.2866
    218  N        -23.7000   33.0730   -5.1470 N.3   175  ARG175     -0.1231
    219  CA       -22.8810   33.5070   -6.3070 C.3   175  ARG175      0.1694
    220  C        -21.8150   32.4600   -6.7340 C.2   175  ARG175      0.2592
    221  O        -21.2890   32.4820   -7.8980 O.2   175  ARG175     -0.2718
    222  CB       -22.1880   34.8320   -6.0620 C.3   175  ARG175      0.0321
    223  CG       -21.0480   34.7740   -5.1010 C.3   175  ARG175      0.0489
    224  CD       -20.5820   36.1490   -4.8680 C.3   175  ARG175      0.2205
    225  NE       -19.7970   36.2340   -3.6760 N.pl3 175  ARG175     -0.0865
    226  CZ       -18.4800   36.1950   -3.6630 C.cat 175  ARG175      0.5346
    227  NH1      -17.8110   36.0560   -4.7990 N.pl3 175  ARG175      0.1354
    228  NH2      -17.8330   36.2630   -2.5190 N.pl3 175  ARG175      0.1354
    229  N        -21.4540   31.5900   -5.7890 N.am  176  PHE176     -0.1976
    230  CA       -20.4630   30.5700   -6.0990 C.3   176  PHE176      0.1639
    231  C        -21.0890   29.3540   -6.7670 C.2   176  PHE176      0.2290
    232  O        -20.3890   28.5740   -7.4240 O.2   176  PHE176     -0.2864
    233  CB       -19.7350   30.1540   -4.8430 C.3   176  PHE176      0.0560
    234  CG       -18.7940   31.1840   -4.3210 C.ar  176  PHE176     -0.0200
    235  CD1      -17.5370   31.3390   -4.9010 C.ar  176  PHE176     -0.0042
    236  CD2      -19.1440   31.9580   -3.2140 C.ar  176  PHE176     -0.0042
    237  CE1      -16.6140   32.2450   -4.4040 C.ar  176  PHE176     -0.0003
    238  CE2      -18.2520   32.8900   -2.7210 C.ar  176  PHE176     -0.0003
    239  CZ       -16.9820   33.0420   -3.3080 C.ar  176  PHE176     -0.0000
@<TRIPOS>BOND
     1    78    79    1
     2    81    80    2
     3    80    79    1
     4    79    82    1
     5    87    88    1
     6    82    83    1
     7     9     8    1
     8    91    88    1
     9    91    92    1
    10    88    89    1
    11    83    84    1
    12    93    92    1
    13    93    94    1
    14   221   220    2
    15   103   105   ar
    16   103   101   ar
    17   105   106   ar
    18     8     7    1
    19   232   231    2
    20    96    89   am
    21    96    97    1
    22    89    90    2
    23    94    95    1
    24    84    85    1
    25   231   230    1
    26   220   219    1
    27   220   229   am
    28    77    75    1
    29    72    71    1
    30    72    73    2
    31     7     6    1
    32   100   101    1
    33   100    97    1
    34   101   102   ar
    35    97    98    1
    36   219   222    1
    37   219   218    1
    38   106   107    1
    39   106   104   ar
    40    85    86    1
    41    98    99    2
    42    16    15    1
    43   230   229    1
    44   230   233    1
    45   222   223    1
    46    71    74    1
    47    71    70    1
    48    74    75    1
    49    75    76    1
    50     6     5    1
    51    65    64    2
    52   102   104   ar
    53   223   224    1
    54    15    17    1
    55    15    14    1
    56   235   237   ar
    57   235   234   ar
    58   224   225    1
    59   233   234    1
    60    70    64   am
    61   227   226    1
    62     5     2    1
    63   108   109    1
    64    64    63    1
    65   237   239   ar
    66   234   236   ar
    67    68    66    1
    68     1     2    1
    69    14    11    1
    70   225   226    2
    71    66    63    1
    72    66    67    1
    73   226   228    1
    74     2     3    1
    75   239   238   ar
    76    63    62    1
    77   209   208    2
    78   236   238   ar
    79   109   110    1
    80   109   112    1
    81    10     3   am
    82    10    11    1
    83   115   116    2
    84   115   114    1
    85    69    67    1
    86     3     4    2
    87   113   110   am
    88   113   114    1
    89    11    12    1
    90    62    50   am
    91   110   111    2
    92   208   207    1
    93   117   114    1
    94   117   118    1
    95   117   119    1
    96    45    44    2
    97    56    54   ar
    98    56    57   ar
    99    54    53   ar
   100    12    13    2
   101    50    49    1
   102    50    51    2
   103   207   210    1
   104   207   206    1
   105    49    48    1
   106    49    52    1
   107    57    59   ar
   108    57    55   ar
   109    44    48   am
   110    44    43    1
   111    37    35    1
   112    53    52    1
   113    53    55   ar
   114   210   211    1
   115    46    43    1
   116    46    47    1
   117    59    61   ar
   118   160   159    1
   119    55    58   ar
   120   213   211   ar
   121   213   215   ar
   122    43    42    1
   123    41    40    2
   124   211   212   ar
   125    61    60   ar
   126    35    34    1
   127   177   178   ar
   128   177   175   ar
   129   215   216   ar
   130   159   158    1
   131   178   176   ar
   132    58    60   ar
   133    40    42   am
   134    40    39    1
   135   158   157    1
   136    36    34    1
   137   175   173   ar
   138   212   214   ar
   139   205   204    1
   140    34    31    1
   141   176   174   ar
   142   216   214   ar
   143   216   217    1
   144    39    38    1
   145   204   203    1
   146   173   174   ar
   147   173   172    1
   148   157   156    1
   149    31    32    1
   150    31    30    1
   151    32    33    2
   152    30    20   am
   153    18    19    1
   154   167   165    1
   155   156   153    1
   156   196   197    1
   157   196   195    1
   158   172   169    1
   159   203   202    1
   160    20    19    1
   161    20    21    2
   162   150   149    2
   163    25    27   ar
   164    25    23   ar
   165    19    22    1
   166   151   149   am
   167   155   154    2
   168   187   188   ar
   169   187   185   ar
   170   166   165    1
   171   195   194    1
   172    27    28   ar
   173   165   162    1
   174    22    23    1
   175   202   199    1
   176   169   170    1
   177   169   168    1
   178   154   153    1
   179   154   161   am
   180   149   148    1
   181   153   152    1
   182   162   161    1
   183   162   163    1
   184   188   186   ar
   185    23    24   ar
   186   171   170    2
   187   185   184   ar
   188   194   193    1
   189   170   179   am
   190   199   198    1
   191   199   200    1
   192    28    29    1
   193    28    26   ar
   194   193   190    1
   195   186   184   ar
   196   164   163    2
   197   179   180    1
   198   198   191   am
   199    24    26   ar
   200   184   183    1
   201   148   145    1
   202   201   200    2
   203   191   192    2
   204   191   190    1
   205   147   146    2
   206   180   183    1
   207   180   181    1
   208   145   146    1
   209   145   144    1
   210   190   189    1
   211   123   122    2
   212   134   133    1
   213   181   182    2
   214   135   133    1
   215   142   141    1
   216   142   143    1
   217   133   130    1
   218   141   140    1
   219   130   129    1
   220   130   131    1
   221   127   126   ar
   222   140   137    1
   223   122   129   am
   224   122   121    1
   225   136   131   am
   226   136   137    1
   227   120   121    1
   228   131   132    2
   229   139   138    2
   230   137   138    1
   231   126   125    1
   232   126   128   ar
   233   121   124    1
   234   125   124    1
