@<TRIPOS>MOLECULE
tmp/5ktdA00.pdb
 231 228 0 0 0
SMALL
GASTEIGER

@<TRIPOS>ATOM
      1  N         -5.3320   10.5290  -10.2880 N.3    23  ILE23      -0.1245
      2  CA        -5.2650   10.4680   -8.8230 C.3    23  ILE23       0.1561
      3  C         -3.8450   10.1990   -8.3360 C.2    23  ILE23       0.2260
      4  O         -3.3870   10.8890   -7.4140 O.2    23  ILE23      -0.2867
      5  CB        -6.2730    9.4840   -8.2320 C.3    23  ILE23       0.0252
      6  CG1       -7.7040    9.9830   -8.5100 C.3    23  ILE23       0.0019
      7  CG2       -6.1230    9.4190   -6.7210 C.3    23  ILE23       0.0019
      8  CD1       -8.7960    9.0060   -8.1570 C.3    23  ILE23       0.0001
      9  N         -1.9110   12.8890   -5.9700 N.3    27  ARG27      -0.1245
     10  CA        -1.6060   12.5190   -4.5770 C.3    27  ARG27       0.1563
     11  C         -0.1220   12.3460   -4.3380 C.2    27  ARG27       0.2260
     12  O          0.3030   12.4430   -3.2120 O.2    27  ARG27      -0.2867
     13  CB        -2.3340   11.2480   -4.1950 C.3    27  ARG27       0.0307
     14  CG        -3.8460   11.4520   -4.1020 C.3    27  ARG27       0.0489
     15  CD        -4.5200   10.2190   -3.5560 C.3    27  ARG27       0.2205
     16  NE        -4.1590   10.0180   -2.1580 N.pl3  27  ARG27      -0.0865
     17  CZ        -4.8450   10.4140   -1.0920 C.cat  27  ARG27       0.5346
     18  NH1       -6.0110   11.0600   -1.2080 N.pl3  27  ARG27       0.1354
     19  NH2       -4.3410   10.1900    0.1300 N.pl3  27  ARG27       0.1354
     20  N         -0.0060   17.4450    3.7870 N.3    35  TYR35      -0.1227
     21  CA        -0.9050   17.2200    4.8960 C.3    35  TYR35       0.1736
     22  C         -1.9520   16.1240    4.6320 C.2    35  TYR35       0.2595
     23  O         -2.9710   16.0880    5.3180 O.2    35  TYR35      -0.2718
     24  CB        -1.5750   18.5590    5.2440 C.3    35  TYR35       0.0548
     25  CG        -0.5910   19.6210    5.6460 C.ar   35  TYR35      -0.0200
     26  CD1        0.1270   19.5160    6.8440 C.ar   35  TYR35      -0.0009
     27  CD2       -0.3740   20.7280    4.8470 C.ar   35  TYR35      -0.0009
     28  CE1        1.0290   20.4840    7.2220 C.ar   35  TYR35       0.0417
     29  CE2        0.5290   21.7140    5.2100 C.ar   35  TYR35       0.0417
     30  CZ         1.2370   21.5910    6.3910 C.ar   35  TYR35       0.1957
     31  OH         2.1140   22.5910    6.7570 O.3    35  TYR35      -0.2866
     32  N         -1.7240   15.2310    3.6620 N.am   36  ILE36      -0.1966
     33  CA        -2.6970   14.1590    3.4050 C.3    36  ILE36       0.1727
     34  C         -1.9840   12.8480    3.5670 C.2    36  ILE36       0.2617
     35  O         -0.7790   12.8550    3.7380 O.2    36  ILE36      -0.2715
     36  CB        -3.3650   14.2900    2.0180 C.3    36  ILE36       0.0290
     37  CG1       -2.3580   14.0280    0.9030 C.3    36  ILE36       0.0022
     38  CG2       -3.9580   15.6870    1.8990 C.3    36  ILE36       0.0023
     39  CD1       -2.9150   14.1330   -0.5000 C.3    36  ILE36       0.0001
     40  N         -2.7080   11.7340    3.5010 N.am   37  SER37      -0.1936
     41  CA        -2.1110   10.4110    3.6620 C.3    37  SER37       0.2055
     42  C         -1.2560   10.0630    2.4570 C.2    37  SER37       0.2643
     43  O         -1.6550   10.3370    1.3280 O.2    37  SER37      -0.2714
     44  CB        -3.1610    9.2910    3.8080 C.3    37  SER37       0.2130
     45  OG        -3.9410    9.4550    4.9670 O.3    37  SER37      -0.2179
     46  N         -0.0860    9.4550    2.7150 N.am   38  LYS38      -0.1963
     47  CA         0.6920    8.7520    1.7140 C.3    38  LYS38       0.1728
     48  C         -0.1670    7.7630    0.9460 C.2    38  LYS38       0.2617
     49  O         -0.9960    7.0390    1.5310 O.2    38  LYS38      -0.2715
     50  CB         1.7850    7.9040    2.3580 C.3    38  LYS38       0.0311
     51  CG         2.9480    8.6650    2.9200 C.3    38  LYS38       0.0038
     52  CD         4.0010    7.6750    3.4490 C.3    38  LYS38       0.0206
     53  CE         5.2330    8.4160    3.9440 C.3    38  LYS38       0.1093
     54  NZ         6.3150    7.5390    4.4830 N.3    38  LYS38      -0.1314
     55  N          0.0460    7.7000   -0.3610 N.am   39  SER39      -0.1936
     56  CA        -0.6420    6.7120   -1.1730 C.3    39  SER39       0.2055
     57  C          0.1650    6.2910   -2.3870 C.2    39  SER39       0.2643
     58  O          1.0820    6.9900   -2.8190 O.2    39  SER39      -0.2714
     59  CB        -2.0450    7.2310   -1.5710 C.3    39  SER39       0.2130
     60  OG        -2.0300    8.3170   -2.4810 O.3    39  SER39      -0.2179
     61  N         -0.1810    5.1260   -2.9170 N.am   40  THR40      -0.1950
     62  CA         0.5960    4.5190   -3.9590 C.3    40  THR40       0.1897
     63  C          0.7620    5.4310   -5.1700 C.2    40  THR40       0.2313
     64  O         -0.1790    6.1570   -5.5770 O.2    40  THR40      -0.2863
     65  CB        -0.0020    3.1840   -4.4280 C.3    40  THR40       0.1794
     66  OG1        0.8090    2.7310   -5.4930 O.3    40  THR40      -0.2208
     67  CG2       -1.4580    3.3240   -5.0110 C.3    40  THR40       0.0378
     68  N         -3.6280    1.9830   -7.5770 N.3    46  GLN46      -0.1245
     69  CA        -4.6750    2.9800   -7.3870 C.3    46  GLN46       0.1566
     70  C         -5.9700    2.4640   -8.0380 C.2    46  GLN46       0.2260
     71  O         -6.9920    2.5960   -7.4470 O.2    46  GLN46      -0.2867
     72  CB        -4.2320    4.3340   -7.9030 C.3    46  GLN46       0.0367
     73  CG        -5.2630    5.4380   -7.8040 C.3    46  GLN46       0.0905
     74  CD        -5.6820    5.7590   -6.4010 C.2    46  GLN46       0.2608
     75  OE1       -4.8760    5.8130   -5.4990 O.2    46  GLN46      -0.2717
     76  NE2       -6.9610    6.0480   -6.2300 N.am   46  GLN46      -0.0878
     77  N         -7.5820    0.2200   -5.5660 N.3    49  TRP49      -0.1241
     78  CA        -8.2160    1.0330   -4.5200 C.3    49  TRP49       0.1605
     79  C         -9.6050    1.5140   -4.9820 C.2    49  TRP49       0.2264
     80  O        -10.5950    1.4550   -4.2250 O.2    49  TRP49      -0.2867
     81  CB        -7.3020    2.2290   -4.1500 C.3    49  TRP49       0.0550
     82  CG        -7.6370    2.8690   -2.8520 C.ar   49  TRP49       0.0003
     83  CD1       -7.0030    2.6760   -1.6380 C.ar   49  TRP49       0.0946
     84  CD2       -8.6900    3.7860   -2.6010 C.ar   49  TRP49       0.0152
     85  NE1       -7.6080    3.4300   -0.6610 N.ar   49  TRP49      -0.2442
     86  CE2       -8.6430    4.1220   -1.2270 C.ar   49  TRP49       0.0810
     87  CE3       -9.6800    4.3740   -3.3980 C.ar   49  TRP49       0.0012
     88  CZ2       -9.5580    5.0050   -0.6480 C.ar   49  TRP49       0.0191
     89  CZ3      -10.5750    5.2580   -2.7930 C.ar   49  TRP49       0.0001
     90  CH2      -10.5160    5.5420   -1.4520 C.ar   49  TRP49       0.0015
     91  N        -16.9500    9.3210   -4.0830 N.3    64  TYR64      -0.1241
     92  CA       -15.6410    9.8510   -4.3750 C.3    64  TYR64       0.1605
     93  C        -15.7560   10.5130   -5.7240 C.2    64  TYR64       0.2264
     94  O        -16.2800    9.8980   -6.6540 O.2    64  TYR64      -0.2867
     95  CB       -14.6790    8.7020   -4.4310 C.3    64  TYR64       0.0534
     96  CG       -13.2020    9.0030   -4.4680 C.ar   64  TYR64      -0.0201
     97  CD1      -12.6900   10.2500   -4.1750 C.ar   64  TYR64      -0.0009
     98  CD2      -12.2840    7.9770   -4.7460 C.ar   64  TYR64      -0.0009
     99  CE1      -11.2970   10.4710   -4.1690 C.ar   64  TYR64       0.0417
    100  CE2      -10.9220    8.2190   -4.7800 C.ar   64  TYR64       0.0417
    101  CZ       -10.4360    9.4850   -4.5120 C.ar   64  TYR64       0.1957
    102  OH        -9.0460    9.7450   -4.5080 O.3    64  TYR64      -0.2866
    103  N        -14.0150   13.6730   -1.4720 N.3    80  ARG80      -0.1245
    104  CA       -14.6480   12.4040   -1.0310 C.3    80  ARG80       0.1563
    105  C        -15.5510   12.5610    0.1880 C.2    80  ARG80       0.2260
    106  O        -15.1590   13.2450    1.1410 O.2    80  ARG80      -0.2867
    107  CB       -13.5520   11.3830   -0.7220 C.3    80  ARG80       0.0307
    108  CG       -14.0160    9.9530   -0.5360 C.3    80  ARG80       0.0489
    109  CD       -12.8490    8.9630   -0.6460 C.3    80  ARG80       0.2205
    110  NE       -11.8840    9.2490    0.4140 N.pl3  80  ARG80      -0.0865
    111  CZ       -11.5730    8.5030    1.4910 C.cat  80  ARG80       0.5346
    112  NH1      -12.0770    7.3000    1.7010 N.pl3  80  ARG80       0.1354
    113  NH2      -10.6650    8.9710    2.3530 N.pl3  80  ARG80       0.1354
    114  N        -17.3820   10.0880    3.0110 N.3    82  TYR82      -0.1241
    115  CA       -17.1000    8.7420    3.5330 C.3    82  TYR82       0.1605
    116  C        -17.3710    8.6440    5.0470 C.2    82  TYR82       0.2264
    117  O        -17.5950    9.6370    5.7340 O.2    82  TYR82      -0.2867
    118  CB       -15.6460    8.3400    3.1670 C.3    82  TYR82       0.0534
    119  CG       -14.5520    9.1500    3.8800 C.ar   82  TYR82      -0.0201
    120  CD1      -14.3490   10.5110    3.6080 C.ar   82  TYR82      -0.0009
    121  CD2      -13.6820    8.5290    4.8710 C.ar   82  TYR82      -0.0009
    122  CE1      -13.3500   11.2270    4.2830 C.ar   82  TYR82       0.0417
    123  CE2      -12.7070    9.2560    5.5430 C.ar   82  TYR82       0.0417
    124  CZ       -12.5510   10.6230    5.2610 C.ar   82  TYR82       0.1957
    125  OH       -11.5430   11.3660    5.8800 O.3    82  TYR82      -0.2866
    126  N        -16.0610   14.1010    5.2380 N.3    93  TRP93      -0.1227
    127  CA       -15.5080   14.4150    3.9540 C.3    93  TRP93       0.1737
    128  C        -14.0350   14.8250    4.0280 C.2    93  TRP93       0.2596
    129  O        -13.5130   15.1120    5.0990 O.2    93  TRP93      -0.2718
    130  CB       -16.3400   15.4520    3.2250 C.3    93  TRP93       0.0564
    131  CG       -16.2330   16.9010    3.6300 C.ar   93  TRP93       0.0003
    132  CD1      -16.8370   17.5210    4.6810 C.ar   93  TRP93       0.0946
    133  CD2      -15.5900   17.9330    2.8740 C.ar   93  TRP93       0.0152
    134  NE1      -16.5890   18.8950    4.6320 N.ar   93  TRP93      -0.2442
    135  CE2      -15.8450   19.1650    3.5220 C.ar   93  TRP93       0.0810
    136  CE3      -14.8330   17.9320    1.6940 C.ar   93  TRP93       0.0012
    137  CZ2      -15.3340   20.3970    3.0500 C.ar   93  TRP93       0.0191
    138  CZ3      -14.2920   19.1810    1.2250 C.ar   93  TRP93       0.0001
    139  CH2      -14.5850   20.3850    1.8990 C.ar   93  TRP93       0.0015
    140  N        -13.4130   14.7920    2.8750 N.am   94  GLY94      -0.1942
    141  CA       -11.9780   15.0150    2.7660 C.3    94  GLY94       0.2014
    142  C        -11.4330   14.4730    1.4890 C.2    94  GLY94       0.2640
    143  O        -12.1140   14.5790    0.4520 O.2    94  GLY94      -0.2714
    144  N        -10.1950   13.9450    1.5210 N.am   95  SER95      -0.1935
    145  CA        -9.4700   13.6500    0.2810 C.3    95  SER95       0.2055
    146  C         -9.5150   14.8520   -0.6760 C.2    95  SER95       0.2643
    147  O         -9.6340   14.6940   -1.8930 O.2    95  SER95      -0.2714
    148  CB        -9.9870   12.3730   -0.4070 C.3    95  SER95       0.2130
    149  OG        -9.9550   11.2630    0.4700 O.3    95  SER95      -0.2179
    150  N         -9.3770   16.0430   -0.1160 N.am   96  TRP96      -0.1973
    151  CA        -9.7390   17.2800   -0.8050 C.3    96  TRP96       0.1640
    152  C         -8.4530   17.9420   -1.3250 C.2    96  TRP96       0.2290
    153  O         -7.6370   18.4450   -0.5370 O.2    96  TRP96      -0.2864
    154  CB       -10.4360   18.1870    0.1630 C.3    96  TRP96       0.0576
    155  CG       -11.0500   19.4110   -0.4500 C.ar   96  TRP96       0.0006
    156  CD1      -11.6850   19.5280   -1.6640 C.ar   96  TRP96       0.0946
    157  CD2      -11.1600   20.6710    0.1910 C.ar   96  TRP96       0.0152
    158  NE1      -12.1330   20.8270   -1.8220 N.ar   96  TRP96      -0.2442
    159  CE2      -11.8540   21.5330   -0.6890 C.ar   96  TRP96       0.0810
    160  CE3      -10.7340   21.1610    1.4470 C.ar   96  TRP96       0.0012
    161  CZ2      -12.1130   22.8460   -0.3820 C.ar   96  TRP96       0.0191
    162  CZ3      -10.9870   22.4860    1.7640 C.ar   96  TRP96       0.0001
    163  CH2      -11.6680   23.3220    0.8280 C.ar   96  TRP96       0.0015
    164  N        -14.9920   16.3070    9.8910 N.3   129  PHE129     -0.1227
    165  CA       -13.7390   16.2400    9.1940 C.3   129  PHE129      0.1736
    166  C        -12.6250   16.7730   10.0910 C.2   129  PHE129      0.2595
    167  O        -12.8780   17.3950   11.1130 O.2   129  PHE129     -0.2718
    168  CB       -13.7820   17.0380    7.8600 C.3   129  PHE129      0.0547
    169  CG       -14.1250   18.4680    8.0260 C.ar  129  PHE129     -0.0202
    170  CD1      -15.4380   18.8940    7.9840 C.ar  129  PHE129     -0.0042
    171  CD2      -13.1170   19.4020    8.2620 C.ar  129  PHE129     -0.0042
    172  CE1      -15.7430   20.2420    8.1100 C.ar  129  PHE129     -0.0003
    173  CE2      -13.4290   20.7590    8.3960 C.ar  129  PHE129     -0.0003
    174  CZ       -14.7220   21.1610    8.3220 C.ar  129  PHE129     -0.0000
    175  N        -11.4040   16.5610    9.6600 N.am  130  GLU130     -0.1965
    176  CA       -10.2530   17.0110   10.3850 C.3   130  GLU130      0.1733
    177  C         -9.2310   17.5660    9.4270 C.2   130  GLU130      0.2616
    178  O         -9.2830   17.2830    8.2470 O.2   130  GLU130     -0.2715
    179  CB        -9.6460   15.8610   11.2000 C.3   130  GLU130      0.0429
    180  CG        -9.0240   14.7120   10.4470 C.3   130  GLU130      0.1163
    181  CD        -9.9260   13.5310   10.2710 C.2   130  GLU130      0.3649
    182  OE1       -9.8130   12.8120    9.2790 O.co2 130  GLU130     -0.2457
    183  OE2      -10.7470   13.2830   11.1320 O.co2 130  GLU130     -0.2457
    184  N         -8.3010   18.3400    9.9710 N.am  131  VAL131     -0.1963
    185  CA        -7.2980   19.0410    9.2030 C.3   131  VAL131      0.1727
    186  C         -6.0440   18.9870   10.0400 C.2   131  VAL131      0.2616
    187  O         -6.1070   19.2550   11.2390 O.2   131  VAL131     -0.2715
    188  CB        -7.6890   20.5090    9.0530 C.3   131  VAL131      0.0290
    189  CG1       -6.6150   21.3180    8.3220 C.3   131  VAL131      0.0023
    190  CG2       -9.0890   20.6410    8.3900 C.3   131  VAL131      0.0023
    191  N         -4.9170   18.6340    9.4330 N.am  132  MET132     -0.1977
    192  CA        -3.6370   18.6230   10.1650 C.3   132  MET132      0.1605
    193  C         -3.2530   19.9300   10.7580 C.2   132  MET132      0.2287
    194  O         -3.3540   20.9480   10.1220 O.2   132  MET132     -0.2864
    195  CB        -2.4770   18.1540    9.2880 C.3   132  MET132      0.0413
    196  CG        -2.5500   16.6420    9.0630 C.3   132  MET132      0.0598
    197  SD        -1.0150   15.8900    8.4840 S.3   132  MET132     -0.1393
    198  CE        -0.0200   15.9860    9.9810 C.3   132  MET132      0.0692
    199  N         -1.5250   22.8930    8.6240 N.3   135  ASN135     -0.1240
    200  CA        -2.2240   23.2330    7.3690 C.3   135  ASN135      0.1653
    201  C         -3.0640   24.4970    7.4940 C.2   135  ASN135      0.2266
    202  O         -4.2950   24.5070    7.3170 O.2   135  ASN135     -0.2867
    203  CB        -3.0650   22.0310    6.9300 C.3   135  ASN135      0.1155
    204  CG        -3.3090   21.9690    5.4230 C.2   135  ASN135      0.2627
    205  OD1       -3.0010   22.8810    4.6580 O.2   135  ASN135     -0.2716
    206  ND2       -3.8540   20.8430    4.9990 N.am  135  ASN135     -0.0877
    207  N         -6.1700   25.9840    5.5970 N.3   138  VAL138     -0.1245
    208  CA        -7.3420   25.0640    5.5100 C.3   138  VAL138      0.1561
    209  C         -8.2210   25.2510    6.7730 C.2   138  VAL138      0.2260
    210  O         -9.4650   25.4100    6.7040 O.2   138  VAL138     -0.2867
    211  CB        -6.8600   23.6120    5.2370 C.3   138  VAL138      0.0252
    212  CG1       -8.0380   22.6200    5.1810 C.3   138  VAL138      0.0019
    213  CG2       -6.0630   23.5890    3.9340 C.3   138  VAL138      0.0019
    214  N        -12.1720   26.6360    6.7040 N.3   142  HIS142     -0.1241
    215  CA       -13.3330   25.9590    7.3280 C.3   142  HIS142      0.1621
    216  C        -13.9660   26.8470    8.3840 C.2   142  HIS142      0.2264
    217  O        -15.1980   26.9210    8.4450 O.2   142  HIS142     -0.2867
    218  CB       -12.9640   24.5810    7.9150 C.3   142  HIS142      0.0745
    219  CG       -12.5860   23.5730    6.8780 C.ar  142  HIS142      0.0817
    220  ND1      -13.4470   23.1960    5.8750 N.ar  142  HIS142     -0.2268
    221  CD2      -11.4350   22.8980    6.6620 C.ar  142  HIS142      0.1154
    222  CE1      -12.8450   22.3160    5.0960 C.ar  142  HIS142      0.1986
    223  NE2      -11.6200   22.1180    5.5560 N.ar  142  HIS142     -0.2212
    224  N         -4.0510   16.5780   14.5080 N.3   156  ASN156     -0.1240
    225  CA        -5.2290   17.2020   13.8700 C.3   156  ASN156      0.1653
    226  C         -6.0040   18.1520   14.7250 C.2   156  ASN156      0.2266
    227  O         -5.9550   18.0510   15.9740 O.2   156  ASN156     -0.2867
    228  CB        -6.2230   16.0900   13.5130 C.3   156  ASN156      0.1155
    229  CG        -5.6530   15.1230   12.5310 C.2   156  ASN156      0.2627
    230  OD1       -4.9030   15.5330   11.6450 O.2   156  ASN156     -0.2716
    231  ND2       -5.9620   13.8580   12.6700 N.am  156  ASN156     -0.0877
@<TRIPOS>BOND
     1     1     2    1
     2     2     3    1
     3     2     5    1
     4     6     5    1
     5     6     8    1
     6     3     4    2
     7     5     7    1
     8    70    71    2
     9    70    69    1
    10    72    73    1
    11    72    69    1
    12    73    74    1
    13    68    69    1
    14    94    93    2
    15    74    76   am
    16    74    75    2
    17     9    10    1
    18    93    92    1
    19    64    63    2
    20    77    78    1
    21    66    65    1
    22    63    62    1
    23    67    65    1
    24    79    78    1
    25    79    80    2
    26   100    98   ar
    27   100   101   ar
    28    98    96   ar
    29    10    11    1
    30    10    13    1
    31    78    81    1
    32   101   102    1
    33   101    99   ar
    34    96    95    1
    35    96    97   ar
    36    95    92    1
    37    65    62    1
    38    92    91    1
    39    11    12    2
    40    13    14    1
    41    97    99   ar
    42    81    82    1
    43    14    15    1
    44    62    61    1
    45    15    16    1
    46    87    89   ar
    47    87    84   ar
    48    61    57   am
    49    82    84   ar
    50    82    83   ar
    51    58    57    2
    52    89    90   ar
    53    84    86   ar
    54    60    59    1
    55    57    56    1
    56    16    17    2
    57   147   146    2
    58   158   156   ar
    59   158   159   ar
    60   156   155   ar
    61    83    85   ar
    62    59    56    1
    63   103   104    1
    64    90    88   ar
    65   152   151    1
    66   152   153    2
    67    86    85   ar
    68    86    88   ar
    69    18    17    1
    70    56    55    1
    71    17    19    1
    72   104   107    1
    73   104   105    1
    74   151   150    1
    75   151   154    1
    76   107   108    1
    77   159   161   ar
    78   159   157   ar
    79   146   150   am
    80   146   145    1
    81   109   108    1
    82   109   110    1
    83    39    37    1
    84   155   154    1
    85   155   157   ar
    86   148   145    1
    87   148   149    1
    88   161   163   ar
    89    55    48   am
    90   105   106    2
    91   157   160   ar
    92   145   144    1
    93   110   111    2
    94   143   142    2
    95   163   162   ar
    96    37    36    1
    97    48    49    2
    98    48    47    1
    99   138   136   ar
   100   138   139   ar
   101    43    42    2
   102   160   162   ar
   103   142   144   am
   104   142   141    1
   105   111   112    1
   106   111   113    1
   107   136   133   ar
   108    47    50    1
   109    47    46    1
   110   139   137   ar
   111    38    36    1
   112    36    33    1
   113    50    51    1
   114    42    46   am
   115    42    41    1
   116   141   140    1
   117   133   135   ar
   118   133   131   ar
   119   140   128   am
   120    51    52    1
   121   114   115    1
   122   137   135   ar
   123   118   115    1
   124   118   119    1
   125   130   131    1
   126   130   127    1
   127    33    34    1
   128    33    32    1
   129    52    53    1
   130    40    34   am
   131    40    41    1
   132   135   134   ar
   133   115   116    1
   134    34    35    2
   135   120   119   ar
   136   120   122   ar
   137   131   132   ar
   138    32    22   am
   139    41    44    1
   140    20    21    1
   141    44    45    1
   142   119   121   ar
   143   213   211    1
   144    53    54    1
   145   127   128    1
   146   127   126    1
   147   128   129    2
   148   122   124   ar
   149   134   132   ar
   150    22    21    1
   151    22    23    2
   152   205   204    2
   153    27    29   ar
   154    27    25   ar
   155   121   123   ar
   156    21    24    1
   157   206   204   am
   158   116   117    2
   159   222   223   ar
   160   222   220   ar
   161   212   211    1
   162    29    30   ar
   163   211   208    1
   164    24    25    1
   165   124   123   ar
   166   124   125    1
   167   204   203    1
   168   208   207    1
   169   208   209    1
   170   223   221   ar
   171    25    26   ar
   172   220   219   ar
   173    30    31    1
   174    30    28   ar
   175   221   219   ar
   176   210   209    2
   177   214   215    1
   178    26    28   ar
   179   219   218    1
   180   203   200    1
   181   202   201    2
   182   215   218    1
   183   215   216    1
   184   200   201    1
   185   200   199    1
   186   168   169    1
   187   168   165    1
   188   170   169   ar
   189   170   172   ar
   190   169   171   ar
   191   172   174   ar
   192   178   177    2
   193   171   173   ar
   194   189   188    1
   195   174   173   ar
   196   216   217    2
   197   190   188    1
   198   197   196    1
   199   197   198    1
   200   188   185    1
   201   196   195    1
   202   165   164    1
   203   165   166    1
   204   185   184    1
   205   185   186    1
   206   182   181   ar
   207   195   192    1
   208   177   184   am
   209   177   176    1
   210   191   186   am
   211   191   192    1
   212   175   166   am
   213   175   176    1
   214   186   187    2
   215   166   167    2
   216   194   193    2
   217   192   193    1
   218   181   180    1
   219   181   183   ar
   220   176   179    1
   221   180   179    1
   222   230   229    2
   223   229   231   am
   224   229   228    1
   225   228   225    1
   226   225   224    1
   227   225   226    1
   228   226   227    2
