@<TRIPOS>MOLECULE
tmp/5ktnA00.pdb
 150 142 0 0 0
SMALL
GASTEIGER

@<TRIPOS>ATOM
      1  N         21.9370   33.7610    2.9440 N.3    25  HIS25      -0.1241
      2  CA        21.5710   33.7680    4.3480 C.3    25  HIS25       0.1621
      3  C         22.8160   33.9000    5.2310 C.2    25  HIS25       0.2264
      4  O         23.9390   33.5410    4.8440 O.2    25  HIS25      -0.2867
      5  CB        20.8150   32.4940    4.7160 C.3    25  HIS25       0.0745
      6  CG        20.2710   32.5260    6.1060 C.ar   25  HIS25       0.0817
      7  ND1       20.9240   31.9390    7.1700 N.ar   25  HIS25      -0.2268
      8  CD2       19.1680   33.1260    6.6190 C.ar   25  HIS25       0.1154
      9  CE1       20.2340   32.1620    8.2780 C.ar   25  HIS25       0.1986
     10  NE2       19.1630   32.8790    7.9710 N.ar   25  HIS25      -0.2212
     11  N         23.8690   32.1020    7.5300 N.3    27  TYR27      -0.1241
     12  CA        24.5490   30.8590    7.8800 C.3    27  TYR27       0.1605
     13  C         25.4210   30.3290    6.7450 C.2    27  TYR27       0.2264
     14  O         25.9790   29.2340    6.8640 O.2    27  TYR27      -0.2867
     15  CB        23.5500   29.7580    8.2550 C.3    27  TYR27       0.0534
     16  CG        22.6620   30.0280    9.4590 C.ar   27  TYR27      -0.0201
     17  CD1       22.9610   31.0220   10.3940 C.ar   27  TYR27      -0.0009
     18  CD2       21.5110   29.2720    9.6580 C.ar   27  TYR27      -0.0009
     19  CE1       22.1320   31.2470   11.4920 C.ar   27  TYR27       0.0417
     20  CE2       20.6750   29.4830   10.7380 C.ar   27  TYR27       0.0417
     21  CZ        20.9790   30.4720   11.6520 C.ar   27  TYR27       0.1957
     22  OH        20.1130   30.6630   12.7130 O.3    27  TYR27      -0.2866
     23  N         18.6990   37.7490    7.1510 N.3    41  ASP41      -0.1225
     24  CA        17.9110   36.7120    7.7980 C.3    41  ASP41       0.1805
     25  C         16.7130   36.3730    6.9120 C.2    41  ASP41       0.2598
     26  O         16.5530   36.9160    5.8170 O.2    41  ASP41      -0.2718
     27  CB        17.5630   37.0990    9.2440 C.3    41  ASP41       0.1424
     28  CG        16.4370   38.1200    9.3630 C.2    41  ASP41       0.3668
     29  OD1       16.0150   38.7080    8.3440 O.co2  41  ASP41      -0.2456
     30  OD2       15.9800   38.3280   10.5230 O.co2  41  ASP41      -0.2456
     31  N         15.8640   35.4550    7.3790 N.am   42  SER42      -0.1952
     32  CA        14.7650   34.9930    6.5370 C.3    42  SER42       0.1924
     33  C         13.8180   36.1310    6.1620 C.2    42  SER42       0.2314
     34  O         13.4110   36.2470    5.0000 O.2    42  SER42      -0.2863
     35  CB        14.0150   33.8580    7.2250 C.3    42  SER42       0.2116
     36  OG        13.0080   33.3360    6.3780 O.3    42  SER42      -0.2180
     37  N         13.4190   26.3510    1.2240 N.3    64  PHE64      -0.1227
     38  CA        12.2380   27.1620    1.5200 C.3    64  PHE64       0.1736
     39  C         12.5060   28.6410    1.2750 C.2    64  PHE64       0.2595
     40  O         11.5880   29.3890    0.9220 O.2    64  PHE64      -0.2718
     41  CB        11.6780   26.8830    2.9300 C.3    64  PHE64       0.0547
     42  CG        12.4750   27.5060    4.0660 C.ar   64  PHE64      -0.0202
     43  CD1       12.3350   28.8560    4.3910 C.ar   64  PHE64      -0.0042
     44  CD2       13.3320   26.7260    4.8290 C.ar   64  PHE64      -0.0042
     45  CE1       13.0520   29.4100    5.4330 C.ar   64  PHE64      -0.0003
     46  CE2       14.0500   27.2770    5.8840 C.ar   64  PHE64      -0.0003
     47  CZ        13.9170   28.6180    6.1810 C.ar   64  PHE64      -0.0000
     48  N         13.7580   29.0680    1.4310 N.am   65  MET65      -0.1979
     49  CA        14.1120   30.4580    1.1680 C.3    65  MET65       0.1605
     50  C         14.1060   30.7510   -0.3260 C.2    65  MET65       0.2287
     51  O         13.5660   31.7750   -0.7640 O.2    65  MET65      -0.2864
     52  CB        15.4720   30.7690    1.7850 C.3    65  MET65       0.0413
     53  CG        15.4950   30.5820    3.2870 C.3    65  MET65       0.0598
     54  SD        17.1430   30.9240    3.9520 S.3    65  MET65      -0.1393
     55  CE        16.8230   30.6530    5.7020 C.3    65  MET65       0.0692
     56  N         15.9130   22.3320    4.5850 N.3    87  CYS87      -0.1235
     57  CA        15.6740   22.5590    6.0050 C.3    87  CYS87       0.1677
     58  C         14.8890   21.3910    6.5860 C.2    87  CYS87       0.2270
     59  O         13.7270   21.1650    6.2100 O.2    87  CYS87      -0.2867
     60  CB        14.8810   23.8500    6.2140 C.3    87  CYS87       0.0956
     61  SG        14.3780   24.1380    7.9060 S.3    87  CYS87      -0.0801
     62  N          5.4610   29.4230    9.9290 N.3   113  TYR113     -0.1241
     63  CA         6.8490   29.8310    9.8220 C.3   113  TYR113      0.1605
     64  C          7.2540   29.7660    8.3560 C.2   113  TYR113      0.2264
     65  O          6.8320   28.8730    7.6180 O.2   113  TYR113     -0.2867
     66  CB         7.6950   28.8320   10.6120 C.3   113  TYR113      0.0534
     67  CG         8.9830   29.3330   11.2280 C.ar  113  TYR113     -0.0201
     68  CD1        9.3350   30.6830   11.2310 C.ar  113  TYR113     -0.0009
     69  CD2        9.8430   28.4390   11.8400 C.ar  113  TYR113     -0.0009
     70  CE1       10.5240   31.1030   11.8120 C.ar  113  TYR113      0.0417
     71  CE2       11.0150   28.8520   12.4120 C.ar  113  TYR113      0.0417
     72  CZ        11.3530   30.1700   12.4030 C.ar  113  TYR113      0.1957
     73  OH        12.5400   30.5380   12.9940 O.3   113  TYR113     -0.2866
     74  N          9.9310   28.7160    7.3300 N.3   115  ASN115     -0.1240
     75  CA        10.4690   27.3580    7.2270 C.3   115  ASN115      0.1653
     76  C          9.3000   26.4010    7.0140 C.2   115  ASN115      0.2266
     77  O          8.8270   25.7360    7.9390 O.2   115  ASN115     -0.2867
     78  CB        11.2210   26.9650    8.4990 C.3   115  ASN115      0.1155
     79  CG        12.2700   27.9780    8.9160 C.2   115  ASN115      0.2627
     80  OD1       12.0040   29.1800    9.0250 O.2   115  ASN115     -0.2716
     81  ND2       13.4770   27.4860    9.1840 N.am  115  ASN115     -0.0877
     82  N          8.4540   34.9320   10.4260 N.3   129  THR129     -0.1203
     83  CA         9.7930   34.4540   10.7500 C.3   129  THR129      0.1994
     84  C         10.0250   34.7100   12.2260 C.2   129  THR129      0.2618
     85  O          9.1730   35.2750   12.9260 O.2   129  THR129     -0.2717
     86  CB        10.8950   35.1400    9.9290 C.3   129  THR129      0.1784
     87  OG1       11.1940   36.4250   10.4930 O.3   129  THR129     -0.2211
     88  CG2       10.4740   35.2880    8.4850 C.3   129  THR129      0.0376
     89  N         11.2020   34.3050   12.7070 N.am  130  SER130     -0.1951
     90  CA        11.5430   34.5820   14.0960 C.3   130  SER130      0.1924
     91  C         11.5350   36.0720   14.4040 C.2   130  SER130      0.2314
     92  O         11.3190   36.4530   15.5580 O.2   130  SER130     -0.2863
     93  CB        12.8950   33.9660   14.4410 C.3   130  SER130      0.2116
     94  OG        12.7620   32.5710   14.6380 O.3   130  SER130     -0.2180
     95  N         14.2760   22.3890   15.1810 N.3   174  CYS174     -0.1235
     96  CA        15.5130   22.4730   14.4160 C.3   174  CYS174      0.1677
     97  C         16.6160   21.7260   15.1640 C.2   174  CYS174      0.2270
     98  O         16.9710   22.1090   16.2860 O.2   174  CYS174     -0.2867
     99  CB        15.9070   23.9410   14.2480 C.3   174  CYS174      0.0956
    100  SG        17.6180   24.1460   13.6680 S.3   174  CYS174     -0.0801
    101  N         19.6350   24.0380   16.4930 N.3   177  HIS177     -0.1241
    102  CA        19.4210   24.8040   17.7100 C.3   177  HIS177      0.1621
    103  C         19.1510   23.9190   18.9160 C.2   177  HIS177      0.2264
    104  O         19.4070   24.3490   20.0420 O.2   177  HIS177     -0.2867
    105  CB        18.3400   25.8630   17.4890 C.3   177  HIS177      0.0745
    106  CG        18.7970   26.9740   16.6030 C.ar  177  HIS177      0.0817
    107  ND1       18.6520   26.9390   15.2330 N.ar  177  HIS177     -0.2268
    108  CD2       19.4680   28.1200   16.8830 C.ar  177  HIS177      0.1154
    109  CE1       19.1830   28.0320   14.7110 C.ar  177  HIS177      0.1986
    110  NE2       19.6910   28.7590   15.6890 N.ar  177  HIS177     -0.2212
    111  N         18.7990   32.4390   19.7160 N.3   200  HIS200     -0.1241
    112  CA        17.7460   32.3080   18.7290 C.3   200  HIS200      0.1621
    113  C         16.5180   31.6410   19.3570 C.2   200  HIS200      0.2264
    114  O         16.6620   30.7250   20.1680 O.2   200  HIS200     -0.2867
    115  CB        18.2480   31.4480   17.5620 C.3   200  HIS200      0.0745
    116  CG        17.4720   31.6520   16.3070 C.ar  200  HIS200      0.0817
    117  ND1       16.2470   31.0560   16.0820 N.ar  200  HIS200     -0.2268
    118  CD2       17.7160   32.4360   15.2290 C.ar  200  HIS200      0.1154
    119  CE1       15.7940   31.4330   14.8990 C.ar  200  HIS200      0.1986
    120  NE2       16.6600   32.2800   14.3660 N.ar  200  HIS200     -0.2212
    121  N         14.6570   29.4640   18.1690 N.3   202  GLU202     -0.1245
    122  CA        14.6080   28.0330   17.8820 C.3   202  GLU202      0.1567
    123  C         15.3070   27.1970   18.9510 C.2   202  GLU202      0.2260
    124  O         15.1910   25.9680   18.9260 O.2   202  GLU202     -0.2867
    125  CB        15.1620   27.7420   16.4760 C.3   202  GLU202      0.0388
    126  CG        14.2500   28.2680   15.3590 C.3   202  GLU202      0.1160
    127  CD        14.9010   28.2230   13.9910 C.2   202  GLU202      0.3649
    128  OE1       15.9680   27.5930   13.8760 O.co2 202  GLU202     -0.2457
    129  OE2       14.3530   28.8130   13.0340 O.co2 202  GLU202     -0.2457
    130  N         15.8270   36.8000   16.1360 N.3   216  SER216     -0.1202
    131  CA        16.2370   36.2460   14.8560 C.3   216  SER216      0.2020
    132  C         17.6890   36.6350   14.5880 C.2   216  SER216      0.2619
    133  O         18.2570   37.5090   15.2520 O.2   216  SER216     -0.2717
    134  CB        15.3720   36.8240   13.7370 C.3   216  SER216      0.2103
    135  OG        15.7050   38.1790   13.4770 O.3   216  SER216     -0.2182
    136  N         18.3000   35.9990   13.5830 N.am  217  THR217     -0.1952
    137  CA        19.6590   36.4180   13.2390 C.3   217  THR217      0.1897
    138  C         19.6940   37.8840   12.7940 C.2   217  THR217      0.2313
    139  O         20.6620   38.6010   13.0760 O.2   217  THR217     -0.2863
    140  CB        20.3030   35.4900   12.1970 C.3   217  THR217      0.1794
    141  OG1       19.6120   35.5860   10.9480 O.3   217  THR217     -0.2208
    142  CG2       20.3130   34.0310   12.6720 C.3   217  THR217      0.0378
    143  N         22.3800   24.3160    4.8320 N.3   263  MET263     -0.1245
    144  CA        23.0540   25.5600    4.4700 C.3   263  MET263      0.1570
    145  C         24.3980   25.2830    3.8160 C.2   263  MET263      0.2261
    146  O         24.7590   25.9170    2.8170 O.2   263  MET263     -0.2867
    147  CB        23.2340   26.4320    5.7130 C.3   263  MET263      0.0387
    148  CG        21.9380   27.0730    6.1740 C.3   263  MET263      0.0595
    149  SD        21.3960   28.3810    5.0330 S.3   263  MET263     -0.1393
    150  CE        19.8820   28.9080    5.8460 C.3   263  MET263      0.0692
@<TRIPOS>BOND
     1    51    50    2
     2    50    49    1
     3    40    39    2
     4    49    48    1
     5    49    52    1
     6    37    38    1
     7    39    48   am
     8    39    38    1
     9    38    41    1
    10    52    53    1
    11   146   145    2
    12    41    42    1
    13     1     2    1
    14    53    54    1
    15   145   144    1
    16    54    55    1
    17    42    43   ar
    18    42    44   ar
    19     2     5    1
    20     2     3    1
    21    43    45   ar
    22   144   143    1
    23   144   147    1
    24    56    57    1
    25     5     6    1
    26    44    46   ar
    27     4     3    2
    28    34    33    2
    29   149   150    1
    30   149   148    1
    31    45    47   ar
    32   147   148    1
    33    26    25    2
    34    46    47   ar
    35    57    60    1
    36    57    58    1
    37     6     8   ar
    38     6     7   ar
    39    33    32    1
    40    59    58    2
    41    60    61    1
    42    36    35    1
    43    32    35    1
    44    32    31    1
    45     8    10   ar
    46    13    14    2
    47    13    12    1
    48    25    31   am
    49    25    24    1
    50    76    75    1
    51    76    77    2
    52    23    24    1
    53     7     9   ar
    54    75    74    1
    55    75    78    1
    56    11    12    1
    57    65    64    2
    58    24    27    1
    59    12    15    1
    60    10     9   ar
    61    15    16    1
    62    29    28   ar
    63    64    63    1
    64    88    86    1
    65    78    79    1
    66    79    80    2
    67    79    81   am
    68    27    28    1
    69    28    30   ar
    70    16    18   ar
    71    16    17   ar
    72    18    20   ar
    73    63    62    1
    74    63    66    1
    75    86    87    1
    76    86    83    1
    77    17    19   ar
    78    82    83    1
    79    66    67    1
    80    20    21   ar
    81    83    84    1
    82   141   140    1
    83    67    68   ar
    84    67    69   ar
    85    68    70   ar
    86    19    21   ar
    87    21    22    1
    88    70    72   ar
    89    69    71   ar
    90   140   142    1
    91   140   137    1
    92    84    89   am
    93    84    85    2
    94    72    71   ar
    95    72    73    1
    96    89    90    1
    97   138   139    2
    98   138   137    1
    99   129   127   ar
   100   137   136    1
   101   135   134    1
   102   136   132   am
   103   100    99    1
   104   134   131    1
   105   128   127   ar
   106   127   126    1
   107    90    91    1
   108    90    93    1
   109    99    96    1
   110   120   119   ar
   111   120   118   ar
   112    91    92    2
   113    96    97    1
   114    96    95    1
   115    93    94    1
   116   132   131    1
   117   132   133    2
   118   109   107   ar
   119   109   110   ar
   120   131   130    1
   121   119   117   ar
   122    97    98    2
   123   118   116   ar
   124   107   106   ar
   125   126   125    1
   126   110   108   ar
   127   117   116   ar
   128   116   115    1
   129   125   122    1
   130   101   102    1
   131   106   108   ar
   132   106   105    1
   133   105   102    1
   134   115   112    1
   135   102   103    1
   136   122   121    1
   137   122   123    1
   138   112   113    1
   139   112   111    1
   140   103   104    2
   141   124   123    2
   142   113   114    2
