@<TRIPOS>MOLECULE
tmp/5ktoA01.pdb
 77 74 0 0 0
SMALL
GASTEIGER

@<TRIPOS>ATOM
      1  N         -5.8240   22.6810   10.2030 N.3    97  LYS97      -0.1245
      2  CA        -6.8830   23.5660    9.7270 C.3    97  LYS97       0.1561
      3  C         -8.2690   22.9950    9.9980 C.2    97  LYS97       0.2260
      4  O         -9.2210   23.7550   10.1990 O.2    97  LYS97      -0.2867
      5  CB        -6.7020   23.8710    8.2390 C.3    97  LYS97       0.0271
      6  CG        -5.5380   24.8050    7.9340 C.3    97  LYS97       0.0035
      7  CD        -5.4500   25.1170    6.4440 C.3    97  LYS97       0.0206
      8  CE        -6.6810   25.8670    5.9540 C.3    97  LYS97       0.1093
      9  NZ        -6.7580   27.2400    6.5390 N.3    97  LYS97      -0.1314
     10  N        -10.5180   25.7350   12.1530 N.3   101  PRO101     -0.2102
     11  CA       -10.8060   26.2670   10.8100 C.3   101  PRO101      0.1504
     12  C        -10.7270   27.7730   10.7110 C.2   101  PRO101      0.2576
     13  O        -10.6320   28.2980    9.5940 O.2   101  PRO101     -0.2718
     14  CB       -12.2260   25.7630   10.5270 C.3   101  PRO101      0.0282
     15  CG       -12.8300   25.6100   11.8870 C.3   101  PRO101      0.0208
     16  CD       -11.7140   25.1540   12.7880 C.3   101  PRO101      0.0893
     17  N        -10.7480   28.4850   11.8320 N.am  102  ASN102     -0.1961
     18  CA       -10.6740   29.9360   11.8220 C.3   102  ASN102      0.1819
     19  C         -9.3060   30.4720   12.2270 C.2   102  ASN102      0.2621
     20  O         -9.1240   31.6920   12.2770 O.2   102  ASN102     -0.2715
     21  CB       -11.7870   30.5160   12.7010 C.3   102  ASN102      0.1195
     22  CG       -13.1550   29.9980   12.3000 C.2   102  ASN102      0.2630
     23  OD1      -13.4300   29.8120   11.1140 O.2   102  ASN102     -0.2716
     24  ND2      -14.0100   29.7390   13.2840 N.am  102  ASN102     -0.0877
     25  N         -8.3360   29.5950   12.4940 N.am  103  ALA103     -0.1964
     26  CA        -7.0070   30.0610   12.8730 C.3   103  ALA103      0.1713
     27  C         -6.1900   30.4290   11.6340 C.2   103  ALA103      0.2458
     28  O         -6.1800   29.6870   10.6470 O.2   103  ALA103     -0.2730
     29  CB        -6.2640   28.9830   13.6540 C.3   103  ALA103      0.0333
     30  N         -5.4920   31.5580   11.6600 N.am  104  PRO104     -0.2727
     31  CA        -4.5460   31.8430   10.5810 C.3   104  PRO104      0.1402
     32  C         -3.4120   30.8360   10.6200 C.2   104  PRO104      0.2269
     33  O         -3.0520   30.3130   11.6790 O.2   104  PRO104     -0.2865
     34  CB        -4.0420   33.2560   10.9070 C.3   104  PRO104      0.0296
     35  CG        -4.2870   33.4280   12.3650 C.3   104  PRO104      0.0237
     36  CD        -5.4960   32.6030   12.6970 C.3   104  PRO104      0.0939
     37  N         -1.3920   31.8350    5.4660 N.3   120  ASP120     -0.1239
     38  CA        -1.9930   33.1560    5.3360 C.3   120  ASP120      0.1674
     39  C         -0.9320   34.2470    5.3420 C.2   120  ASP120      0.2266
     40  O         -1.0770   35.2630    4.6510 O.2   120  ASP120     -0.2867
     41  CB        -2.9750   33.3860    6.4810 C.3   120  ASP120      0.1410
     42  CG        -4.1700   32.4580    6.4110 C.2   120  ASP120      0.3668
     43  OD1       -4.9710   32.5960    5.4670 O.co2 120  ASP120     -0.2456
     44  OD2       -4.3170   31.5950    7.2980 O.co2 120  ASP120     -0.2456
     45  N         -2.1950   39.6480   14.2180 N.3   135  LEU135     -0.1231
     46  CA        -3.2920   38.8210   13.7330 C.3   135  LEU135      0.1693
     47  C         -4.4470   38.8330   14.7270 C.2   135  LEU135      0.2592
     48  O         -4.2470   38.7540   15.9420 O.2   135  LEU135     -0.2718
     49  CB        -2.8110   37.3890   13.5080 C.3   135  LEU135      0.0284
     50  CG        -1.6500   37.2330   12.5260 C.3   135  LEU135      0.0019
     51  CD1       -1.2610   35.7790   12.4010 C.3   135  LEU135      0.0001
     52  CD2       -2.0140   37.8170   11.1720 C.3   135  LEU135      0.0001
     53  N         -5.6680   38.9260   14.2010 N.am  136  ASP136     -0.1960
     54  CA        -6.8570   39.0260   15.0460 C.3   136  ASP136      0.1840
     55  C         -7.4690   37.6390   15.2590 C.2   136  ASP136      0.2622
     56  O         -8.5770   37.3270   14.8180 O.2   136  ASP136     -0.2715
     57  CB        -7.8550   40.0120   14.4550 C.3   136  ASP136      0.1450
     58  CG        -8.9930   40.3190   15.4060 C.2   136  ASP136      0.3671
     59  OD1      -10.0910   39.7500   15.2240 O.co2 136  ASP136     -0.2456
     60  OD2       -8.7860   41.1160   16.3470 O.co2 136  ASP136     -0.2456
     61  N         -6.7060   36.8000   15.9550 N.am  137  SER137     -0.1950
     62  CA        -7.1760   35.5060   16.4270 C.3   137  SER137      0.1924
     63  C         -6.3870   35.1640   17.6840 C.2   137  SER137      0.2314
     64  O         -5.2090   35.5130   17.7940 O.2   137  SER137     -0.2863
     65  CB        -6.9630   34.4290   15.3530 C.3   137  SER137      0.2116
     66  OG        -7.2640   33.1300   15.8380 O.3   137  SER137     -0.2180
     67  N          2.5870   39.6740    1.9630 N.3   293  ARG293     -0.1245
     68  CA         1.8780   40.1420    3.1500 C.3   293  ARG293      0.1563
     69  C          2.8200   40.2660    4.3420 C.2   293  ARG293      0.2260
     70  O          2.7630   41.2520    5.0850 O.2   293  ARG293     -0.2867
     71  CB         0.7160   39.2070    3.4880 C.3   293  ARG293      0.0307
     72  CG        -0.1340   39.7320    4.6320 C.3   293  ARG293      0.0489
     73  CD        -1.2560   38.7890    5.0130 C.3   293  ARG293      0.2205
     74  NE        -1.9640   39.2840    6.1900 N.pl3 293  ARG293     -0.0865
     75  CZ        -2.8140   38.5630    6.9130 C.cat 293  ARG293      0.5346
     76  NH1       -3.0690   37.3050    6.5820 N.pl3 293  ARG293      0.1354
     77  NH2       -3.4050   39.0970    7.9740 N.pl3 293  ARG293      0.1354
@<TRIPOS>BOND
     1    67    68    1
     2    68    71    1
     3    68    69    1
     4    71    72    1
     5    69    70    2
     6    72    73    1
     7    40    39    2
     8    73    74    1
     9    38    39    1
    10    38    37    1
    11    38    41    1
    12    43    42   ar
    13     8     7    1
    14     8     9    1
    15    74    75    2
    16    42    41    1
    17    42    44   ar
    18     7     6    1
    19    76    75    1
    20    75    77    1
    21     6     5    1
    22     5     2    1
    23    13    12    2
    24     2     3    1
    25     2     1    1
    26     3     4    2
    27    14    11    1
    28    14    15    1
    29    31    32    1
    30    31    34    1
    31    31    30    1
    32    32    33    2
    33    28    27    2
    34    12    11    1
    35    12    17   am
    36    11    10    1
    37    34    35    1
    38    23    22    2
    39    52    50    1
    40    27    30   am
    41    27    26    1
    42    30    36    1
    43    18    17    1
    44    18    19    1
    45    18    21    1
    46    15    16    1
    47    10    16    1
    48    19    20    2
    49    19    25   am
    50    22    21    1
    51    22    24   am
    52    35    36    1
    53    51    50    1
    54    25    26    1
    55    50    49    1
    56    26    29    1
    57    49    46    1
    58    46    45    1
    59    46    47    1
    60    53    47   am
    61    53    54    1
    62    57    54    1
    63    57    58    1
    64    47    48    2
    65    56    55    2
    66    54    55    1
    67    59    58   ar
    68    55    61   am
    69    65    66    1
    70    65    62    1
    71    58    60   ar
    72    61    62    1
    73    62    63    1
    74    63    64    2
