@<TRIPOS>MOLECULE
tmp/5ktrA00.pdb
 119 113 0 0 0
SMALL
GASTEIGER

@<TRIPOS>ATOM
      1  N         21.9050   34.8950    2.9400 N.3    25  HIS25      -0.1241
      2  CA        21.5450   34.8690    4.3420 C.3    25  HIS25       0.1621
      3  C         22.7900   35.0160    5.2230 C.2    25  HIS25       0.2264
      4  O         23.9150   34.6680    4.8310 O.2    25  HIS25      -0.2867
      5  CB        20.8130   33.5700    4.6980 C.3    25  HIS25       0.0745
      6  CG        20.2560   33.5890    6.0790 C.ar   25  HIS25       0.0817
      7  ND1       20.9180   33.0320    7.1510 N.ar   25  HIS25      -0.2268
      8  CD2       19.1310   34.1550    6.5790 C.ar   25  HIS25       0.1154
      9  CE1       20.2100   33.2300    8.2500 C.ar   25  HIS25       0.1986
     10  NE2       19.1320   33.9270    7.9340 N.ar   25  HIS25      -0.2212
     11  N         23.8380   33.2480    7.5510 N.3    27  TYR27      -0.1241
     12  CA        24.5360   32.0100    7.8940 C.3    27  TYR27       0.1605
     13  C         25.4010   31.4790    6.7570 C.2    27  TYR27       0.2264
     14  O         25.9540   30.3850    6.8790 O.2    27  TYR27      -0.2867
     15  CB        23.5540   30.8880    8.2840 C.3    27  TYR27       0.0534
     16  CG        22.6460   31.1730    9.4730 C.ar   27  TYR27      -0.0201
     17  CD1       22.9730   32.1330   10.4240 C.ar   27  TYR27      -0.0009
     18  CD2       21.4580   30.4670    9.6430 C.ar   27  TYR27      -0.0009
     19  CE1       22.1320   32.3900   11.5030 C.ar   27  TYR27       0.0417
     20  CE2       20.5970   30.7270   10.7100 C.ar   27  TYR27       0.0417
     21  CZ        20.9420   31.6820   11.6430 C.ar   27  TYR27       0.1957
     22  OH        20.0870   31.9280   12.6980 O.3    27  TYR27      -0.2866
     23  N         18.6180   38.8120    7.2460 N.3    41  ASP41      -0.1225
     24  CA        17.7930   37.7840    7.8720 C.3    41  ASP41       0.1805
     25  C         16.5880   37.4960    6.9760 C.2    41  ASP41       0.2598
     26  O         16.4680   38.0300    5.8650 O.2    41  ASP41      -0.2718
     27  CB        17.4270   38.1530    9.3200 C.3    41  ASP41       0.1424
     28  CG        16.3590   39.2520    9.4290 C.2    41  ASP41       0.3668
     29  OD1       15.9590   39.8330    8.3930 O.co2  41  ASP41      -0.2456
     30  OD2       15.9080   39.5300   10.5770 O.co2  41  ASP41      -0.2456
     31  N         15.6700   36.6480    7.4460 N.am   42  SER42      -0.1952
     32  CA        14.5880   36.2110    6.5710 C.3    42  SER42       0.1924
     33  C         13.6540   37.3600    6.2040 C.2    42  SER42       0.2314
     34  O         13.2160   37.4580    5.0490 O.2    42  SER42      -0.2863
     35  CB        13.8250   35.0460    7.2000 C.3    42  SER42       0.2116
     36  OG        14.6360   33.8860    7.2530 O.3    42  SER42      -0.2180
     37  N         13.7370   30.0710    1.2650 N.3    65  MET65      -0.1245
     38  CA        14.0420   31.4850    1.0670 C.3    65  MET65       0.1570
     39  C         14.0360   31.8360   -0.4110 C.2    65  MET65       0.2261
     40  O         13.5110   32.8850   -0.8040 O.2    65  MET65      -0.2867
     41  CB        15.4030   31.8080    1.6630 C.3    65  MET65       0.0387
     42  CG        15.4700   31.6390    3.1500 C.3    65  MET65       0.0595
     43  SD        17.1370   31.9150    3.7700 S.3    65  MET65      -0.1393
     44  CE        16.7760   31.6930    5.5250 C.3    65  MET65       0.0692
     45  N          5.6070   30.7500    9.9370 N.3   113  TYR113     -0.1241
     46  CA         6.9930   31.1330    9.8630 C.3   113  TYR113      0.1605
     47  C          7.4290   30.9610    8.4240 C.2   113  TYR113      0.2264
     48  O          7.0000   30.0260    7.7380 O.2   113  TYR113     -0.2867
     49  CB         7.7710   30.1670   10.7610 C.3   113  TYR113      0.0534
     50  CG         9.1020   30.6460   11.2830 C.ar  113  TYR113     -0.0201
     51  CD1        9.9680   29.7610   11.8970 C.ar  113  TYR113     -0.0009
     52  CD2        9.4870   31.9760   11.1870 C.ar  113  TYR113     -0.0009
     53  CE1       11.1740   30.1720   12.3860 C.ar  113  TYR113      0.0417
     54  CE2       10.7110   32.3940   11.6760 C.ar  113  TYR113      0.0417
     55  CZ        11.5490   31.4830   12.2670 C.ar  113  TYR113      0.1957
     56  OH        12.7640   31.8860   12.7530 O.3   113  TYR113     -0.2866
     57  N         10.0670   29.9410    7.4390 N.3   115  ASN115     -0.1240
     58  CA        10.6600   28.6080    7.3640 C.3   115  ASN115      0.1653
     59  C          9.5280   27.6080    7.1560 C.2   115  ASN115      0.2266
     60  O          9.1090   26.8950    8.0690 O.2   115  ASN115     -0.2867
     61  CB        11.4360   28.2720    8.6340 C.3   115  ASN115      0.1155
     62  CG        12.4500   29.3330    9.0170 C.2   115  ASN115      0.2627
     63  OD1       12.1740   30.5250    8.9560 O.2   115  ASN115     -0.2716
     64  ND2       13.6340   28.8920    9.4360 N.am  115  ASN115     -0.0877
     65  N          8.4490   36.0940   10.5150 N.3   129  THR129     -0.1203
     66  CA         9.8160   35.6650   10.7580 C.3   129  THR129      0.1994
     67  C         10.1040   35.8700   12.2380 C.2   129  THR129      0.2618
     68  O          9.2690   36.3790   12.9910 O.2   129  THR129     -0.2717
     69  CB        10.8250   36.4550    9.9110 C.3   129  THR129      0.1784
     70  OG1       10.9900   37.7640   10.4670 O.3   129  THR129     -0.2211
     71  CG2       10.3730   36.5640    8.4630 C.3   129  THR129      0.0376
     72  N         11.3140   35.5020   12.6590 N.am  130  SER130     -0.1951
     73  CA        11.6820   35.7290   14.0510 C.3   130  SER130      0.1924
     74  C         11.7060   37.2130   14.4110 C.2   130  SER130      0.2314
     75  O         11.5690   37.5570   15.5890 O.2   130  SER130     -0.2863
     76  CB        13.0290   35.0790   14.3510 C.3   130  SER130      0.2116
     77  OG        12.8870   33.6750   14.5270 O.3   130  SER130     -0.2180
     78  N         19.7100   25.2990   16.5220 N.3   177  HIS177     -0.1241
     79  CA        19.4710   26.0790   17.7250 C.3   177  HIS177      0.1621
     80  C         19.1440   25.2190   18.9310 C.2   177  HIS177      0.2264
     81  O         19.3850   25.6560   20.0570 O.2   177  HIS177     -0.2867
     82  CB        18.3920   27.1310   17.4720 C.3   177  HIS177      0.0745
     83  CG        18.8500   28.2150   16.5520 C.ar  177  HIS177      0.0817
     84  ND1       18.7040   28.1420   15.1840 N.ar  177  HIS177     -0.2268
     85  CD2       19.5270   29.3620   16.8020 C.ar  177  HIS177      0.1154
     86  CE1       19.2460   29.2170   14.6320 C.ar  177  HIS177      0.1986
     87  NE2       19.7520   29.9730   15.5920 N.ar  177  HIS177     -0.2212
     88  N         18.8820   33.6300   19.7910 N.3   200  HIS200     -0.1241
     89  CA        17.8460   33.4940   18.7840 C.3   200  HIS200      0.1621
     90  C         16.6050   32.8490   19.4080 C.2   200  HIS200      0.2264
     91  O         16.7330   31.9550   20.2500 O.2   200  HIS200     -0.2867
     92  CB        18.3570   32.5970   17.6560 C.3   200  HIS200      0.0745
     93  CG        17.6040   32.7650   16.3790 C.ar  200  HIS200      0.0817
     94  ND1       16.3660   32.1940   16.1610 N.ar  200  HIS200     -0.2268
     95  CD2       17.8900   33.4840   15.2670 C.ar  200  HIS200      0.1154
     96  CE1       15.9340   32.5400   14.9590 C.ar  200  HIS200      0.1986
     97  NE2       16.8410   33.3220   14.3960 N.ar  200  HIS200     -0.2212
     98  N         14.7230   30.6870   18.2540 N.3   202  GLU202     -0.1245
     99  CA        14.6370   29.2600   17.9740 C.3   202  GLU202      0.1567
    100  C         15.3650   28.4200   19.0170 C.2   202  GLU202      0.2260
    101  O         15.2740   27.1890   18.9710 O.2   202  GLU202     -0.2867
    102  CB        15.1670   28.9600   16.5660 C.3   202  GLU202      0.0388
    103  CG        14.2460   29.4430   15.4510 C.3   202  GLU202      0.1160
    104  CD        14.8490   29.2600   14.0690 C.2   202  GLU202      0.3649
    105  OE1       15.7540   28.4180   13.9190 O.co2 202  GLU202     -0.2457
    106  OE2       14.4310   29.9540   13.1210 O.co2 202  GLU202     -0.2457
    107  N         16.0510   37.8570   16.0370 N.3   216  SER216     -0.1202
    108  CA        16.5380   37.2700   14.7990 C.3   216  SER216      0.2020
    109  C         17.9490   37.7740   14.5280 C.2   216  SER216      0.2619
    110  O         18.4500   38.6890   15.1970 O.2   216  SER216     -0.2717
    111  CB        15.6450   37.6740   13.6270 C.3   216  SER216      0.2103
    112  OG        15.9180   39.0100   13.2320 O.3   216  SER216     -0.2182
    113  N         18.6010   37.1770   13.5250 N.am  217  THR217     -0.1952
    114  CA        19.9290   37.6780   13.1880 C.3   217  THR217      0.1897
    115  C         19.8670   39.1470   12.7660 C.2   217  THR217      0.2313
    116  O         20.7970   39.9110   13.0350 O.2   217  THR217     -0.2863
    117  CB        20.5900   36.8420   12.0880 C.3   217  THR217      0.1794
    118  OG1       19.8250   36.9260   10.8770 O.3   217  THR217     -0.2208
    119  CG2       20.7640   35.3830   12.4960 C.3   217  THR217      0.0378
@<TRIPOS>BOND
     1    40    39    2
     2    39    38    1
     3    38    37    1
     4    38    41    1
     5    41    42    1
     6     1     2    1
     7    42    43    1
     8    43    44    1
     9     2     5    1
    10     2     3    1
    11     5     6    1
    12     4     3    2
    13    34    33    2
    14    26    25    2
    15     6     8   ar
    16     6     7   ar
    17    33    32    1
    18    32    35    1
    19    32    31    1
    20     8    10   ar
    21    13    14    2
    22    13    12    1
    23    25    31   am
    24    25    24    1
    25     7     9   ar
    26    59    58    1
    27    59    60    2
    28    35    36    1
    29    23    24    1
    30    58    57    1
    31    58    61    1
    32    11    12    1
    33    48    47    2
    34    24    27    1
    35    12    15    1
    36    10     9   ar
    37    15    16    1
    38    29    28   ar
    39    47    46    1
    40    71    69    1
    41    61    62    1
    42    63    62    2
    43    62    64   am
    44    27    28    1
    45    28    30   ar
    46    16    18   ar
    47    16    17   ar
    48    18    20   ar
    49    46    45    1
    50    46    49    1
    51    69    70    1
    52    69    66    1
    53    17    19   ar
    54    65    66    1
    55    20    21   ar
    56    66    67    1
    57    49    50    1
    58   118   117    1
    59    52    50   ar
    60    52    54   ar
    61    50    51   ar
    62    19    21   ar
    63    21    22    1
    64    54    55   ar
    65    51    53   ar
    66   117   119    1
    67   117   114    1
    68    67    72   am
    69    67    68    2
    70    55    53   ar
    71    55    56    1
    72    72    73    1
    73   115   116    2
    74   115   114    1
    75   106   104   ar
    76   114   113    1
    77   112   111    1
    78   113   109   am
    79   111   108    1
    80   105   104   ar
    81    73    76    1
    82    73    74    1
    83   104   103    1
    84    76    77    1
    85    97    96   ar
    86    97    95   ar
    87    74    75    2
    88   109   108    1
    89   109   110    2
    90    86    84   ar
    91    86    87   ar
    92   108   107    1
    93    96    94   ar
    94    84    83   ar
    95    95    93   ar
    96   103   102    1
    97    87    85   ar
    98    94    93   ar
    99    93    92    1
   100    78    79    1
   101    83    85   ar
   102    83    82    1
   103   102    99    1
   104    82    79    1
   105    92    89    1
   106    79    80    1
   107    99    98    1
   108    99   100    1
   109    89    90    1
   110    89    88    1
   111    80    81    2
   112   101   100    2
   113    90    91    2
