@<TRIPOS>MOLECULE
tmp/5ktsA00.pdb
 119 113 0 0 0
SMALL
GASTEIGER

@<TRIPOS>ATOM
      1  N         21.8360   34.7770    2.9590 N.3    25  HIS25      -0.1241
      2  CA        21.4710   34.7610    4.3590 C.3    25  HIS25       0.1621
      3  C         22.7180   34.9210    5.2310 C.2    25  HIS25       0.2264
      4  O         23.8430   34.6090    4.8260 O.2    25  HIS25      -0.2867
      5  CB        20.7560   33.4560    4.7070 C.3    25  HIS25       0.0745
      6  CG        20.1920   33.4550    6.0840 C.ar   25  HIS25       0.0817
      7  ND1       20.8720   32.9250    7.1570 N.ar   25  HIS25      -0.2268
      8  CD2       19.0500   33.9890    6.5840 C.ar   25  HIS25       0.1154
      9  CE1       20.1580   33.1010    8.2560 C.ar   25  HIS25       0.1986
     10  NE2       19.0530   33.7550    7.9370 N.ar   25  HIS25      -0.2212
     11  N         23.7760   33.1440    7.5150 N.3    27  TYR27      -0.1241
     12  CA        24.4670   31.9020    7.8600 C.3    27  TYR27       0.1605
     13  C         25.3270   31.3770    6.7220 C.2    27  TYR27       0.2264
     14  O         25.8880   30.2890    6.8340 O.2    27  TYR27      -0.2867
     15  CB        23.4720   30.7980    8.2580 C.3    27  TYR27       0.0534
     16  CG        22.5990   31.1000    9.4680 C.ar   27  TYR27      -0.0201
     17  CD1       22.9350   32.1000   10.3830 C.ar   27  TYR27      -0.0009
     18  CD2       21.4340   30.3680    9.6950 C.ar   27  TYR27      -0.0009
     19  CE1       22.1290   32.3730   11.4930 C.ar   27  TYR27       0.0417
     20  CE2       20.6110   30.6420   10.7830 C.ar   27  TYR27       0.0417
     21  CZ        20.9610   31.6380   11.6840 C.ar   27  TYR27       0.1957
     22  OH        20.1300   31.8740   12.7600 O.3    27  TYR27      -0.2866
     23  N         18.5640   38.6930    7.2260 N.3    41  ASP41      -0.1225
     24  CA        17.7330   37.6790    7.8610 C.3    41  ASP41       0.1805
     25  C         16.5250   37.4000    6.9740 C.2    41  ASP41       0.2598
     26  O         16.4070   37.9270    5.8670 O.2    41  ASP41      -0.2718
     27  CB        17.3800   38.0470    9.3160 C.3    41  ASP41       0.1424
     28  CG        16.3220   39.1470    9.4430 C.2    41  ASP41       0.3668
     29  OD1       15.9110   39.7350    8.4270 O.co2  41  ASP41      -0.2456
     30  OD2       15.8930   39.4170   10.6010 O.co2  41  ASP41      -0.2456
     31  N         15.6130   36.5490    7.4510 N.am   42  SER42      -0.1952
     32  CA        14.5130   36.1160    6.5940 C.3    42  SER42       0.1924
     33  C         13.5990   37.2800    6.2170 C.2    42  SER42       0.2314
     34  O         13.1860   37.3980    5.0540 O.2    42  SER42      -0.2863
     35  CB        13.7310   34.9760    7.2500 C.3    42  SER42       0.2116
     36  OG        14.4800   33.7660    7.2780 O.3    42  SER42      -0.2180
     37  N         13.6930   29.9250    1.2170 N.3    65  MET65      -0.1245
     38  CA        14.0100   31.3400    1.0500 C.3    65  MET65       0.1570
     39  C         14.0080   31.7190   -0.4180 C.2    65  MET65       0.2261
     40  O         13.4730   32.7700   -0.7910 O.2    65  MET65      -0.2867
     41  CB        15.3790   31.6430    1.6480 C.3    65  MET65       0.0387
     42  CG        15.4330   31.4310    3.1320 C.3    65  MET65       0.0595
     43  SD        17.0850   31.7240    3.7700 S.3    65  MET65      -0.1393
     44  CE        16.7200   31.4450    5.5190 C.3    65  MET65       0.0692
     45  N          5.5450   30.6900    9.9650 N.3   113  TYR113     -0.1241
     46  CA         6.9200   31.1290    9.9320 C.3   113  TYR113      0.1605
     47  C          7.3930   30.9810    8.5010 C.2   113  TYR113      0.2264
     48  O          7.0250   30.0240    7.8100 O.2   113  TYR113     -0.2867
     49  CB         7.7150   30.1950   10.8480 C.3   113  TYR113      0.0534
     50  CG         9.0560   30.6770   11.3650 C.ar  113  TYR113     -0.0201
     51  CD1        9.4280   32.0150   11.3100 C.ar  113  TYR113     -0.0009
     52  CD2        9.9470   29.7780   11.9280 C.ar  113  TYR113     -0.0009
     53  CE1       10.6660   32.4270   11.7920 C.ar  113  TYR113      0.0417
     54  CE2       11.1620   30.1780   12.4120 C.ar  113  TYR113      0.0417
     55  CZ        11.5230   31.4980   12.3430 C.ar  113  TYR113      0.1957
     56  OH        12.7490   31.8710   12.8260 O.3   113  TYR113     -0.2866
     57  N         10.0450   30.0480    7.5330 N.3   115  ASN115     -0.1240
     58  CA        10.6650   28.7270    7.4500 C.3   115  ASN115      0.1653
     59  C          9.5560   27.7030    7.2300 C.2   115  ASN115      0.2266
     60  O          9.1600   26.9620    8.1310 O.2   115  ASN115     -0.2867
     61  CB        11.4520   28.4050    8.7160 C.3   115  ASN115      0.1155
     62  CG        12.5190   29.4370    9.0330 C.2   115  ASN115      0.2627
     63  OD1       12.2970   30.6350    8.9010 O.2   115  ASN115     -0.2716
     64  ND2       13.6880   28.9680    9.4710 N.am  115  ASN115     -0.0877
     65  N          8.3690   36.0880   10.5410 N.3   129  THR129     -0.1203
     66  CA         9.7290   35.6500   10.7930 C.3   129  THR129      0.1994
     67  C         10.0140   35.8780   12.2670 C.2   129  THR129      0.2618
     68  O          9.1700   36.3890   13.0090 O.2   129  THR129     -0.2717
     69  CB        10.7530   36.4160    9.9420 C.3   129  THR129      0.1784
     70  OG1       10.9480   37.7140   10.5020 O.3   129  THR129     -0.2211
     71  CG2       10.2940   36.5540    8.4930 C.3   129  THR129      0.0376
     72  N         11.2240   35.5150   12.6940 N.am  130  SER130     -0.1951
     73  CA        11.5990   35.7410   14.0860 C.3   130  SER130      0.1924
     74  C         11.5870   37.2260   14.4440 C.2   130  SER130      0.2314
     75  O         11.4030   37.5770   15.6110 O.2   130  SER130     -0.2863
     76  CB        12.9680   35.1220   14.3710 C.3   130  SER130      0.2116
     77  OG        12.8690   33.7130   14.5550 O.3   130  SER130     -0.2180
     78  N         19.6250   25.3260   16.5130 N.3   177  HIS177     -0.1241
     79  CA        19.3620   26.1150   17.7130 C.3   177  HIS177      0.1621
     80  C         19.0250   25.2570   18.9190 C.2   177  HIS177      0.2264
     81  O         19.2530   25.6820   20.0550 O.2   177  HIS177     -0.2867
     82  CB        18.2770   27.1540   17.4410 C.3   177  HIS177      0.0745
     83  CG        18.7470   28.2520   16.5500 C.ar  177  HIS177      0.0817
     84  ND1       18.5840   28.2240   15.1820 N.ar  177  HIS177     -0.2268
     85  CD2       19.4560   29.3740   16.8240 C.ar  177  HIS177      0.1154
     86  CE1       19.1320   29.3070   14.6570 C.ar  177  HIS177      0.1986
     87  NE2       19.6660   30.0210   15.6320 N.ar  177  HIS177     -0.2212
     88  N         18.8320   33.6220   19.8530 N.3   200  HIS200     -0.1241
     89  CA        17.7780   33.5000   18.8600 C.3   200  HIS200      0.1621
     90  C         16.5410   32.8470   19.4870 C.2   200  HIS200      0.2264
     91  O         16.6760   31.9300   20.3020 O.2   200  HIS200     -0.2867
     92  CB        18.2760   32.6310   17.7050 C.3   200  HIS200      0.0745
     93  CG        17.5010   32.8190   16.4480 C.ar  200  HIS200      0.0817
     94  ND1       16.2860   32.2050   16.2230 N.ar  200  HIS200     -0.2268
     95  CD2       17.7510   33.5760   15.3510 C.ar  200  HIS200      0.1154
     96  CE1       15.8190   32.5820   15.0450 C.ar  200  HIS200      0.1986
     97  NE2       16.6920   33.4100   14.4940 N.ar  200  HIS200     -0.2212
     98  N         14.6500   30.6890   18.2970 N.3   202  GLU202     -0.1245
     99  CA        14.5800   29.2630   17.9920 C.3   202  GLU202      0.1567
    100  C         15.2880   28.4060   19.0380 C.2   202  GLU202      0.2260
    101  O         15.1470   27.1770   19.0080 O.2   202  GLU202     -0.2867
    102  CB        15.1150   28.9720   16.5780 C.3   202  GLU202      0.0388
    103  CG        14.2490   29.5540   15.4600 C.3   202  GLU202      0.1160
    104  CD        14.7830   29.2800   14.0590 C.2   202  GLU202      0.3649
    105  OE1       15.6590   28.4000   13.9040 O.co2 202  GLU202     -0.2457
    106  OE2       14.3240   29.9480   13.1030 O.co2 202  GLU202     -0.2457
    107  N         15.9940   37.9110   16.1700 N.3   216  SER216     -0.1202
    108  CA        16.4320   37.3050   14.9210 C.3   216  SER216      0.2020
    109  C         17.8510   37.7650   14.6250 C.2   216  SER216      0.2619
    110  O         18.3910   38.6640   15.2840 O.2   216  SER216     -0.2717
    111  CB        15.5280   37.7390   13.7670 C.3   216  SER216      0.2103
    112  OG        15.8780   39.0330   13.3110 O.3   216  SER216     -0.2182
    113  N         18.4610   37.1550   13.6030 N.am  217  THR217     -0.1952
    114  CA        19.7960   37.6130   13.2350 C.3   217  THR217      0.1897
    115  C         19.7800   39.0810   12.8080 C.2   217  THR217      0.2313
    116  O         20.7250   39.8200   13.0970 O.2   217  THR217     -0.2863
    117  CB        20.4180   36.7210   12.1550 C.3   217  THR217      0.1794
    118  OG1       19.6390   36.7880   10.9640 O.3   217  THR217     -0.2208
    119  CG2       20.5110   35.2730   12.6180 C.3   217  THR217      0.0378
@<TRIPOS>BOND
     1    40    39    2
     2    39    38    1
     3    38    37    1
     4    38    41    1
     5    41    42    1
     6     1     2    1
     7    42    43    1
     8    43    44    1
     9     2     5    1
    10     2     3    1
    11     5     6    1
    12     4     3    2
    13    34    33    2
    14    26    25    2
    15     6     8   ar
    16     6     7   ar
    17    33    32    1
    18     8    10   ar
    19    32    35    1
    20    32    31    1
    21    13    14    2
    22    13    12    1
    23    25    31   am
    24    25    24    1
    25     7     9   ar
    26    23    24    1
    27    59    58    1
    28    59    60    2
    29    35    36    1
    30    58    57    1
    31    58    61    1
    32    11    12    1
    33    48    47    2
    34    12    15    1
    35    24    27    1
    36    10     9   ar
    37    15    16    1
    38    29    28   ar
    39    71    69    1
    40    47    46    1
    41    61    62    1
    42    63    62    2
    43    62    64   am
    44    27    28    1
    45    28    30   ar
    46    16    18   ar
    47    16    17   ar
    48    18    20   ar
    49    46    45    1
    50    46    49    1
    51    69    70    1
    52    69    66    1
    53    17    19   ar
    54    65    66    1
    55    20    21   ar
    56    66    67    1
    57    49    50    1
    58   118   117    1
    59    51    50   ar
    60    51    53   ar
    61    50    52   ar
    62    19    21   ar
    63    21    22    1
    64    53    55   ar
    65    52    54   ar
    66   117   119    1
    67   117   114    1
    68    67    72   am
    69    67    68    2
    70    55    54   ar
    71    55    56    1
    72    72    73    1
    73   115   116    2
    74   115   114    1
    75   106   104   ar
    76   114   113    1
    77   112   111    1
    78   113   109   am
    79   111   108    1
    80   105   104   ar
    81   104   103    1
    82    73    76    1
    83    73    74    1
    84    76    77    1
    85    74    75    2
    86    97    96   ar
    87    97    95   ar
    88   109   108    1
    89   109   110    2
    90    86    84   ar
    91    86    87   ar
    92   108   107    1
    93    96    94   ar
    94    84    83   ar
    95    95    93   ar
    96   103   102    1
    97    87    85   ar
    98    94    93   ar
    99    93    92    1
   100    78    79    1
   101    83    85   ar
   102    83    82    1
   103   102    99    1
   104    82    79    1
   105    92    89    1
   106    79    80    1
   107    99    98    1
   108    99   100    1
   109    89    90    1
   110    89    88    1
   111    80    81    2
   112   101   100    2
   113    90    91    2
