@<TRIPOS>MOLECULE
tmp/5kttA00.pdb
 146 137 0 0 0
SMALL
GASTEIGER

@<TRIPOS>ATOM
      1  N          0.5000   19.5490    2.9490 N.3    20  HIS20      -0.1241
      2  CA         0.4050   19.5660    4.3920 C.3    20  HIS20       0.1621
      3  C         -1.0080   19.1800    4.8370 C.2    20  HIS20       0.2264
      4  O         -1.9820   19.3180    4.0920 O.2    20  HIS20      -0.2867
      5  CB         0.7580   20.9420    4.9560 C.3    20  HIS20       0.0745
      6  CG         0.8340   20.9440    6.4470 C.ar   20  HIS20       0.0817
      7  ND1       -0.2390   21.2710    7.2480 N.ar   20  HIS20      -0.2268
      8  CD2        1.8340   20.5840    7.2850 C.ar   20  HIS20       0.1154
      9  CE1        0.1020   21.1290    8.5170 C.ar   20  HIS20       0.1986
     10  NE2        1.3540   20.7070    8.5660 N.ar   20  HIS20      -0.2212
     11  N         -3.0280   20.6370    6.6480 N.3    22  TYR22      -0.1241
     12  CA        -3.9910   21.7370    6.6800 C.3    22  TYR22       0.1605
     13  C         -4.4760   22.1460    5.2960 C.2    22  TYR22       0.2264
     14  O         -5.2410   23.1120    5.1860 O.2    22  TYR22      -0.2867
     15  CB        -3.3970   22.9860    7.3400 C.3    22  TYR22       0.0534
     16  CG        -2.9560   22.8460    8.7810 C.ar   22  TYR22      -0.0201
     17  CD1       -3.4830   21.8610    9.6190 C.ar   22  TYR22      -0.0009
     18  CD2       -2.0220   23.7290    9.3140 C.ar   22  TYR22      -0.0009
     19  CE1       -3.0660   21.7600   10.9320 C.ar   22  TYR22       0.0417
     20  CE2       -1.6020   23.6310   10.6210 C.ar   22  TYR22       0.0417
     21  CZ        -2.1250   22.6500   11.4280 C.ar   22  TYR22       0.1957
     22  OH        -1.7040   22.5510   12.7340 O.3    22  TYR22      -0.2866
     23  N          2.8450   16.1780    7.8120 N.3    36  ASP36      -0.1239
     24  CA         3.5350   17.3710    8.2740 C.3    36  ASP36       0.1674
     25  C          4.8340   17.5490    7.4820 C.2    36  ASP36       0.2266
     26  O          5.2820   16.6500    6.7700 O.2    36  ASP36      -0.2867
     27  CB         3.7950   17.2700    9.7710 C.3    36  ASP36       0.1410
     28  CG         3.9840   18.6290   10.4340 C.2    36  ASP36       0.3668
     29  OD1        3.9640   19.6710    9.7260 O.co2  36  ASP36      -0.2456
     30  OD2        4.1730   18.6410   11.6760 O.co2  36  ASP36      -0.2456
     31  N          3.2920   25.9600    3.1870 N.3    57  VAL57      -0.1245
     32  CA         3.8630   27.2970    3.3260 C.3    57  VAL57       0.1561
     33  C          5.3620   27.3120    3.0660 C.2    57  VAL57       0.2260
     34  O          6.0040   26.2540    2.9680 O.2    57  VAL57      -0.2867
     35  CB         3.4970   27.9590    4.6690 C.3    57  VAL57       0.0252
     36  CG1        1.9850   28.1410    4.7680 C.3    57  VAL57       0.0019
     37  CG2        4.0370   27.1330    5.8380 C.3    57  VAL57       0.0019
     38  N          8.2920   27.9130    4.5830 N.3    59  PHE59      -0.1227
     39  CA         9.3410   27.2090    5.3260 C.3    59  PHE59       0.1736
     40  C          9.2770   25.7070    5.0910 C.2    59  PHE59       0.2595
     41  O         10.3070   25.0220    5.1640 O.2    59  PHE59      -0.2718
     42  CB         9.3180   27.5390    6.8330 C.3    59  PHE59       0.0547
     43  CG         8.2670   26.7930    7.6150 C.ar   59  PHE59      -0.0202
     44  CD1        8.4680   25.4760    8.0250 C.ar   59  PHE59      -0.0042
     45  CD2        7.0930   27.4270    7.9790 C.ar   59  PHE59      -0.0042
     46  CE1        7.4820   24.7910    8.7350 C.ar   59  PHE59      -0.0003
     47  CE2        6.1210   26.7620    8.7070 C.ar   59  PHE59      -0.0003
     48  CZ         6.3140   25.4420    9.0790 C.ar   59  PHE59      -0.0000
     49  N          8.0820   25.1830    4.8180 N.am   60  MET60      -0.1979
     50  CA         7.9430   23.7570    4.5650 C.3    60  MET60       0.1605
     51  C          8.5550   23.3870    3.2260 C.2    60  MET60       0.2287
     52  O          9.2410   22.3620    3.1150 O.2    60  MET60      -0.2864
     53  CB         6.4700   23.3710    4.5950 C.3    60  MET60       0.0413
     54  CG         5.7690   23.7820    5.8660 C.3    60  MET60       0.0598
     55  SD         4.0860   23.1440    5.9210 S.3    60  MET60      -0.1393
     56  CE         3.6840   23.5850    7.6070 C.3    60  MET60       0.0692
     57  N          4.2930   31.6800    6.6700 N.3    82  CYS82      -0.1235
     58  CA         4.0380   31.3230    8.0640 C.3    82  CYS82       0.1677
     59  C          4.3660   32.5160    8.9550 C.2    82  CYS82       0.2270
     60  O          5.5370   32.8820    9.1030 O.2    82  CYS82      -0.2867
     61  CB         4.8980   30.1280    8.4630 C.3    82  CYS82       0.0956
     62  SG         4.7740   29.7510   10.2260 S.3    82  CYS82      -0.0801
     63  N          4.3410   32.7080   12.1600 N.3    84  MET84      -0.1245
     64  CA         5.1700   32.3640   13.3100 C.3    84  MET84       0.1570
     65  C          6.6350   32.2620   12.9150 C.2    84  MET84       0.2261
     66  O          7.5070   32.8400   13.5760 O.2    84  MET84      -0.2867
     67  CB         4.7080   31.0540   13.9320 C.3    84  MET84       0.0387
     68  CG         5.5220   30.6890   15.1520 C.3    84  MET84       0.0595
     69  SD         5.0840   29.0660   15.7740 S.3    84  MET84      -0.1393
     70  CE         5.8480   28.0150   14.5450 C.3    84  MET84       0.0692
     71  N         12.5850   24.6250   16.5700 N.3   108  TYR108     -0.1241
     72  CA        11.4220   23.9080   16.0700 C.3   108  TYR108      0.1605
     73  C         11.5010   23.8430   14.5530 C.2   108  TYR108      0.2264
     74  O         11.9120   24.8080   13.9030 O.2   108  TYR108     -0.2867
     75  CB        10.2180   24.7550   16.4690 C.3   108  TYR108      0.0534
     76  CG         8.8270   24.1780   16.3280 C.ar  108  TYR108     -0.0201
     77  CD1        8.5990   22.8290   16.0750 C.ar  108  TYR108     -0.0009
     78  CD2        7.7300   25.0160   16.4710 C.ar  108  TYR108     -0.0009
     79  CE1        7.2990   22.3410   15.9730 C.ar  108  TYR108      0.0417
     80  CE2        6.4620   24.5510   16.3670 C.ar  108  TYR108      0.0417
     81  CZ         6.2360   23.2140   16.1190 C.ar  108  TYR108      0.1957
     82  OH         4.9260   22.7770   16.0300 O.3   108  TYR108     -0.2866
     83  N          9.2720   24.0820   12.5120 N.3   110  ASN110     -0.1240
     84  CA         8.4470   25.1590   11.9660 C.3   110  ASN110      0.1653
     85  C          9.2400   26.4490   12.1320 C.2   110  ASN110      0.2266
     86  O          9.1310   27.1550   13.1370 O.2   110  ASN110     -0.2867
     87  CB         7.0920   25.2390   12.6630 C.3   110  ASN110      0.1155
     88  CG         6.2460   24.0010   12.4560 C.2   110  ASN110      0.2627
     89  OD1        6.6940   23.0100   11.8860 O.2   110  ASN110     -0.2716
     90  ND2        5.0050   24.0540   12.9310 N.am  110  ASN110     -0.0877
     91  N          2.1050   31.2450   17.0940 N.3   169  CYS169     -0.1235
     92  CA         1.2570   31.0760   15.9190 C.3   169  CYS169      0.1677
     93  C         -0.0940   31.7380   16.1910 C.2   169  CYS169      0.2270
     94  O         -0.8010   31.3460   17.1240 O.2   169  CYS169     -0.2867
     95  CB         1.0720   29.5870   15.6190 C.3   169  CYS169      0.0956
     96  SG        -0.3040   29.2850   14.4950 S.3   169  CYS169     -0.0801
     97  N         -3.1780   29.2180   16.3670 N.3   172  HIS172     -0.1241
     98  CA        -3.3470   28.4340   17.5780 C.3   172  HIS172      0.1621
     99  C         -3.5580   29.2940   18.8130 C.2   172  HIS172      0.2264
    100  O         -4.1710   28.8250   19.7790 O.2   172  HIS172     -0.2867
    101  CB        -2.1780   27.4640   17.7440 C.3   172  HIS172      0.0745
    102  CG        -2.1960   26.3580   16.7430 C.ar  172  HIS172      0.0817
    103  ND1       -1.5230   26.4250   15.5420 N.ar  172  HIS172     -0.2268
    104  CD2       -2.8550   25.1750   16.7420 C.ar  172  HIS172      0.1154
    105  CE1       -1.7390   25.3120   14.8590 C.ar  172  HIS172      0.1986
    106  NE2       -2.5460   24.5390   15.5650 N.ar  172  HIS172     -0.2212
    107  N         -3.0540   20.9820   19.9430 N.3   195  HIS195     -0.1241
    108  CA        -1.7330   21.1920   19.3690 C.3   195  HIS195      0.1621
    109  C         -0.8350   21.9170   20.3740 C.2   195  HIS195      0.2264
    110  O         -1.3080   22.7760   21.1160 O.2   195  HIS195     -0.2867
    111  CB        -1.8700   22.0470   18.1120 C.3   195  HIS195      0.0745
    112  CG        -0.7050   21.9250   17.1860 C.ar  195  HIS195      0.0817
    113  ND1        0.4850   22.5870   17.3980 N.ar  195  HIS195     -0.2268
    114  CD2       -0.5340   21.1840   16.0680 C.ar  195  HIS195      0.1154
    115  CE1        1.3350   22.2660   16.4400 C.ar  195  HIS195      0.1986
    116  NE2        0.7450   21.4090   15.6270 N.ar  195  HIS195     -0.2212
    117  N          1.1560   24.2420   19.9030 N.3   197  GLU197     -0.1245
    118  CA         1.2070   25.6700   19.6180 C.3   197  GLU197      0.1567
    119  C          0.0890   26.4460   20.3100 C.2   197  GLU197      0.2260
    120  O          0.0720   27.6800   20.2390 O.2   197  GLU197     -0.2867
    121  CB         1.1650   25.9000   18.1050 C.3   197  GLU197      0.0388
    122  CG         2.4840   25.5410   17.4440 C.3   197  GLU197      0.1160
    123  CD         2.4190   25.5390   15.9380 C.2   197  GLU197      0.3649
    124  OE1        1.3920   25.9410   15.3680 O.co2 197  GLU197     -0.2457
    125  OE2        3.4040   25.1290   15.3150 O.co2 197  GLU197     -0.2457
    126  N          1.1590   17.2050   17.6410 N.3   211  SER211     -0.1202
    127  CA         1.1590   17.7980   16.3150 C.3   211  SER211      0.2020
    128  C          0.2260   16.9990   15.4130 C.2   211  SER211      0.2619
    129  O         -0.3460   15.9840   15.8190 O.2   211  SER211     -0.2717
    130  CB         2.5730   17.7800   15.7460 C.3   211  SER211      0.2103
    131  OG         3.0030   16.4470   15.5430 O.3   211  SER211     -0.2182
    132  N          0.0620   17.4580   14.1660 N.am  212  THR212     -0.1952
    133  CA        -0.9040   16.7930   13.2890 C.3   212  THR212      0.1897
    134  C         -0.5480   15.3310   13.0670 C.2   212  THR212      0.2313
    135  O         -1.4380   14.4710   13.0280 O.2   212  THR212     -0.2863
    136  CB        -1.0860   17.5230   11.9550 C.3   212  THR212      0.1794
    137  OG1        0.1740   17.6480   11.2790 O.3   212  THR212     -0.2208
    138  CG2       -1.7210   18.9130   12.1620 C.3   212  THR212      0.0378
    139  N         -1.6860   28.9400    4.5330 N.3   258  MET258     -0.1245
    140  CA        -2.0640   27.6530    3.9620 C.3   258  MET258      0.1570
    141  C         -3.0930   27.8140    2.8520 C.2   258  MET258      0.2261
    142  O         -3.0520   27.0990    1.8440 O.2   258  MET258     -0.2867
    143  CB        -2.6370   26.7580    5.0580 C.3   258  MET258      0.0387
    144  CG        -1.6020   26.1670    5.9830 C.3   258  MET258      0.0595
    145  SD        -0.5330   24.9910    5.1240 S.3   258  MET258     -0.1393
    146  CE         0.6420   24.6270    6.4210 C.3   258  MET258      0.0692
@<TRIPOS>BOND
     1   142   141    2
     2   141   140    1
     3     1     2    1
     4    34    33    2
     5    33    32    1
     6    52    51    2
     7    31    32    1
     8    51    50    1
     9    32    35    1
    10   140   139    1
    11   140   143    1
    12     4     3    2
    13     2     3    1
    14     2     5    1
    15    50    53    1
    16    50    49    1
    17    38    39    1
    18    53    54    1
    19    35    36    1
    20    35    37    1
    21    49    40   am
    22     5     6    1
    23   143   144    1
    24    40    41    2
    25    40    39    1
    26   145   144    1
    27   145   146    1
    28    14    13    2
    29    13    12    1
    30    39    42    1
    31    54    55    1
    32    55    56    1
    33     6     7   ar
    34     6     8   ar
    35    11    12    1
    36    57    58    1
    37    12    15    1
    38    26    25    2
    39    42    43    1
    40     7     9   ar
    41     8    10   ar
    42    15    16    1
    43    25    24    1
    44    43    45   ar
    45    43    44   ar
    46    23    24    1
    47    45    47   ar
    48    44    46   ar
    49    58    61    1
    50    58    59    1
    51    24    27    1
    52    61    62    1
    53     9    10   ar
    54    47    48   ar
    55    46    48   ar
    56    16    18   ar
    57    16    17   ar
    58    59    60    2
    59    18    20   ar
    60    17    19   ar
    61    29    28   ar
    62    27    28    1
    63    28    30   ar
    64    20    21   ar
    65    19    21   ar
    66   137   136    1
    67    21    22    1
    68    89    88    2
    69   136   138    1
    70   136   133    1
    71    84    85    1
    72    84    83    1
    73    84    87    1
    74    85    86    2
    75    63    64    1
    76    88    87    1
    77    88    90   am
    78    65    64    1
    79    65    66    2
    80   135   134    2
    81   134   133    1
    82   133   132    1
    83    64    67    1
    84    74    73    2
    85    67    68    1
    86   132   128   am
    87    96    95    1
    88    70    69    1
    89    73    72    1
    90   105   103   ar
    91   105   106   ar
    92    68    69    1
    93   125   123   ar
    94   124   123   ar
    95   128   129    2
    96   128   127    1
    97   103   102   ar
    98   131   130    1
    99   106   104   ar
   100    95    92    1
   101   116   114   ar
   102   116   115   ar
   103   130   127    1
   104    92    93    1
   105    92    91    1
   106   123   122    1
   107    79    77   ar
   108    79    81   ar
   109    82    81    1
   110   114   112   ar
   111    72    75    1
   112    72    71    1
   113    77    76   ar
   114    81    80   ar
   115    93    94    2
   116   127   126    1
   117    76    75    1
   118    76    78   ar
   119    97    98    1
   120    80    78   ar
   121   115   113   ar
   122   104   102   ar
   123   102   101    1
   124   112   113   ar
   125   112   111    1
   126   122   121    1
   127    98   101    1
   128    98    99    1
   129   121   118    1
   130   111   108    1
   131    99   100    2
   132   108   107    1
   133   108   109    1
   134   118   117    1
   135   118   119    1
   136   120   119    2
   137   109   110    2
