@<TRIPOS>MOLECULE
tmp/5ktuA00.pdb
 115 111 0 0 0
SMALL
GASTEIGER

@<TRIPOS>ATOM
      1  N         46.6290  125.4310   -3.1740 N.3    21  LEU21      -0.1231
      2  CA        47.8350  126.1530   -2.7570 C.3    21  LEU21       0.1678
      3  C         48.7250  125.4460   -1.7430 C.2    21  LEU21       0.2434
      4  O         49.9430  125.4250   -1.9270 O.2    21  LEU21      -0.2733
      5  CB        47.5300  127.5950   -2.2860 C.3    21  LEU21       0.0284
      6  CG        47.0230  128.5110   -3.3930 C.3    21  LEU21       0.0019
      7  CD1       46.7290  129.8770   -2.7930 C.3    21  LEU21       0.0001
      8  CD2       48.0180  128.6050   -4.5390 C.3    21  LEU21       0.0001
      9  N         48.1280  124.6910   -0.7810 N.am   22  PRO22      -0.2718
     10  CA        48.9670  123.9150    0.1180 C.3    22  PRO22       0.1535
     11  C         49.5740  122.6910   -0.5030 C.2    22  PRO22       0.2598
     12  O         50.4400  122.0750    0.0960 O.2    22  PRO22      -0.2715
     13  CB        48.0370  123.5180    1.2720 C.3    22  PRO22       0.0310
     14  CG        46.9010  124.4580    1.2110 C.3    22  PRO22       0.0237
     15  CD        46.7700  124.8410   -0.2570 C.3    22  PRO22       0.0939
     16  N         49.1710  122.4070   -1.7580 N.am   23  PHE23      -0.1974
     17  CA        49.5540  121.1790   -2.4500 C.3    23  PHE23       0.1639
     18  C         50.4010  121.3790   -3.7140 C.2    23  PHE23       0.2290
     19  O         50.7660  120.3970   -4.3670 O.2    23  PHE23      -0.2864
     20  CB        48.2860  120.4020   -2.8280 C.3    23  PHE23       0.0560
     21  CG        47.4040  120.1110   -1.6560 C.ar   23  PHE23      -0.0200
     22  CD1       47.6450  119.0200   -0.8580 C.ar   23  PHE23      -0.0042
     23  CD2       46.3220  120.9030   -1.3830 C.ar   23  PHE23      -0.0042
     24  CE1       46.8480  118.7610    0.2520 C.ar   23  PHE23      -0.0003
     25  CE2       45.6030  120.7390   -0.2160 C.ar   23  PHE23      -0.0003
     26  CZ        45.8770  119.6700    0.6150 C.ar   23  PHE23      -0.0000
     27  N         55.6600  119.6880    0.8020 N.3    27  VAL27      -0.1245
     28  CA        55.6000  120.2440    2.1260 C.3    27  VAL27       0.1561
     29  C         57.0230  120.5020    2.6360 C.2    27  VAL27       0.2260
     30  O         57.9170  119.6380    2.5230 O.2    27  VAL27      -0.2867
     31  CB        54.8350  119.3740    3.1090 C.3    27  VAL27       0.0252
     32  CG1       54.8820  120.0000    4.4970 C.3    27  VAL27       0.0019
     33  CG2       53.3970  119.2230    2.6650 C.3    27  VAL27       0.0019
     34  N         57.7250  125.9980    7.2190 N.3    32  LEU32      -0.1245
     35  CA        56.4260  126.1320    7.8760 C.3    32  LEU32       0.1561
     36  C         56.5520  126.0030    9.3920 C.2    32  LEU32       0.2260
     37  O         55.6160  126.3480   10.0900 O.2    32  LEU32      -0.2867
     38  CB        55.4720  125.0550    7.3650 C.3    32  LEU32       0.0270
     39  CG        54.8220  125.2430    5.9960 C.3    32  LEU32       0.0019
     40  CD1       54.2110  123.9560    5.4220 C.3    32  LEU32       0.0001
     41  CD2       53.7340  126.3110    6.1000 C.3    32  LEU32       0.0001
     42  N         57.0260  123.0360   11.1530 N.3    34  ILE34      -0.1245
     43  CA        56.2670  121.8250   11.5510 C.3    34  ILE34       0.1561
     44  C         57.1650  120.5800   11.5410 C.2    34  ILE34       0.2260
     45  O         57.0440  119.7140   10.6550 O.2    34  ILE34      -0.2867
     46  CB        54.9900  121.6250   10.7050 C.3    34  ILE34       0.0252
     47  CG1       55.3120  121.7030    9.2140 C.3    34  ILE34       0.0019
     48  CG2       53.9440  122.6730   11.0740 C.3    34  ILE34       0.0019
     49  CD1       54.1540  121.3180    8.3230 C.3    34  ILE34       0.0001
     50  N         56.3730  116.6870   10.7770 N.3    37  TYR37      -0.1241
     51  CA        55.6900  116.2930    9.5720 C.3    37  TYR37       0.1605
     52  C         56.2450  114.9610    9.0260 C.2    37  TYR37       0.2264
     53  O         55.4640  114.0610    8.7250 O.2    37  TYR37      -0.2867
     54  CB        55.6970  117.4410    8.5350 C.3    37  TYR37       0.0534
     55  CG        54.9500  117.1250    7.2730 C.ar   37  TYR37      -0.0201
     56  CD1       53.5930  117.2490    7.2050 C.ar   37  TYR37      -0.0009
     57  CD2       55.6090  116.5850    6.1900 C.ar   37  TYR37      -0.0009
     58  CE1       52.8920  116.8890    6.0750 C.ar   37  TYR37       0.0417
     59  CE2       54.9210  116.1570    5.0770 C.ar   37  TYR37       0.0417
     60  CZ        53.5610  116.3140    5.0210 C.ar   37  TYR37       0.1957
     61  OH        52.8690  115.8940    3.8860 O.3    37  TYR37      -0.2866
     62  N         47.5000  114.3970    3.6460 N.3    76  ALA76      -0.1245
     63  CA        46.9630  115.6020    4.2140 C.3    76  ALA76       0.1562
     64  C         45.8420  115.3610    5.2390 C.2    76  ALA76       0.2260
     65  O         45.7670  116.0420    6.2810 O.2    76  ALA76      -0.2867
     66  CB        46.4900  116.5480    3.1070 C.3    76  ALA76       0.0290
     67  N         47.7660  114.1340    8.4200 N.3    79  TYR79      -0.1227
     68  CA        48.5650  115.1030    9.1670 C.3    79  TYR79       0.1736
     69  C         47.7320  116.2120    9.8110 C.2    79  TYR79       0.2595
     70  O         48.0290  116.6880   10.9330 O.2    79  TYR79      -0.2718
     71  CB        49.6570  115.6960    8.2690 C.3    79  TYR79       0.0548
     72  CG        50.5510  116.6270    9.0200 C.ar   79  TYR79      -0.0200
     73  CD1       51.4220  116.1460    9.9910 C.ar   79  TYR79      -0.0009
     74  CD2       50.3300  117.9980    8.9760 C.ar   79  TYR79      -0.0009
     75  CE1       52.0800  117.0120   10.8620 C.ar   79  TYR79       0.0417
     76  CE2       51.0290  118.8760    9.8140 C.ar   79  TYR79       0.0417
     77  CZ        51.9340  118.3760   10.7150 C.ar   79  TYR79       0.1957
     78  OH        52.5860  119.2090   11.6370 O.3    79  TYR79      -0.2866
     79  N         46.7740  116.7250    9.0690 N.am   80  ASN80      -0.1974
     80  CA        45.9960  117.8930    9.5140 C.3    80  ASN80       0.1688
     81  C         44.7370  117.4990   10.2800 C.2    80  ASN80       0.2292
     82  O         44.1600  116.4470   10.0720 O.2    80  ASN80      -0.2864
     83  CB        45.6230  118.7280    8.2810 C.3    80  ASN80       0.1181
     84  CG        46.8450  119.2300    7.5310 C.2    80  ASN80       0.2629
     85  OD1       47.5050  120.1900    7.9570 O.2    80  ASN80      -0.2716
     86  ND2       47.2400  118.5070    6.4860 N.am   80  ASN80      -0.0877
     87  N         42.0880  124.2480    8.0710 N.3    85  ARG85      -0.1231
     88  CA        41.9710  124.7710    6.7490 C.3    85  ARG85       0.1694
     89  C         42.4970  123.7400    5.7390 C.2    85  ARG85       0.2591
     90  O         41.8960  123.5260    4.6930 O.2    85  ARG85      -0.2718
     91  CB        42.7570  126.0920    6.6720 C.3    85  ARG85       0.0321
     92  CG        42.8060  126.7270    5.3060 C.3    85  ARG85       0.0489
     93  CD        43.6530  128.0090    5.3020 C.3    85  ARG85       0.2205
     94  NE        43.0460  128.9620    6.2080 N.pl3  85  ARG85      -0.0865
     95  CZ        43.6950  129.7580    7.0400 C.cat  85  ARG85       0.5346
     96  NH1       45.0140  129.7800    7.0660 N.pl3  85  ARG85       0.1354
     97  NH2       43.0260  130.5990    7.8010 N.pl3  85  ARG85       0.1354
     98  N         43.7330  123.3040    5.9250 N.am   86  VAL86      -0.1980
     99  CA        44.3540  122.4270    4.9460 C.3    86  VAL86       0.1595
    100  C         43.5720  121.1100    4.7970 C.2    86  VAL86       0.2287
    101  O         43.4750  120.5820    3.7010 O.2    86  VAL86      -0.2864
    102  CB        45.8310  122.2080    5.2730 C.3    86  VAL86       0.0276
    103  CG1       46.4620  121.1350    4.3800 C.3    86  VAL86       0.0022
    104  CG2       46.5950  123.5340    5.1470 C.3    86  VAL86       0.0022
    105  N         40.6780  121.9820    2.5350 N.3    89  PHE89      -0.1241
    106  CA        41.1260  122.2180    1.1600 C.3    89  PHE89       0.1605
    107  C         41.3460  120.8470    0.5030 C.2    89  PHE89       0.2264
    108  O         40.9990  120.6290   -0.6590 O.2    89  PHE89      -0.2867
    109  CB        42.4150  123.0650    1.1630 C.3    89  PHE89       0.0534
    110  CG        42.2040  124.5570    1.4020 C.ar   89  PHE89      -0.0203
    111  CD1       41.0080  125.0770    1.9070 C.ar   89  PHE89      -0.0042
    112  CD2       43.2790  125.4160    1.3010 C.ar   89  PHE89      -0.0042
    113  CE1       40.8330  126.4440    2.0770 C.ar   89  PHE89      -0.0003
    114  CE2       43.1120  126.7790    1.4900 C.ar   89  PHE89      -0.0003
    115  CZ        41.8780  127.3000    1.8440 C.ar   89  PHE89      -0.0000
@<TRIPOS>BOND
     1     8     6    1
     2    19    18    2
     3    18    17    1
     4     6     7    1
     5     6     5    1
     6     1     2    1
     7    20    17    1
     8    20    21    1
     9     2     5    1
    10     2     3    1
    11    17    16    1
    12     4     3    2
    13    16    11   am
    14     3     9   am
    15    21    23   ar
    16    21    22   ar
    17    23    25   ar
    18    22    24   ar
    19     9    15    1
    20     9    10    1
    21   108   107    2
    22    11    12    2
    23    11    10    1
    24    15    14    1
    25    25    26   ar
    26    10    13    1
    27    24    26   ar
    28   107   106    1
    29    27    28    1
    30   106   109    1
    31   106   105    1
    32   109   110    1
    33    14    13    1
    34   112   110   ar
    35   112   114   ar
    36   110   111   ar
    37   114   115   ar
    38   115   113   ar
    39   111   113   ar
    40    28    29    1
    41    28    31    1
    42    30    29    2
    43    33    31    1
    44    66    63    1
    45    31    32    1
    46    62    63    1
    47   101   100    2
    48    61    60    1
    49    63    64    1
    50   103   102    1
    51    90    89    2
    52   100    99    1
    53    99   102    1
    54    99    98    1
    55    60    59   ar
    56    60    58   ar
    57    59    57   ar
    58   104   102    1
    59    64    65    2
    60    93    92    1
    61    93    94    1
    62    92    91    1
    63    40    39    1
    64    89    98   am
    65    89    88    1
    66    39    41    1
    67    39    38    1
    68    58    56   ar
    69    57    55   ar
    70    94    95    2
    71    86    84   am
    72    91    88    1
    73    88    87    1
    74    95    96    1
    75    95    97    1
    76    56    55   ar
    77    34    35    1
    78    55    54    1
    79    38    35    1
    80    84    85    2
    81    84    83    1
    82    35    36    1
    83    71    72    1
    84    71    68    1
    85    83    80    1
    86    49    47    1
    87    67    68    1
    88    54    51    1
    89    53    52    2
    90    74    72   ar
    91    74    76   ar
    92    72    73   ar
    93    52    51    1
    94    79    80    1
    95    79    69   am
    96    68    69    1
    97    47    46    1
    98    36    37    2
    99    80    81    1
   100    51    50    1
   101    69    70    2
   102    76    77   ar
   103    73    75   ar
   104    82    81    2
   105    45    44    2
   106    46    48    1
   107    46    43    1
   108    77    75   ar
   109    77    78    1
   110    42    43    1
   111    44    43    1
