@<TRIPOS>MOLECULE
tmp/5ktwC00.pdb
 122 118 0 0 0
SMALL
GASTEIGER

@<TRIPOS>ATOM
      1  N          0.8360   -3.1430   26.3330 N.3    24  PRO24      -0.2116
      2  CA        -0.4050   -2.3880   26.4550 C.3    24  PRO24       0.1372
      3  C         -0.4270   -1.3030   27.5150 C.2    24  PRO24       0.2244
      4  O         -1.4430   -0.6230   27.6600 O.2    24  PRO24      -0.2868
      5  CB        -1.4170   -3.4700   26.8450 C.3    24  PRO24       0.0268
      6  CG        -0.6170   -4.4230   27.6610 C.3    24  PRO24       0.0207
      7  CD         0.7300   -4.4780   26.9590 C.3    24  PRO24       0.0892
      8  N         -1.7950    2.2770   27.0860 N.3    27  LEU27      -0.1231
      9  CA        -3.0640    2.5120   26.3850 C.3    27  LEU27       0.1678
     10  C         -4.1180    3.2660   27.2070 C.2    27  LEU27       0.2434
     11  O         -4.7620    4.1430   26.6540 O.2    27  LEU27      -0.2733
     12  CB        -3.6670    1.2090   25.8440 C.3    27  LEU27       0.0284
     13  CG        -2.8460    0.5210   24.7590 C.3    27  LEU27       0.0019
     14  CD1       -3.5610   -0.7560   24.2900 C.3    27  LEU27       0.0001
     15  CD2       -2.5480    1.3930   23.5880 C.3    27  LEU27       0.0001
     16  N         -4.2620    3.0140   28.5300 N.am   28  PRO28      -0.2718
     17  CA        -5.2410    3.8020   29.3030 C.3    28  PRO28       0.1535
     18  C         -4.8810    5.2520   29.4990 C.2    28  PRO28       0.2598
     19  O         -5.7170    5.9930   30.0270 O.2    28  PRO28      -0.2715
     20  CB        -5.2660    3.0940   30.6650 C.3    28  PRO28       0.0310
     21  CG        -4.7560    1.7270   30.4030 C.3    28  PRO28       0.0237
     22  CD        -3.6820    1.9210   29.3370 C.3    28  PRO28       0.0939
     23  N         -3.6830    5.6550   29.0940 N.am   29  PHE29      -0.1974
     24  CA        -3.1370    6.9790   29.3960 C.3    29  PHE29       0.1639
     25  C         -2.9820    7.8540   28.1610 C.2    29  PHE29       0.2290
     26  O         -2.5550    9.0090   28.2740 O.2    29  PHE29      -0.2864
     27  CB        -1.7710    6.8280   30.0970 C.3    29  PHE29       0.0560
     28  CG        -1.8830    6.0460   31.3650 C.ar   29  PHE29      -0.0200
     29  CD1       -2.2010    6.7250   32.5310 C.ar   29  PHE29      -0.0042
     30  CD2       -1.7330    4.6680   31.3920 C.ar   29  PHE29      -0.0042
     31  CE1       -2.3510    6.0370   33.7200 C.ar   29  PHE29      -0.0003
     32  CE2       -1.9110    3.9460   32.5640 C.ar   29  PHE29      -0.0003
     33  CZ        -2.2180    4.6370   33.7290 C.ar   29  PHE29      -0.0000
     34  N         -9.0220   10.8250   30.4200 N.3    33  VAL33      -0.1245
     35  CA       -10.1020    9.9970   30.9380 C.3    33  VAL33       0.1561
     36  C        -11.4590   10.6100   30.6180 C.2    33  VAL33       0.2260
     37  O        -11.7230   11.7500   31.0040 O.2    33  VAL33      -0.2867
     38  CB        -9.9640    9.8200   32.4720 C.3    33  VAL33       0.0252
     39  CG1      -11.1040    9.0100   33.0150 C.3    33  VAL33       0.0019
     40  CG2       -8.6230    9.1350   32.8030 C.3    33  VAL33       0.0019
     41  N        -16.1280    5.6040   29.4990 N.3    38  LEU38      -0.1245
     42  CA       -15.5760    4.5220   30.3290 C.3    38  LEU38       0.1561
     43  C        -16.5370    4.0120   31.3950 C.2    38  LEU38       0.2260
     44  O        -16.2140    3.0390   32.0750 O.2    38  LEU38      -0.2867
     45  CB       -14.2620    4.9910   30.9950 C.3    38  LEU38       0.0270
     46  CG       -13.1580    5.2720   29.9870 C.3    38  LEU38       0.0019
     47  CD1      -11.9890    5.9700   30.7000 C.3    38  LEU38       0.0001
     48  CD2      -12.6590    4.0100   29.3070 C.3    38  LEU38       0.0001
     49  N        -17.5360    5.4630   34.2310 N.3    40  ILE40      -0.1245
     50  CA       -17.0560    5.7990   35.5830 C.3    40  ILE40       0.1561
     51  C        -17.5250    7.2070   35.9530 C.2    40  ILE40       0.2260
     52  O        -16.7210    8.1540   36.0130 O.2    40  ILE40      -0.2867
     53  CB       -15.5220    5.6190   35.7140 C.3    40  ILE40       0.0252
     54  CG1      -14.7670    6.2910   34.5530 C.3    40  ILE40       0.0019
     55  CG2      -15.2140    4.1400   35.7450 C.3    40  ILE40       0.0019
     56  CD1      -13.2400    6.1910   34.6710 C.3    40  ILE40       0.0001
     57  N        -15.6400    9.7450   38.3910 N.3    43  TYR43      -0.1241
     58  CA       -14.2040    9.9810   38.2250 C.3    43  TYR43       0.1605
     59  C        -13.7720   11.3620   38.7370 C.2    43  TYR43       0.2264
     60  O        -12.7790   11.4600   39.4890 O.2    43  TYR43      -0.2867
     61  CB       -13.7970    9.7860   36.7660 C.3    43  TYR43       0.0534
     62  CG       -12.3140    9.9560   36.5390 C.ar   43  TYR43      -0.0201
     63  CD1      -11.4320    8.9750   36.9280 C.ar   43  TYR43      -0.0009
     64  CD2      -11.8070   11.1180   36.0060 C.ar   43  TYR43      -0.0009
     65  CE1      -10.0670    9.1230   36.7500 C.ar   43  TYR43       0.0417
     66  CE2      -10.4400   11.2990   35.8210 C.ar   43  TYR43       0.0417
     67  CZ        -9.5760   10.3090   36.2060 C.ar   43  TYR43       0.1957
     68  OH        -8.2090   10.4920   36.0410 O.3    43  TYR43      -0.2866
     69  N         -4.1230    8.0230   38.5590 N.3    82  ALA82      -0.1245
     70  CA        -4.5090    6.6420   38.2770 C.3    82  ALA82       0.1562
     71  C         -4.3440    5.7230   39.5070 C.2    82  ALA82       0.2260
     72  O         -5.1650    4.8360   39.7260 O.2    82  ALA82      -0.2867
     73  CB        -3.7430    6.1040   37.0950 C.3    82  ALA82       0.0290
     74  N         -7.4180    6.6730   41.7660 N.3    85  TYR85      -0.1227
     75  CA        -8.7580    6.3010   41.3100 C.3    85  TYR85       0.1736
     76  C         -8.9860    4.7940   41.2120 C.2    85  TYR85       0.2595
     77  O        -10.0320    4.2950   41.5770 O.2    85  TYR85      -0.2718
     78  CB        -9.0650    6.9490   39.9390 C.3    85  TYR85       0.0548
     79  CG       -10.4770    6.6100   39.5410 C.ar   85  TYR85      -0.0200
     80  CD1      -11.5480    7.2300   40.1770 C.ar   85  TYR85      -0.0009
     81  CD2      -10.7420    5.5970   38.6090 C.ar   85  TYR85      -0.0009
     82  CE1      -12.8360    6.8530   39.9230 C.ar   85  TYR85       0.0417
     83  CE2      -12.0270    5.2290   38.3320 C.ar   85  TYR85       0.0417
     84  CZ       -13.0610    5.8490   38.9940 C.ar   85  TYR85       0.1957
     85  OH       -14.3520    5.4470   38.7310 O.3    85  TYR85      -0.2866
     86  N         -7.9990    4.0920   40.6710 N.am   86  ASN86      -0.1974
     87  CA        -8.1560    2.6850   40.3490 C.3    86  ASN86       0.1688
     88  C         -7.7940    1.8120   41.5330 C.2    86  ASN86       0.2292
     89  O         -6.9150    2.1510   42.3220 O.2    86  ASN86      -0.2864
     90  CB        -7.2960    2.3340   39.1410 C.3    86  ASN86       0.1181
     91  CG        -7.7100    3.1170   37.9120 C.2    86  ASN86       0.2629
     92  OD1       -8.6680    2.7580   37.2330 O.2    86  ASN86      -0.2716
     93  ND2       -6.9680    4.1490   37.5900 N.am   86  ASN86      -0.0877
     94  N         -6.3670   -3.7840   36.3090 N.3    91  ARG91      -0.1231
     95  CA        -5.4590   -3.6800   35.1820 C.3    91  ARG91       0.1694
     96  C         -4.8560   -2.2850   35.0860 C.2    91  ARG91       0.2591
     97  O         -3.6500   -2.1450   34.8650 O.2    91  ARG91      -0.2718
     98  CB        -6.2260   -3.9850   33.9010 C.3    91  ARG91       0.0321
     99  CG        -5.3960   -4.0130   32.6280 C.3    91  ARG91       0.0489
    100  CD        -6.2820   -4.2440   31.4260 C.3    91  ARG91       0.2205
    101  NE        -7.1550   -3.1270   31.1060 N.pl3  91  ARG91      -0.0865
    102  CZ        -8.4650   -3.0860   31.2950 C.cat  91  ARG91       0.5346
    103  NH1       -9.1490   -4.0810   31.8450 N.pl3  91  ARG91       0.1354
    104  NH2       -9.1110   -1.9850   30.8820 N.pl3  91  ARG91       0.1354
    105  N         -5.6870   -1.2560   35.1440 N.am   92  VAL92      -0.1980
    106  CA        -5.1600    0.0900   34.9050 C.3    92  VAL92       0.1595
    107  C         -4.1870    0.5040   36.0120 C.2    92  VAL92       0.2287
    108  O         -3.1840    1.1660   35.7010 O.2    92  VAL92      -0.2864
    109  CB        -6.2960    1.0910   34.6850 C.3    92  VAL92       0.0276
    110  CG1       -5.7470    2.5440   34.6150 C.3    92  VAL92       0.0022
    111  CG2       -7.0130    0.7640   33.3780 C.3    92  VAL92       0.0022
    112  N         -0.9800   -1.2480   35.1960 N.3    95  PHE95      -0.1241
    113  CA        -0.3370   -0.6180   34.0460 C.3    95  PHE95       0.1605
    114  C          0.3540    0.6940   34.4670 C.2    95  PHE95       0.2264
    115  O          1.4510    1.0150   33.9750 O.2    95  PHE95      -0.2867
    116  CB        -1.3680   -0.3560   32.9460 C.3    95  PHE95       0.0534
    117  CG        -1.8320   -1.5710   32.1550 C.ar   95  PHE95      -0.0203
    118  CD1       -1.4340   -2.8680   32.4500 C.ar   95  PHE95      -0.0042
    119  CD2       -2.6460   -1.3820   31.0490 C.ar   95  PHE95      -0.0042
    120  CE1       -1.8570   -3.9280   31.6600 C.ar   95  PHE95      -0.0003
    121  CE2       -3.0650   -2.4250   30.2830 C.ar   95  PHE95      -0.0003
    122  CZ        -2.6550   -3.7030   30.5660 C.ar   95  PHE95      -0.0000
@<TRIPOS>BOND
     1    15    13    1
     2    14    13    1
     3    13    12    1
     4    12     9    1
     5     1     2    1
     6     1     7    1
     7     9     8    1
     8     9    10    1
     9     2     5    1
    10     2     3    1
    11    11    10    2
    12     5     6    1
    13     7     6    1
    14    10    16   am
    15     3     4    2
    16    25    26    2
    17    25    24    1
    18    16    17    1
    19    16    22    1
    20    23    24    1
    21    23    18   am
    22    17    18    1
    23    17    20    1
    24    48    46    1
    25    22    21    1
    26    24    27    1
    27    18    19    2
    28    41    42    1
    29    46    47    1
    30    46    45    1
    31    27    28    1
    32   121   122   ar
    33   121   119   ar
    34    42    45    1
    35    42    43    1
    36    21    20    1
    37    34    35    1
    38   122   120   ar
    39    36    35    1
    40    36    37    2
    41   104   102    1
    42    35    38    1
    43   119   117   ar
    44   101   102    2
    45   101   100    1
    46   102   103    1
    47    28    30   ar
    48    28    29   ar
    49    30    32   ar
    50    43    44    2
    51   100    99    1
    52   120   118   ar
    53   117   118   ar
    54   117   116    1
    55    38    40    1
    56    38    39    1
    57    29    31   ar
    58    32    33   ar
    59    99    98    1
    60   116   113    1
    61   111   109    1
    62    31    33   ar
    63    98    95    1
    64   115   114    2
    65   113   114    1
    66   113   112    1
    67    49    50    1
    68    54    56    1
    69    54    53    1
    70   110   109    1
    71   109   106    1
    72    97    96    2
    73   106   105    1
    74   106   107    1
    75    96   105   am
    76    96    95    1
    77    95    94    1
    78    50    53    1
    79    50    51    1
    80   108   107    2
    81    53    55    1
    82    66    64   ar
    83    66    67   ar
    84    51    52    2
    85    64    62   ar
    86    68    67    1
    87    67    65   ar
    88    62    61    1
    89    62    63   ar
    90    65    63   ar
    91    61    58    1
    92    73    70    1
    93    92    91    2
    94    93    91   am
    95    91    90    1
    96    58    57    1
    97    58    59    1
    98    70    69    1
    99    70    71    1
   100    83    81   ar
   101    83    84   ar
   102    81    79   ar
   103    85    84    1
   104    59    60    2
   105    84    82   ar
   106    90    87    1
   107    71    72    2
   108    79    78    1
   109    79    80   ar
   110    82    80   ar
   111    78    75    1
   112    87    86    1
   113    87    88    1
   114    86    76   am
   115    76    75    1
   116    76    77    2
   117    75    74    1
   118    88    89    2
