@<TRIPOS>MOLECULE
tmp/5ktxA00.pdb
 137 132 0 0 0
SMALL
GASTEIGER

@<TRIPOS>ATOM
      1  N         -1.0470  -11.1390   -6.1570 N.3    24  PRO24      -0.2116
      2  CA        -0.9600   -9.8760   -5.4080 C.3    24  PRO24       0.1372
      3  C          0.4270   -9.4170   -4.9740 C.2    24  PRO24       0.2244
      4  O          0.5340   -8.3540   -4.3570 O.2    24  PRO24      -0.2868
      5  CB        -1.7750  -10.1930   -4.1470 C.3    24  PRO24       0.0268
      6  CG        -1.5170  -11.6560   -3.9170 C.3    24  PRO24       0.0207
      7  CD        -1.5310  -12.2520   -5.3110 C.3    24  PRO24       0.0892
      8  N          1.7100   -5.7840   -5.3400 N.3    27  LEU27      -0.1231
      9  CA         0.8510   -4.6560   -4.9900 C.3    27  LEU27       0.1678
     10  C          1.4570   -3.7240   -3.9430 C.2    27  LEU27       0.2434
     11  O          1.3500   -2.4970   -4.1180 O.2    27  LEU27      -0.2733
     12  CB        -0.5520   -5.1530   -4.6170 C.3    27  LEU27       0.0284
     13  CG        -1.3280   -5.8470   -5.7470 C.3    27  LEU27       0.0019
     14  CD1       -2.6850   -6.3350   -5.2580 C.3    27  LEU27       0.0001
     15  CD2       -1.4880   -4.9180   -6.9390 C.3    27  LEU27       0.0001
     16  N          2.1120   -4.2050   -2.8810 N.am   28  PRO28      -0.2718
     17  CA         2.7080   -3.2770   -1.9000 C.3    28  PRO28       0.1535
     18  C          3.9110   -2.5170   -2.4300 C.2    28  PRO28       0.2598
     19  O          4.4130   -1.6290   -1.7270 O.2    28  PRO28      -0.2715
     20  CB         3.1330   -4.2000   -0.7460 C.3    28  PRO28       0.0310
     21  CG         2.3580   -5.4780   -0.9610 C.3    28  PRO28       0.0237
     22  CD         2.2190   -5.6050   -2.4430 C.3    28  PRO28       0.0939
     23  N          4.4090   -2.8590   -3.6190 N.am   29  PHE29      -0.1974
     24  CA         5.6610   -2.3340   -4.1490 C.3    29  PHE29       0.1639
     25  C          5.4670   -1.4230   -5.3490 C.2    29  PHE29       0.2290
     26  O          6.4570   -0.8960   -5.8760 O.2    29  PHE29      -0.2864
     27  CB         6.5960   -3.4950   -4.5130 C.3    29  PHE29       0.0560
     28  CG         6.8850   -4.3960   -3.3590 C.ar   29  PHE29      -0.0200
     29  CD1        7.8940   -4.0790   -2.4720 C.ar   29  PHE29      -0.0042
     30  CD2        6.1340   -5.5390   -3.1370 C.ar   29  PHE29      -0.0042
     31  CE1        8.1570   -4.8920   -1.3820 C.ar   29  PHE29      -0.0003
     32  CE2        6.3960   -6.3520   -2.0490 C.ar   29  PHE29      -0.0003
     33  CZ         7.4050   -6.0250   -1.1770 C.ar   29  PHE29      -0.0000
     34  N          4.0650    1.5380   -5.6360 N.3    31  GLN31      -0.1245
     35  CA         4.1110    2.9640   -5.3620 C.3    31  GLN31       0.1566
     36  C          4.9840    3.1530   -4.1360 C.2    31  GLN31       0.2260
     37  O          5.1660    2.2160   -3.3530 O.2    31  GLN31      -0.2867
     38  CB         2.7080    3.5160   -5.0730 C.3    31  GLN31       0.0367
     39  CG         1.9600    2.7830   -3.9410 C.3    31  GLN31       0.0905
     40  CD         1.5300    1.3610   -4.3080 C.2    31  GLN31       0.2608
     41  OE1        0.8940    1.1390   -5.3440 O.2    31  GLN31      -0.2717
     42  NE2        1.8820    0.3920   -3.4600 N.am   31  GLN31      -0.0878
     43  N          6.1570    3.7420   -0.4610 N.3    33  VAL33      -0.1245
     44  CA         5.5010    3.5950    0.8350 C.3    33  VAL33       0.1561
     45  C          5.0800    4.9670    1.3450 C.2    33  VAL33       0.2260
     46  O          5.8940    5.8950    1.4230 O.2    33  VAL33      -0.2867
     47  CB         6.4480    2.9070    1.8300 C.3    33  VAL33       0.0252
     48  CG1        5.8290    2.8800    3.2300 C.3    33  VAL33       0.0019
     49  CG2        6.7810    1.4990    1.3590 C.3    33  VAL33       0.0019
     50  N         -0.5670    4.5540    5.5090 N.3    38  LEU38      -0.1245
     51  CA        -0.5190    3.1850    5.9930 C.3    38  LEU38       0.1561
     52  C         -0.5210    3.0770    7.5140 C.2    38  LEU38       0.2260
     53  O         -0.5630    1.9560    8.0310 O.2    38  LEU38      -0.2867
     54  CB         0.7100    2.4790    5.4190 C.3    38  LEU38       0.0270
     55  CG         0.7220    2.2950    3.9000 C.3    38  LEU38       0.0019
     56  CD1        2.0570    1.7170    3.4560 C.3    38  LEU38       0.0001
     57  CD2       -0.4240    1.4070    3.4520 C.3    38  LEU38       0.0001
     58  N          1.9460    3.7780    9.6550 N.3    40  ILE40      -0.1245
     59  CA         3.2260    3.2540   10.1330 C.3    40  ILE40       0.1561
     60  C          4.2230    4.4030   10.2670 C.2    40  ILE40       0.2260
     61  O          5.2180    4.4690    9.5270 O.2    40  ILE40      -0.2867
     62  CB         3.7390    2.1160    9.2340 C.3    40  ILE40       0.0252
     63  CG1        3.7530    2.5430    7.7600 C.3    40  ILE40       0.0019
     64  CG2        2.8890    0.8510    9.4380 C.3    40  ILE40       0.0019
     65  CD1        4.3610    1.4900    6.8260 C.3    40  ILE40       0.0001
     66  N          8.1590    4.2750    9.8290 N.3    43  TYR43      -0.1241
     67  CA         8.7720    3.6840    8.6390 C.3    43  TYR43       0.1605
     68  C         10.0730    4.3850    8.2560 C.2    43  TYR43       0.2264
     69  O         11.1030    3.7310    8.0540 O.2    43  TYR43      -0.2867
     70  CB         7.7850    3.6700    7.4680 C.3    43  TYR43       0.0534
     71  CG         8.3700    2.9970    6.2430 C.ar   43  TYR43      -0.0201
     72  CD1        8.4000    1.6110    6.1440 C.ar   43  TYR43      -0.0009
     73  CD2        8.9190    3.7440    5.2040 C.ar   43  TYR43      -0.0009
     74  CE1        8.9500    0.9900    5.0440 C.ar   43  TYR43       0.0417
     75  CE2        9.4740    3.1250    4.0970 C.ar   43  TYR43       0.0417
     76  CZ         9.4810    1.7550    4.0240 C.ar   43  TYR43       0.1957
     77  OH        10.0420    1.1580    2.9220 O.3    43  TYR43      -0.2866
     78  N         12.0990   -4.0290    2.5290 N.3    82  ALA82      -0.1245
     79  CA        10.8920   -4.7310    2.9400 C.3    82  ALA82       0.1562
     80  C         11.2060   -5.8430    3.9290 C.2    82  ALA82       0.2260
     81  O         10.4590   -6.0500    4.8880 O.2    82  ALA82      -0.2867
     82  CB        10.1430   -5.2750    1.7220 C.3    82  ALA82       0.0290
     83  N         11.9640   -3.9570    7.3160 N.3    85  TYR85      -0.1227
     84  CA        10.8790   -3.2750    8.0170 C.3    85  TYR85       0.1736
     85  C          9.7980   -4.2420    8.4880 C.2    85  TYR85       0.2595
     86  O          9.2930   -4.1210    9.6100 O.2    85  TYR85      -0.2718
     87  CB        10.2630   -2.1580    7.1560 C.3    85  TYR85       0.0548
     88  CG         9.1720   -1.4910    7.9500 C.ar   85  TYR85      -0.0200
     89  CD1        9.4880   -0.5890    8.9560 C.ar   85  TYR85      -0.0009
     90  CD2        7.8350   -1.8430    7.7730 C.ar   85  TYR85      -0.0009
     91  CE1        8.4990   -0.0190    9.7430 C.ar   85  TYR85       0.0417
     92  CE2        6.8350   -1.2800    8.5530 C.ar   85  TYR85       0.0417
     93  CZ         7.1780   -0.3750    9.5390 C.ar   85  TYR85       0.1957
     94  OH         6.1900    0.1790   10.3300 O.3    85  TYR85      -0.2866
     95  N          9.4110   -5.1830    7.6430 N.am   86  ASN86      -0.1974
     96  CA         8.2240   -5.9920    7.8820 C.3    86  ASN86       0.1688
     97  C          8.5820   -7.2730    8.6220 C.2    86  ASN86       0.2292
     98  O          9.6940   -7.7930    8.4970 O.2    86  ASN86      -0.2864
     99  CB         7.5610   -6.3170    6.5420 C.3    86  ASN86       0.1181
    100  CG         7.1160   -5.0720    5.8150 C.2    86  ASN86       0.2629
    101  OD1        6.0520   -4.5240    6.0950 O.2    86  ASN86      -0.2716
    102  ND2        7.9530   -4.5910    4.8930 N.am   86  ASN86      -0.0877
    103  N          4.4970  -11.4490    7.8860 N.3    90  SER90      -0.1202
    104  CA         3.5930  -10.4990    7.2590 C.3    90  SER90       0.2020
    105  C          3.4400  -10.7600    5.7650 C.2    90  SER90       0.2619
    106  O          4.3090  -11.3480    5.1050 O.2    90  SER90      -0.2717
    107  CB         4.0920   -9.0710    7.4700 C.3    90  SER90       0.2103
    108  OG         5.2770   -8.8170    6.7260 O.3    90  SER90      -0.2182
    109  N          2.3240  -10.2710    5.2220 N.am   91  ARG91      -0.1965
    110  CA         2.0970  -10.3420    3.7810 C.3    91  ARG91       0.1729
    111  C          3.2270   -9.6810    3.0040 C.2    91  ARG91       0.2616
    112  O          3.7410  -10.2460    2.0330 O.2    91  ARG91      -0.2715
    113  CB         0.7590   -9.6930    3.4190 C.3    91  ARG91       0.0348
    114  CG        -0.4650  -10.4330    3.9550 C.3    91  ARG91       0.0492
    115  CD        -1.7220   -9.5810    3.8440 C.3    91  ARG91       0.2205
    116  NE        -1.5490   -8.3790    4.6470 N.pl3  91  ARG91      -0.0865
    117  CZ        -2.2070   -7.2440    4.4660 C.cat  91  ARG91       0.5346
    118  NH1       -3.1270   -7.1400    3.5160 N.pl3  91  ARG91       0.1354
    119  NH2       -1.9350   -6.2070    5.2460 N.pl3  91  ARG91       0.1354
    120  N          3.6170   -8.4680    3.3980 N.am   92  VAL92      -0.1977
    121  CA         4.6010   -7.7450    2.6020 C.3    92  VAL92       0.1596
    122  C          5.9250   -8.4970    2.5740 C.2    92  VAL92       0.2287
    123  O          6.6030   -8.5470    1.5410 O.2    92  VAL92      -0.2864
    124  CB         4.7520   -6.2890    3.0860 C.3    92  VAL92       0.0276
    125  CG1        5.9230   -5.6200    2.3820 C.3    92  VAL92       0.0022
    126  CG2        3.4660   -5.5070    2.8260 C.3    92  VAL92       0.0022
    127  N          5.4960  -11.5270    0.3130 N.3    95  PHE95      -0.1241
    128  CA         5.3920  -11.0640   -1.0670 C.3    95  PHE95       0.1605
    129  C          6.7560  -10.6310   -1.5980 C.2    95  PHE95       0.2264
    130  O          7.1110  -10.9280   -2.7460 O.2    95  PHE95      -0.2867
    131  CB         4.4000   -9.9080   -1.1730 C.3    95  PHE95       0.0534
    132  CG         2.9460  -10.2910   -0.9840 C.ar   95  PHE95      -0.0203
    133  CD1        2.5330  -11.6060   -0.7810 C.ar   95  PHE95      -0.0042
    134  CD2        1.9850   -9.2960   -1.0400 C.ar   95  PHE95      -0.0042
    135  CE1        1.1830  -11.8980   -0.6140 C.ar   95  PHE95      -0.0003
    136  CE2        0.6450   -9.5870   -0.8780 C.ar   95  PHE95      -0.0003
    137  CZ         0.2470  -10.8870   -0.6710 C.ar   95  PHE95      -0.0000
@<TRIPOS>BOND
     1    15    13    1
     2     1     2    1
     3     1     7    1
     4    26    25    2
     5    13    14    1
     6    13    12    1
     7    34    35    1
     8     2     3    1
     9     2     5    1
    10    35    38    1
    11    35    36    1
    12    25    24    1
    13    41    40    2
    14     8     9    1
    15     7     6    1
    16    38    39    1
    17     9    12    1
    18     9    10    1
    19     3     4    2
    20    27    24    1
    21    27    28    1
    22    40    39    1
    23    40    42   am
    24    24    23    1
    25     5     6    1
    26    36    37    2
    27    11    10    2
    28    10    16   am
    29    23    18   am
    30    28    30   ar
    31    28    29   ar
    32    30    32   ar
    33    16    22    1
    34    16    17    1
    35   130   129    2
    36    29    31   ar
    37    22    21    1
    38    18    17    1
    39    18    19    2
    40    32    33   ar
    41    17    20    1
    42   129   128    1
    43    31    33   ar
    44   131   128    1
    45   131   132    1
    46   128   127    1
    47   134   132   ar
    48   134   136   ar
    49   132   133   ar
    50    21    20    1
    51   136   137   ar
    52   133   135   ar
    53   137   135   ar
    54    43    44    1
    55    44    45    1
    56    44    47    1
    57    45    46    2
    58    49    47    1
    59   123   122    2
    60    82    79    1
    61    47    48    1
    62   112   111    2
    63   125   124    1
    64    78    79    1
    65   122   121    1
    66   121   124    1
    67   121   120    1
    68   126   124    1
    69    77    76    1
    70    79    80    1
    71   111   120   am
    72   111   110    1
    73   113   110    1
    74   113   114    1
    75    57    55    1
    76    56    55    1
    77   118   117    1
    78   110   109    1
    79   115   114    1
    80   115   116    1
    81    55    54    1
    82    80    81    2
    83    76    75   ar
    84    76    74   ar
    85    75    73   ar
    86   117   116    2
    87   117   119    1
    88   102   100   am
    89    74    72   ar
    90   106   105    2
    91    73    71   ar
    92   109   105   am
    93    54    51    1
    94    50    51    1
    95   105   104    1
    96   100   101    2
    97   100    99    1
    98    51    52    1
    99    72    71   ar
   100    71    70    1
   101    99    96    1
   102   108   107    1
   103    65    63    1
   104    87    88    1
   105    87    84    1
   106   104   107    1
   107   104   103    1
   108    83    84    1
   109    70    67    1
   110    52    53    2
   111    95    96    1
   112    95    85   am
   113    63    62    1
   114    90    88   ar
   115    90    92   ar
   116    96    97    1
   117    88    89   ar
   118    84    85    1
   119    69    68    2
   120    68    67    1
   121    85    86    2
   122    98    97    2
   123    92    93   ar
   124    67    66    1
   125    89    91   ar
   126    62    64    1
   127    62    59    1
   128    61    60    2
   129    93    91   ar
   130    93    94    1
   131    58    59    1
   132    59    60    1
