@<TRIPOS>MOLECULE
tmp/5ktyA01.pdb
 82 77 0 0 0
SMALL
GASTEIGER

@<TRIPOS>ATOM
      1  N         12.9400   23.4970  120.8300 N.3   242  LYS242     -0.1231
      2  CA        12.3670   22.5550  119.8800 C.3   242  LYS242      0.1693
      3  C         10.8590   22.7560  119.7440 C.2   242  LYS242      0.2592
      4  O         10.1490   22.8720  120.7440 O.2   242  LYS242     -0.2718
      5  CB        12.6800   21.1230  120.3170 C.3   242  LYS242      0.0285
      6  CG        12.7030   20.1050  119.1930 C.3   242  LYS242      0.0035
      7  CD        13.3700   18.8170  119.6510 C.3   242  LYS242      0.0206
      8  CE        14.7740   19.0870  120.1760 C.3   242  LYS242      0.1093
      9  NZ        15.4770   17.8360  120.5740 N.3   242  LYS242     -0.1314
     10  N         10.3890   22.8100  118.5000 N.am  243  ASN243     -0.1974
     11  CA         8.9700   22.9790  118.1860 C.3   243  ASN243      0.1688
     12  C          8.3410   24.2310  118.7970 C.2   243  ASN243      0.2292
     13  O          7.1650   24.2250  119.1570 O.2   243  ASN243     -0.2864
     14  CB         8.1770   21.7460  118.6300 C.3   243  ASN243      0.1181
     15  CG         8.3030   20.5910  117.6560 C.2   243  ASN243      0.2629
     16  OD1        9.3230   20.4370  116.9840 O.2   243  ASN243     -0.2716
     17  ND2        7.2590   19.7740  117.5710 N.am  243  ASN243     -0.0877
     18  N          9.6700   27.9940  115.0980 N.3   246  LYS246     -0.1231
     19  CA        10.6980   28.6580  114.3010 C.3   246  LYS246      0.1693
     20  C         10.4560   28.5250  112.7990 C.2   246  LYS246      0.2592
     21  O         10.5560   29.5040  112.0590 O.2   246  LYS246     -0.2718
     22  CB        12.0800   28.1040  114.6530 C.3   246  LYS246      0.0285
     23  CG        12.6270   28.6020  115.9810 C.3   246  LYS246      0.0035
     24  CD        13.8280   27.7860  116.4310 C.3   246  LYS246      0.0206
     25  CE        13.4310   26.3510  116.7310 C.3   246  LYS246      0.1093
     26  NZ        14.5810   25.5280  117.1900 N.3   246  LYS246     -0.1314
     27  N         10.1410   27.3130  112.3530 N.am  247  SER247     -0.1952
     28  CA         9.8930   27.0620  110.9370 C.3   247  SER247      0.1924
     29  C          8.6540   27.8080  110.4520 C.2   247  SER247      0.2314
     30  O          8.5780   28.2170  109.2930 O.2   247  SER247     -0.2863
     31  CB         9.7390   25.5630  110.6750 C.3   247  SER247      0.2116
     32  OG         9.4390   25.3130  109.3130 O.3   247  SER247     -0.2180
     33  N         11.6430   20.7400  103.4090 N.3   269  LYS269     -0.1245
     34  CA        11.9310   21.6000  104.5610 C.3   269  LYS269      0.1561
     35  C         13.2620   22.3230  104.4230 C.2   269  LYS269      0.2260
     36  O         14.3260   21.7130  104.4890 O.2   269  LYS269     -0.2867
     37  CB        11.9210   20.8080  105.8730 C.3   269  LYS269      0.0271
     38  CG        12.1150   21.6970  107.1160 C.3   269  LYS269      0.0035
     39  CD        11.7350   20.9920  108.4050 C.3   269  LYS269      0.0206
     40  CE        11.6980   21.9840  109.5620 C.3   269  LYS269      0.1093
     41  NZ        11.2430   21.3550  110.8350 N.3   269  LYS269     -0.1314
     42  N         15.8100   25.5080  105.8380 N.3   271  TYR271     -0.1241
     43  CA        16.1220   26.1380  107.1110 C.3   271  TYR271      0.1605
     44  C         16.5920   27.5580  106.8430 C.2   271  TYR271      0.2264
     45  O         17.1880   28.2170  107.6970 O.2   271  TYR271     -0.2867
     46  CB        17.1570   25.3140  107.8740 C.3   271  TYR271      0.0534
     47  CG        16.6440   23.9220  108.1620 C.ar  271  TYR271     -0.0201
     48  CD1       15.9840   23.6360  109.3500 C.ar  271  TYR271     -0.0009
     49  CD2       16.7850   22.9020  107.2290 C.ar  271  TYR271     -0.0009
     50  CE1       15.4970   22.3690  109.6080 C.ar  271  TYR271      0.0417
     51  CE2       16.3000   21.6340  107.4780 C.ar  271  TYR271      0.0417
     52  CZ        15.6560   21.3730  108.6680 C.ar  271  TYR271      0.1957
     53  OH        15.1750   20.1090  108.9200 O.3   271  TYR271     -0.2866
     54  N         16.9010   29.4670  110.2080 N.3   290  ASP290     -0.1239
     55  CA        16.3170   28.6850  111.2920 C.3   290  ASP290      0.1674
     56  C         17.3880   27.8880  112.0280 C.2   290  ASP290      0.2266
     57  O         17.9540   26.9390  111.4850 O.2   290  ASP290     -0.2867
     58  CB        15.2360   27.7450  110.7520 C.3   290  ASP290      0.1410
     59  CG        14.5980   26.8950  111.8370 C.2   290  ASP290      0.3668
     60  OD1       14.7050   27.2560  113.0280 O.co2 290  ASP290     -0.2456
     61  OD2       13.9830   25.8630  111.4950 O.co2 290  ASP290     -0.2456
     62  N         17.9910   25.2500  114.4080 N.3   292  SER292     -0.1202
     63  CA        17.4560   24.1040  115.1340 C.3   292  SER292      0.2020
     64  C         18.1640   23.9770  116.4760 C.2   292  SER292      0.2619
     65  O         19.3710   24.2000  116.5650 O.2   292  SER292     -0.2717
     66  CB        17.6190   22.8190  114.3190 C.3   292  SER292      0.2103
     67  OG        16.9270   22.9060  113.0850 O.3   292  SER292     -0.2182
     68  N         17.4130   23.6360  117.5190 N.am  293  GLU293     -0.1965
     69  CA        17.9780   23.5690  118.8620 C.3   293  GLU293      0.1733
     70  C         19.0940   22.5350  118.9390 C.2   293  GLU293      0.2617
     71  O         18.8620   21.3370  118.7740 O.2   293  GLU293     -0.2715
     72  CB        16.9010   23.2490  119.9000 C.3   293  GLU293      0.0429
     73  CG        17.3890   23.3990  121.3360 C.3   293  GLU293      0.1163
     74  CD        16.3450   23.0070  122.3620 C.2   293  GLU293      0.3649
     75  OE1       15.3190   22.4100  121.9740 O.co2 293  GLU293     -0.2457
     76  OE2       16.5510   23.2980  123.5590 O.co2 293  GLU293     -0.2457
     77  N         20.3080   23.0150  119.1810 N.am  294  SER294     -0.1950
     78  CA        21.4690   22.1470  119.2970 C.3   294  SER294      0.1924
     79  C         22.0730   22.2560  120.6890 C.2   294  SER294      0.2314
     80  O         21.6220   23.0530  121.5110 O.2   294  SER294     -0.2863
     81  CB        22.5130   22.4990  118.2370 C.3   294  SER294      0.2116
     82  OG        23.6790   21.7070  118.3850 O.3   294  SER294     -0.2180
@<TRIPOS>BOND
     1    33    34    1
     2    35    36    2
     3    35    34    1
     4    34    37    1
     5    42    43    1
     6    37    38    1
     7    44    43    1
     8    44    45    2
     9    43    46    1
    10    38    39    1
    11    49    51   ar
    12    49    47   ar
    13    51    52   ar
    14    46    47    1
    15    47    48   ar
    16    39    40    1
    17    52    53    1
    18    52    50   ar
    19    30    29    2
    20    32    31    1
    21    48    50   ar
    22    40    41    1
    23    54    55    1
    24    29    28    1
    25    31    28    1
    26    58    55    1
    27    58    59    1
    28    28    27    1
    29    55    56    1
    30    57    56    2
    31    61    59   ar
    32    59    60   ar
    33    21    20    2
    34    27    20   am
    35    20    19    1
    36    67    66    1
    37    19    22    1
    38    19    18    1
    39    66    63    1
    40    62    63    1
    41    22    23    1
    42    63    64    1
    43    23    24    1
    44    24    25    1
    45    64    65    2
    46    64    68   am
    47    25    26    1
    48    16    15    2
    49    68    69    1
    50    17    15   am
    51    15    14    1
    52    11    10    1
    53    11    14    1
    54    11    12    1
    55    81    82    1
    56    81    78    1
    57    10     3   am
    58    71    70    2
    59    12    13    2
    60    69    70    1
    61    69    72    1
    62    70    77   am
    63    77    78    1
    64     6     7    1
    65     6     5    1
    66    78    79    1
    67     7     8    1
    68     3     2    1
    69     3     4    2
    70     2     5    1
    71     2     1    1
    72    72    73    1
    73     8     9    1
    74    79    80    2
    75    73    74    1
    76    75    74   ar
    77    74    76   ar
