@<TRIPOS>MOLECULE
tmp/5ktyA00.pdb
 151 144 0 0 0
SMALL
GASTEIGER

@<TRIPOS>ATOM
      1  N         12.9400   23.4970  120.8300 N.3   242  LYS242     -0.1231
      2  CA        12.3670   22.5550  119.8800 C.3   242  LYS242      0.1693
      3  C         10.8590   22.7560  119.7440 C.2   242  LYS242      0.2592
      4  O         10.1490   22.8720  120.7440 O.2   242  LYS242     -0.2718
      5  CB        12.6800   21.1230  120.3170 C.3   242  LYS242      0.0285
      6  CG        12.7030   20.1050  119.1930 C.3   242  LYS242      0.0035
      7  CD        13.3700   18.8170  119.6510 C.3   242  LYS242      0.0206
      8  CE        14.7740   19.0870  120.1760 C.3   242  LYS242      0.1093
      9  NZ        15.4770   17.8360  120.5740 N.3   242  LYS242     -0.1314
     10  N         10.3890   22.8100  118.5000 N.am  243  ASN243     -0.1960
     11  CA         8.9700   22.9790  118.1860 C.3   243  ASN243      0.1819
     12  C          8.3410   24.2310  118.7970 C.2   243  ASN243      0.2621
     13  O          7.1650   24.2250  119.1570 O.2   243  ASN243     -0.2715
     14  CB         8.1770   21.7460  118.6300 C.3   243  ASN243      0.1195
     15  CG         8.3030   20.5910  117.6560 C.2   243  ASN243      0.2630
     16  OD1        9.3230   20.4370  116.9840 O.2   243  ASN243     -0.2716
     17  ND2        7.2590   19.7740  117.5710 N.am  243  ASN243     -0.0877
     18  N          9.1200   25.3030  118.9030 N.am  244  CYS244     -0.1954
     19  CA         8.6050   26.5570  119.4450 C.3   244  CYS244      0.1843
     20  C          7.9690   27.4150  118.3520 C.2   244  CYS244      0.2626
     21  O          7.3880   28.4630  118.6360 O.2   244  CYS244     -0.2714
     22  CB         9.7160   27.3370  120.1510 C.3   244  CYS244      0.0997
     23  SG        10.8840   28.1530  119.0440 S.3   244  CYS244     -0.0797
     24  N          8.0830   26.9660  117.1050 N.am  245  GLY245     -0.1940
     25  CA         7.4440   27.6430  115.9890 C.3   245  GLY245      0.2014
     26  C          8.3990   28.3830  115.0710 C.2   245  GLY245      0.2639
     27  O          7.9900   29.2870  114.3430 O.2   245  GLY245     -0.2714
     28  N          9.6700   27.9940  115.0980 N.am  246  LYS246     -0.1963
     29  CA        10.6980   28.6580  114.3010 C.3   246  LYS246      0.1728
     30  C         10.4560   28.5250  112.7990 C.2   246  LYS246      0.2617
     31  O         10.5560   29.5040  112.0590 O.2   246  LYS246     -0.2715
     32  CB        12.0800   28.1040  114.6530 C.3   246  LYS246      0.0311
     33  CG        12.6270   28.6020  115.9810 C.3   246  LYS246      0.0038
     34  CD        13.8280   27.7860  116.4310 C.3   246  LYS246      0.0206
     35  CE        13.4310   26.3510  116.7310 C.3   246  LYS246      0.1093
     36  NZ        14.5810   25.5280  117.1900 N.3   246  LYS246     -0.1314
     37  N         10.1410   27.3130  112.3530 N.am  247  SER247     -0.1936
     38  CA         9.8930   27.0620  110.9370 C.3   247  SER247      0.2055
     39  C          8.6540   27.8080  110.4520 C.2   247  SER247      0.2643
     40  O          8.5780   28.2170  109.2930 O.2   247  SER247     -0.2714
     41  CB         9.7390   25.5630  110.6750 C.3   247  SER247      0.2130
     42  OG         9.4390   25.3130  109.3130 O.3   247  SER247     -0.2179
     43  N          7.6860   27.9810  111.3470 N.am  248  GLY248     -0.1954
     44  CA         6.4710   28.7080  111.0300 C.3   248  GLY248      0.1869
     45  C          6.7460   30.1750  110.7690 C.2   248  GLY248      0.2309
     46  O          6.0410   30.8230  109.9950 O.2   248  GLY248     -0.2863
     47  N         -0.2850   28.5190  108.5120 N.3   258  LEU258     -0.1245
     48  CA        -0.0830   27.1800  109.0610 C.3   258  LEU258      0.1561
     49  C         -0.7700   26.1030  108.2210 C.2   258  LEU258      0.2260
     50  O         -0.2750   24.9810  108.1130 O.2   258  LEU258     -0.2867
     51  CB        -0.5840   27.1160  110.5050 C.3   258  LEU258      0.0270
     52  CG        -0.2890   25.8170  111.2580 C.3   258  LEU258      0.0019
     53  CD1        1.1860   25.4660  111.1510 C.3   258  LEU258      0.0001
     54  CD2       -0.7110   25.9310  112.7140 C.3   258  LEU258      0.0001
     55  N          1.3740   25.5480  105.2300 N.3   261  GLN261     -0.1231
     56  CA         2.6420   24.9560  105.6480 C.3   261  GLN261      0.1698
     57  C          2.5610   23.4440  105.8340 C.2   261  GLN261      0.2592
     58  O          3.5650   22.7430  105.7110 O.2   261  GLN261     -0.2718
     59  CB         3.1230   25.5980  106.9510 C.3   261  GLN261      0.0381
     60  CG         3.5610   27.0430  106.8180 C.3   261  GLN261      0.0905
     61  CD         4.0210   27.6290  108.1370 C.2   261  GLN261      0.2608
     62  OE1        4.5870   26.9290  108.9770 O.2   261  GLN261     -0.2717
     63  NE2        3.7760   28.9210  108.3290 N.am  261  GLN261     -0.0878
     64  N          1.3650   22.9460  106.1300 N.am  262  LYS262     -0.1980
     65  CA         1.1870   21.5380  106.4690 C.3   262  LYS262      0.1596
     66  C          1.3710   20.6120  105.2660 C.2   262  LYS262      0.2287
     67  O          1.4610   19.3950  105.4240 O.2   262  LYS262     -0.2864
     68  CB        -0.1950   21.3150  107.0870 C.3   262  LYS262      0.0298
     69  CG        -0.1760   20.4840  108.3590 C.3   262  LYS262      0.0038
     70  CD         0.6260   21.1730  109.4520 C.3   262  LYS262      0.0206
     71  CE         0.6110   20.3660  110.7400 C.3   262  LYS262      0.1093
     72  NZ         1.4160   21.0150  111.8120 N.3   262  LYS262     -0.1314
     73  N         11.6430   20.7400  103.4090 N.3   269  LYS269     -0.1245
     74  CA        11.9310   21.6000  104.5610 C.3   269  LYS269      0.1561
     75  C         13.2620   22.3230  104.4230 C.2   269  LYS269      0.2260
     76  O         14.3260   21.7130  104.4890 O.2   269  LYS269     -0.2867
     77  CB        11.9210   20.8080  105.8730 C.3   269  LYS269      0.0271
     78  CG        12.1150   21.6970  107.1160 C.3   269  LYS269      0.0035
     79  CD        11.7350   20.9920  108.4050 C.3   269  LYS269      0.0206
     80  CE        11.6980   21.9840  109.5620 C.3   269  LYS269      0.1093
     81  NZ        11.2430   21.3550  110.8350 N.3   269  LYS269     -0.1314
     82  N         16.9010   29.4670  110.2080 N.3   290  ASP290     -0.1239
     83  CA        16.3170   28.6850  111.2920 C.3   290  ASP290      0.1674
     84  C         17.3880   27.8880  112.0280 C.2   290  ASP290      0.2266
     85  O         17.9540   26.9390  111.4850 O.2   290  ASP290     -0.2867
     86  CB        15.2360   27.7450  110.7520 C.3   290  ASP290      0.1410
     87  CG        14.5980   26.8950  111.8370 C.2   290  ASP290      0.3668
     88  OD1       14.7050   27.2560  113.0280 O.co2 290  ASP290     -0.2456
     89  OD2       13.9830   25.8630  111.4950 O.co2 290  ASP290     -0.2456
     90  N          5.5150   33.4630  119.9060 N.3   342  ALA342     -0.1231
     91  CA         4.8750   32.7480  118.8040 C.3   342  ALA342      0.1694
     92  C          3.6790   31.9180  119.2590 C.2   342  ALA342      0.2591
     93  O          3.4620   31.7260  120.4570 O.2   342  ALA342     -0.2718
     94  CB         5.8880   31.8610  118.1000 C.3   342  ALA342      0.0304
     95  N          2.9190   31.4260  118.2820 N.am  343  LYS343     -0.1980
     96  CA         1.7050   30.6470  118.5220 C.3   343  LYS343      0.1596
     97  C          0.7250   31.4000  119.4150 C.2   343  LYS343      0.2287
     98  O          0.0760   30.8090  120.2770 O.2   343  LYS343     -0.2864
     99  CB         2.0430   29.2880  119.1420 C.3   343  LYS343      0.0298
    100  CG         3.0200   28.4560  118.3280 C.3   343  LYS343      0.0038
    101  CD         3.2280   27.0890  118.9570 C.3   343  LYS343      0.0206
    102  CE         4.4140   26.3680  118.3420 C.3   343  LYS343      0.1093
    103  NZ         4.6850   25.0720  119.0250 N.3   343  LYS343     -0.1314
    104  N         -2.0500   32.4180  118.8900 N.3   345  ASP345     -0.1225
    105  CA        -3.4250   31.9710  118.7050 C.3   345  ASP345      0.1805
    106  C         -3.8110   30.9500  119.7720 C.2   345  ASP345      0.2597
    107  O         -4.9930   30.6760  119.9840 O.2   345  ASP345     -0.2718
    108  CB        -3.6160   31.3750  117.3090 C.3   345  ASP345      0.1424
    109  CG        -2.6820   30.2110  117.0400 C.2   345  ASP345      0.3668
    110  OD1       -1.4700   30.3450  117.3080 O.co2 345  ASP345     -0.2456
    111  OD2       -3.1610   29.1610  116.5640 O.co2 345  ASP345     -0.2456
    112  N         -2.8070   30.3910  120.4400 N.am  346  LEU346     -0.1979
    113  CA        -3.0340   29.4170  121.5010 C.3   346  LEU346      0.1596
    114  C         -3.1650   30.1040  122.8560 C.2   346  LEU346      0.2287
    115  O         -2.7980   31.2700  123.0060 O.2   346  LEU346     -0.2864
    116  CB        -1.8990   28.3920  121.5420 C.3   346  LEU346      0.0297
    117  CG        -1.6710   27.5790  120.2670 C.3   346  LEU346      0.0022
    118  CD1       -0.5580   26.5640  120.4710 C.3   346  LEU346      0.0001
    119  CD2       -2.9570   26.8910  119.8360 C.3   346  LEU346      0.0001
    120  N          2.9470   36.9530  117.8080 N.3   372  PHE372     -0.1227
    121  CA         2.9370   36.4930  116.4260 C.3   372  PHE372      0.1736
    122  C          2.2320   35.1510  116.2800 C.2   372  PHE372      0.2596
    123  O          2.2980   34.3000  117.1670 O.2   372  PHE372     -0.2718
    124  CB         4.3670   36.3930  115.8850 C.3   372  PHE372      0.0547
    125  CG         4.4650   35.6920  114.5590 C.ar  372  PHE372     -0.0202
    126  CD1        4.1910   36.3690  113.3820 C.ar  372  PHE372     -0.0042
    127  CD2        4.8300   34.3570  114.4900 C.ar  372  PHE372     -0.0042
    128  CE1        4.2780   35.7280  112.1620 C.ar  372  PHE372     -0.0003
    129  CE2        4.9170   33.7100  113.2720 C.ar  372  PHE372     -0.0003
    130  CZ         4.6410   34.3970  112.1070 C.ar  372  PHE372     -0.0000
    131  N          1.5560   34.9720  115.1500 N.am  373  THR373     -0.1939
    132  CA         0.9520   33.6920  114.8100 C.3   373  THR373      0.2028
    133  C          0.9160   33.5140  113.2940 C.2   373  THR373      0.2642
    134  O          0.6450   34.4590  112.5520 O.2   373  THR373     -0.2714
    135  CB        -0.4750   33.5590  115.3880 C.3   373  THR373      0.1808
    136  OG1       -1.0600   32.3270  114.9470 O.3   373  THR373     -0.2208
    137  CG2       -1.3530   34.7230  114.9490 C.3   373  THR373      0.0379
    138  N          1.2130   32.3030  112.8380 N.am  374  CYS374     -0.1953
    139  CA         1.1500   31.9970  111.4160 C.3   374  CYS374      0.1843
    140  C         -0.1270   31.2290  111.1080 C.2   374  CYS374      0.2625
    141  O         -0.4410   30.9630  109.9500 O.2   374  CYS374     -0.2714
    142  CB         2.3780   31.1990  110.9730 C.3   374  CYS374      0.0997
    143  SG         2.5460   29.5770  111.7480 S.3   374  CYS374     -0.0797
    144  N         -0.8620   30.8760  112.1580 N.am  375  ASN375     -0.1972
    145  CA        -2.1400   30.1940  112.0010 C.3   375  ASN375      0.1688
    146  C         -3.2600   31.1940  111.7390 C.2   375  ASN375      0.2292
    147  O         -4.0540   31.5020  112.6270 O.2   375  ASN375     -0.2864
    148  CB        -2.4570   29.3530  113.2390 C.3   375  ASN375      0.1181
    149  CG        -3.7280   28.5400  113.0830 C.2   375  ASN375      0.2629
    150  OD1       -4.1750   28.2720  111.9670 O.2   375  ASN375     -0.2716
    151  ND2       -4.3190   28.1450  114.2040 N.am  375  ASN375     -0.0877
@<TRIPOS>BOND
     1    73    74    1
     2    75    76    2
     3    75    74    1
     4    74    77    1
     5    55    56    1
     6    66    67    2
     7    66    65    1
     8    56    57    1
     9    56    59    1
    10    58    57    2
    11    57    64   am
    12    77    78    1
    13    64    65    1
    14    65    68    1
    15    60    59    1
    16    60    61    1
    17    68    69    1
    18    78    79    1
    19    50    49    2
    20    61    63   am
    21    61    62    2
    22    49    48    1
    23    69    70    1
    24    79    80    1
    25    47    48    1
    26    48    51    1
    27    40    39    2
    28    42    41    1
    29    70    71    1
    30    80    81    1
    31   141   140    2
    32    46    45    2
    33    82    83    1
    34    39    38    1
    35    39    43   am
    36    51    52    1
    37    41    38    1
    38    71    72    1
    39    86    83    1
    40    86    87    1
    41    45    44    1
    42    38    37    1
    43   142   139    1
    44   142   143    1
    45    44    43    1
    46   140   139    1
    47   140   144   am
    48    53    52    1
    49    52    54    1
    50    83    84    1
    51   139   138    1
    52    85    84    2
    53    89    87   ar
    54   146   145    1
    55   146   147    2
    56    87    88   ar
    57   150   149    2
    58   145   144    1
    59   145   148    1
    60    31    30    2
    61   130   128   ar
    62   130   129   ar
    63   128   126   ar
    64    37    30   am
    65   134   133    2
    66    30    29    1
    67   138   133   am
    68   149   148    1
    69   149   151   am
    70   129   127   ar
    71   133   132    1
    72   126   125   ar
    73    29    32    1
    74    29    28    1
    75    27    26    2
    76   127   125   ar
    77   125   124    1
    78    32    33    1
    79   132   131    1
    80   132   135    1
    81   136   135    1
    82   137   135    1
    83    26    28   am
    84    26    25    1
    85   131   122   am
    86   124   121    1
    87    33    34    1
    88    25    24    1
    89   122   121    1
    90   122   123    2
    91   121   120    1
    92    34    35    1
    93   111   109   ar
    94    35    36    1
    95    16    15    2
    96   109   110   ar
    97   109   108    1
    98    24    20   am
    99   108   105    1
   100    17    15   am
   101    15    14    1
   102    94    91    1
   103    11    10    1
   104    11    14    1
   105    11    12    1
   106    95    96    1
   107    95    92   am
   108   100   101    1
   109   100    99    1
   110   102   101    1
   111   102   103    1
   112    20    21    2
   113    20    19    1
   114    10     3   am
   115    96    99    1
   116    96    97    1
   117   105   104    1
   118   105   106    1
   119    12    18   am
   120    12    13    2
   121    91    92    1
   122    91    90    1
   123    18    19    1
   124    23    22    1
   125     6     7    1
   126     6     5    1
   127    92    93    2
   128    97    98    2
   129    19    22    1
   130     7     8    1
   131     3     2    1
   132     3     4    2
   133   106   107    2
   134   106   112   am
   135   119   117    1
   136     2     5    1
   137     2     1    1
   138     8     9    1
   139   117   118    1
   140   117   116    1
   141   112   113    1
   142   113   116    1
   143   113   114    1
   144   114   115    2
