@<TRIPOS>MOLECULE
tmp/5ku3A01.pdb
 110 107 0 0 0
SMALL
GASTEIGER

@<TRIPOS>ATOM
      1  N          7.1790  -10.3990  -23.2480 N.3    40  TRP40      -0.1228
      2  CA         5.7730   -9.9900  -23.1650 C.3    40  TRP40       0.1722
      3  C          4.8400  -10.8920  -22.3240 C.2    40  TRP40       0.2437
      4  O          3.9610  -10.3610  -21.6600 O.2    40  TRP40      -0.2733
      5  CB         5.1700   -9.6720  -24.5470 C.3    40  TRP40       0.0563
      6  CG         5.1710  -10.7980  -25.5100 C.ar   40  TRP40       0.0003
      7  CD1        6.1340  -11.0900  -26.4300 C.ar   40  TRP40       0.0946
      8  CD2        4.1620  -11.8000  -25.6470 C.ar   40  TRP40       0.0152
      9  NE1        5.7830  -12.2110  -27.1360 N.ar   40  TRP40      -0.2442
     10  CE2        4.5780  -12.6720  -26.6710 C.ar   40  TRP40       0.0810
     11  CE3        2.9430  -12.0460  -25.0030 C.ar   40  TRP40       0.0012
     12  CZ2        3.8270  -13.7810  -27.0530 C.ar   40  TRP40       0.0191
     13  CZ3        2.1980  -13.1470  -25.3810 C.ar   40  TRP40       0.0001
     14  CH2        2.6400  -13.9970  -26.4060 C.ar   40  TRP40       0.0015
     15  N          5.0170  -12.2330  -22.3100 N.am   41  PRO41      -0.2718
     16  CA         4.0940  -13.0180  -21.4750 C.3    41  PRO41       0.1535
     17  C          4.4320  -12.9530  -19.9840 C.2    41  PRO41       0.2598
     18  O          3.6550  -13.4440  -19.1630 O.2    41  PRO41      -0.2715
     19  CB         4.2800  -14.4650  -21.9690 C.3    41  PRO41       0.0310
     20  CG         5.0640  -14.3690  -23.2350 C.3    41  PRO41       0.0237
     21  CD         5.8720  -13.1100  -23.1230 C.3    41  PRO41       0.0939
     22  N          5.5790  -12.3630  -19.6470 N.am   42  PHE42      -0.1974
     23  CA         6.1760  -12.4670  -18.3180 C.3    42  PHE42       0.1639
     24  C          6.3400  -11.1370  -17.6120 C.2    42  PHE42       0.2290
     25  O          6.9130  -11.1010  -16.5320 O.2    42  PHE42      -0.2864
     26  CB         7.5320  -13.1520  -18.4260 C.3    42  PHE42       0.0560
     27  CG         7.4730  -14.4590  -19.1610 C.ar   42  PHE42      -0.0200
     28  CD1        7.9710  -14.5600  -20.4570 C.ar   42  PHE42      -0.0042
     29  CD2        6.8910  -15.5840  -18.5800 C.ar   42  PHE42      -0.0042
     30  CE1        7.8930  -15.7600  -21.1580 C.ar   42  PHE42      -0.0003
     31  CE2        6.8040  -16.7780  -19.2850 C.ar   42  PHE42      -0.0003
     32  CZ         7.3090  -16.8650  -20.5740 C.ar   42  PHE42      -0.0000
     33  N          3.9640   -9.0360  -16.3730 N.3    44  GLN44      -0.1245
     34  CA         2.9770   -8.7410  -15.3440 C.3    44  GLN44       0.1566
     35  C          2.3600  -10.0350  -14.8630 C.2    44  GLN44       0.2260
     36  O          2.4110  -11.0510  -15.5630 O.2    44  GLN44      -0.2867
     37  CB         1.8780   -7.8140  -15.8870 C.3    44  GLN44       0.0367
     38  CG         2.3610   -6.4440  -16.3420 C.3    44  GLN44       0.0905
     39  CD         2.9770   -5.6240  -15.2200 C.2    44  GLN44       0.2608
     40  OE1        2.6750   -5.8300  -14.0460 O.2    44  GLN44      -0.2717
     41  NE2        3.8520   -4.6900  -15.5780 N.am   44  GLN44      -0.0878
     42  N         -0.1870  -12.9170  -14.4890 N.3    46  VAL46      -0.1245
     43  CA        -1.0740  -13.4280  -15.5170 C.3    46  VAL46       0.1561
     44  C         -2.4960  -12.9730  -15.1990 C.2    46  VAL46       0.2260
     45  O         -3.0370  -13.2710  -14.1220 O.2    46  VAL46      -0.2867
     46  CB        -1.0020  -14.9580  -15.5980 C.3    46  VAL46       0.0252
     47  CG1       -2.0500  -15.4880  -16.5640 C.3    46  VAL46       0.0019
     48  CG2        0.3860  -15.4160  -16.0350 C.3    46  VAL46       0.0019
     49  N         -7.5010  -12.6920  -20.1340 N.3    51  LEU51      -0.1245
     50  CA        -7.1730  -13.7690  -21.0820 C.3    51  LEU51       0.1561
     51  C         -8.1620  -14.9330  -21.0580 C.2    51  LEU51       0.2260
     52  O         -8.0810  -15.8510  -21.8820 O.2    51  LEU51      -0.2867
     53  CB        -5.7780  -14.3170  -20.8040 C.3    51  LEU51       0.0270
     54  CG        -4.5990  -13.3910  -21.0720 C.3    51  LEU51       0.0019
     55  CD1       -3.3270  -14.0280  -20.5400 C.3    51  LEU51       0.0001
     56  CD2       -4.4650  -13.1030  -22.5600 C.3    51  LEU51       0.0001
     57  N         -8.5150  -17.4350  -18.7850 N.3    53  LEU53      -0.1245
     58  CA        -7.7820  -18.6710  -18.5150 C.3    53  LEU53       0.1561
     59  C         -8.2760  -19.2600  -17.1990 C.2    53  LEU53       0.2260
     60  O         -7.6330  -19.1000  -16.1530 O.2    53  LEU53      -0.2867
     61  CB        -6.2760  -18.4310  -18.4390 C.3    53  LEU53       0.0270
     62  CG        -5.5910  -17.8430  -19.6670 C.3    53  LEU53       0.0019
     63  CD1       -4.1090  -17.6570  -19.3820 C.3    53  LEU53       0.0001
     64  CD2       -5.8060  -18.7130  -20.8940 C.3    53  LEU53       0.0001
     65  N         -5.7500  -21.3470  -14.9820 N.3    56  TYR56      -0.1241
     66  CA        -4.4120  -20.8690  -14.6680 C.3    56  TYR56       0.1605
     67  C         -4.1170  -20.9360  -13.1620 C.2    56  TYR56       0.2264
     68  O         -3.1330  -21.5530  -12.7470 O.2    56  TYR56      -0.2867
     69  CB        -4.1220  -19.4620  -15.2280 C.3    56  TYR56       0.0534
     70  CG        -2.6510  -19.1500  -15.0630 C.ar   56  TYR56      -0.0201
     71  CD1       -1.7170  -19.6180  -15.9840 C.ar   56  TYR56      -0.0009
     72  CD2       -2.1820  -18.4840  -13.9410 C.ar   56  TYR56      -0.0009
     73  CE1       -0.3650  -19.4000  -15.8060 C.ar   56  TYR56       0.0417
     74  CE2       -0.8390  -18.2720  -13.7560 C.ar   56  TYR56       0.0417
     75  CZ         0.0700  -18.7280  -14.6790 C.ar   56  TYR56       0.1957
     76  OH         1.4050  -18.5060  -14.4420 O.3    56  TYR56      -0.2866
     77  N          5.5790  -21.6010  -16.0780 N.3    95  CYS95      -0.1235
     78  CA         5.2960  -21.6630  -17.5040 C.3    95  CYS95       0.1677
     79  C          5.3840  -23.1040  -17.9900 C.2    95  CYS95       0.2270
     80  O          4.5480  -23.5510  -18.7860 O.2    95  CYS95      -0.2867
     81  CB         6.2580  -20.7460  -18.2700 C.3    95  CYS95       0.0956
     82  SG         5.8990  -20.5880  -20.0430 S.3    95  CYS95      -0.0801
     83  N          2.1930  -25.1230  -16.4860 N.3    98  TYR98      -0.1227
     84  CA         0.8680  -24.7590  -17.0000 C.3    98  TYR98       0.1736
     85  C          0.7010  -25.1550  -18.4570 C.2    98  TYR98       0.2595
     86  O         -0.3480  -25.6410  -18.8670 O.2    98  TYR98      -0.2718
     87  CB         0.5740  -23.2660  -16.7980 C.3    98  TYR98       0.0548
     88  CG        -0.7130  -22.8430  -17.4620 C.ar   98  TYR98      -0.0200
     89  CD1       -1.9350  -23.0780  -16.8600 C.ar   98  TYR98      -0.0009
     90  CD2       -0.7050  -22.2760  -18.7300 C.ar   98  TYR98      -0.0009
     91  CE1       -3.1160  -22.7460  -17.5000 C.ar   98  TYR98       0.0417
     92  CE2       -1.8770  -21.9330  -19.3720 C.ar   98  TYR98       0.0417
     93  CZ        -3.0780  -22.1660  -18.7480 C.ar   98  TYR98       0.1957
     94  OH        -4.2600  -21.8510  -19.3700 O.3    98  TYR98      -0.2866
     95  N          1.7610  -24.9650  -19.2310 N.am   99  ASN99      -0.1974
     96  CA         1.7500  -25.2340  -20.6530 C.3    99  ASN99       0.1688
     97  C          2.3280  -26.6180  -20.8680 C.2    99  ASN99       0.2292
     98  O          2.5200  -27.3830  -19.9240 O.2    99  ASN99      -0.2864
     99  CB         2.5280  -24.1330  -21.3650 C.3    99  ASN99       0.1181
    100  CG         1.9350  -22.7710  -21.1050 C.2    99  ASN99       0.2629
    101  OD1        0.9050  -22.4210  -21.6810 O.2    99  ASN99      -0.2716
    102  ND2        2.5830  -21.9880  -20.2440 N.am   99  ASN99      -0.0877
    103  N          5.1520  -20.8600  -26.1630 N.3   105  ILE105     -0.1245
    104  CA         5.4160  -20.0270  -24.9860 C.3   105  ILE105      0.1561
    105  C          6.4840  -20.6710  -24.0900 C.2   105  ILE105      0.2260
    106  O          7.2390  -19.9840  -23.4100 O.2   105  ILE105     -0.2867
    107  CB         4.1020  -19.7180  -24.2180 C.3   105  ILE105      0.0252
    108  CG1        4.2820  -18.5330  -23.2500 C.3   105  ILE105      0.0019
    109  CG2        3.5400  -20.9540  -23.5040 C.3   105  ILE105      0.0019
    110  CD1        2.9880  -18.0850  -22.6000 C.3   105  ILE105      0.0001
@<TRIPOS>BOND
     1     9    10   ar
     2     9     7   ar
     3    12    10   ar
     4    12    14   ar
     5    10     8   ar
     6     7     6   ar
     7    14    13   ar
     8   103   104    1
     9     8     6   ar
    10     8    11   ar
    11     6     5    1
    12    13    11   ar
    13   104   107    1
    14   104   105    1
    15     5     2    1
    16   107   109    1
    17   107   108    1
    18   105   106    2
    19   108   110    1
    20     1     2    1
    21    20    21    1
    22    20    19    1
    23     2     3    1
    24    21    15    1
    25    56    54    1
    26     3    15   am
    27     3     4    2
    28    15    16    1
    29    19    16    1
    30    52    51    2
    31   101   100    2
    32    16    17    1
    33    99   100    1
    34    99    96    1
    35    30    32   ar
    36    30    28   ar
    37   100   102   am
    38    50    51    1
    39    50    53    1
    40    50    49    1
    41    54    53    1
    42    54    55    1
    43    64    62    1
    44    97    96    1
    45    97    98    2
    46    96    95    1
    47    32    31   ar
    48    28    27   ar
    49    82    81    1
    50    17    22   am
    51    17    18    2
    52    62    63    1
    53    62    61    1
    54    22    23    1
    55    92    93   ar
    56    92    90   ar
    57    94    93    1
    58    31    29   ar
    59    95    85   am
    60    27    29   ar
    61    27    26    1
    62    86    85    2
    63    80    79    2
    64    57    58    1
    65    93    91   ar
    66    90    88   ar
    67    58    61    1
    68    58    59    1
    69    85    84    1
    70    26    23    1
    71    23    24    1
    72    81    78    1
    73    79    78    1
    74    24    25    2
    75    78    77    1
    76    91    89   ar
    77    88    89   ar
    78    88    87    1
    79    59    60    2
    80    84    87    1
    81    84    83    1
    82    47    46    1
    83    33    34    1
    84    38    37    1
    85    38    39    1
    86    48    46    1
    87    71    73   ar
    88    71    70   ar
    89    37    34    1
    90    73    75   ar
    91    46    43    1
    92    41    39   am
    93    36    35    2
    94    43    44    1
    95    43    42    1
    96    34    35    1
    97    69    70    1
    98    69    66    1
    99    39    40    2
   100    44    45    2
   101    70    72   ar
   102    65    66    1
   103    75    76    1
   104    75    74   ar
   105    66    67    1
   106    72    74   ar
   107    67    68    2
