@<TRIPOS>MOLECULE
tmp/5ku6C00.pdb
 128 123 0 0 0
SMALL
GASTEIGER

@<TRIPOS>ATOM
      1  N          3.3030   23.1960  -26.4710 N.3    71  MET71      -0.1245
      2  CA         2.1370   23.0450  -25.6210 C.3    71  MET71       0.1570
      3  C          0.9040   23.6960  -26.2250 C.2    71  MET71       0.2261
      4  O          0.9480   24.8760  -26.5810 O.2    71  MET71      -0.2867
      5  CB         2.4190   23.6880  -24.2590 C.3    71  MET71       0.0387
      6  CG         1.2600   23.6170  -23.2740 C.3    71  MET71       0.0595
      7  SD         1.7030   24.3760  -21.6890 S.3    71  MET71      -0.1393
      8  CE         2.9320   23.2170  -21.0890 C.3    71  MET71       0.0692
      9  N         -3.9310   21.6970  -20.6540 N.3    93  GLN93      -0.1245
     10  CA        -2.9240   21.8160  -21.7000 C.3    93  GLN93       0.1566
     11  C         -2.4990   20.4440  -22.1720 C.2    93  GLN93       0.2260
     12  O         -2.6630   19.4490  -21.4620 O.2    93  GLN93      -0.2867
     13  CB        -1.6990   22.5950  -21.2180 C.3    93  GLN93       0.0367
     14  CG        -1.1330   22.1240  -19.8980 C.3    93  GLN93       0.0905
     15  CD         0.1740   21.3430  -20.0230 C.2    93  GLN93       0.2608
     16  OE1        0.5150   20.8050  -21.0810 O.2    93  GLN93      -0.2717
     17  NE2        0.9130   21.2830  -18.9220 N.am   93  GLN93      -0.0878
     18  N          0.9440   18.6670  -24.1730 N.3    95  HIS95      -0.1241
     19  CA         2.3030   18.8770  -24.6680 C.3    95  HIS95       0.1621
     20  C          2.9220   17.5440  -25.0420 C.2    95  HIS95       0.2264
     21  O          2.2770   16.4950  -24.9140 O.2    95  HIS95      -0.2867
     22  CB         3.1530   19.5920  -23.6250 C.3    95  HIS95       0.0745
     23  CG         3.3540   18.7910  -22.3860 C.ar   95  HIS95       0.0817
     24  ND1        2.5660   18.9520  -21.2680 N.ar   95  HIS95      -0.2268
     25  CD2        4.2230   17.7900  -22.1000 C.ar   95  HIS95       0.1154
     26  CE1        2.9550   18.1010  -20.3350 C.ar   95  HIS95       0.1986
     27  NE2        3.9610   17.3860  -20.8140 N.ar   95  HIS95      -0.2212
     28  N          6.7310   14.9630  -25.4950 N.3    97  HIS97      -0.1241
     29  CA         8.1410   14.6730  -25.2680 C.3    97  HIS97       0.1621
     30  C          8.5890   13.8060  -26.4260 C.2    97  HIS97       0.2264
     31  O          7.8230   12.9830  -26.8940 O.2    97  HIS97      -0.2867
     32  CB         8.3270   13.9230  -23.9530 C.3    97  HIS97       0.0745
     33  CG         7.7200   14.6090  -22.7730 C.ar   97  HIS97       0.0817
     34  ND1        8.4690   15.3330  -21.8660 N.ar   97  HIS97      -0.2268
     35  CD2        6.4410   14.6560  -22.3290 C.ar   97  HIS97       0.1154
     36  CE1        7.6710   15.8240  -20.9350 C.ar   97  HIS97       0.1986
     37  NE2        6.4390   15.4230  -21.1880 N.ar   97  HIS97      -0.2212
     38  N          1.2670   14.1620  -23.5420 N.3   120  HIS120     -0.1241
     39  CA         0.6120   14.2800  -22.2330 C.3   120  HIS120      0.1621
     40  C         -0.5490   15.2740  -22.2890 C.2   120  HIS120      0.2264
     41  O         -0.3490   16.4430  -22.6250 O.2   120  HIS120     -0.2867
     42  CB         1.6120   14.7070  -21.1540 C.3   120  HIS120      0.0745
     43  CG         2.6420   13.6680  -20.8360 C.ar  120  HIS120      0.0817
     44  ND1        3.8810   13.9870  -20.3220 N.ar  120  HIS120     -0.2268
     45  CD2        2.6180   12.3180  -20.9620 C.ar  120  HIS120      0.1154
     46  CE1        4.5750   12.8730  -20.1430 C.ar  120  HIS120      0.1986
     47  NE2        3.8290   11.8480  -20.5100 N.ar  120  HIS120     -0.2212
     48  N         -2.9520   17.1140  -19.8950 N.3   122  VAL122     -0.1245
     49  CA        -2.9590   17.4130  -18.4700 C.3   122  VAL122      0.1561
     50  C         -4.3310   17.9490  -18.0490 C.2   122  VAL122      0.2260
     51  O         -4.7950   18.9660  -18.5590 O.2   122  VAL122     -0.2867
     52  CB        -1.8530   18.4480  -18.0980 C.3   122  VAL122      0.0252
     53  CG1       -1.8920   18.7810  -16.6150 C.3   122  VAL122      0.0019
     54  CG2       -0.4620   17.9360  -18.5040 C.3   122  VAL122      0.0019
     55  N         -4.2230   15.9230  -10.1920 N.3   143  ILE143     -0.1245
     56  CA        -3.9780   16.0450  -11.6330 C.3   143  ILE143      0.1561
     57  C         -4.1130   14.6730  -12.2840 C.2   143  ILE143      0.2260
     58  O         -3.6220   13.6810  -11.7450 O.2   143  ILE143     -0.2867
     59  CB        -2.5600   16.6660  -11.9430 C.3   143  ILE143      0.0252
     60  CG1       -2.4530   18.1020  -11.4060 C.3   143  ILE143      0.0019
     61  CG2       -2.2380   16.6300  -13.4490 C.3   143  ILE143      0.0019
     62  CD1       -3.2680   19.1150  -12.1770 C.3   143  ILE143      0.0001
     63  N         -3.1220   12.9950  -15.8500 N.3   145  VAL145     -0.1245
     64  CA        -2.4780   13.1130  -17.1470 C.3   145  VAL145      0.1561
     65  C         -2.8210   11.8820  -17.9600 C.2   145  VAL145      0.2260
     66  O         -2.6350   10.7530  -17.4920 O.2   145  VAL145     -0.2867
     67  CB        -0.9480   13.2480  -17.0320 C.3   145  VAL145      0.0252
     68  CG1       -0.3270   13.3840  -18.4270 C.3   145  VAL145      0.0019
     69  CG2       -0.5670   14.4480  -16.1500 C.3   145  VAL145      0.0019
     70  N          4.3360   14.7340  -11.5270 N.3   204  LEU204     -0.1231
     71  CA         4.6890   15.4960  -12.7140 C.3   204  LEU204      0.1693
     72  C          6.1520   15.2030  -13.0790 C.2   204  LEU204      0.2593
     73  O          6.9800   14.9280  -12.1990 O.2   204  LEU204     -0.2718
     74  CB         4.4660   16.9950  -12.4720 C.3   204  LEU204      0.0284
     75  CG         3.0030   17.4170  -12.2360 C.3   204  LEU204      0.0019
     76  CD1        2.9130   18.8200  -11.6360 C.3   204  LEU204      0.0001
     77  CD2        2.2150   17.3280  -13.5360 C.3   204  LEU204      0.0001
     78  N          6.4680   15.2340  -14.3720 N.am  205  THR205     -0.1939
     79  CA         7.8080   14.8400  -14.8350 C.3   205  THR205      0.2028
     80  C          8.7420   16.0110  -15.1850 C.2   205  THR205      0.2643
     81  O          9.7800   15.8050  -15.8060 O.2   205  THR205     -0.2714
     82  CB         7.7390   13.8630  -16.0410 C.3   205  THR205      0.1808
     83  OG1        7.2200   14.5550  -17.1750 O.3   205  THR205     -0.2208
     84  CG2        6.8410   12.6510  -15.7210 C.3   205  THR205      0.0379
     85  N          8.3830   17.2300  -14.7880 N.am  206  THR206     -0.1937
     86  CA         9.3240   18.3450  -14.8120 C.3   206  THR206      0.2013
     87  C          9.2370   19.0220  -13.4450 C.2   206  THR206      0.2484
     88  O          8.2080   18.8790  -12.7810 O.2   206  THR206     -0.2729
     89  CB         8.9880   19.3420  -15.9210 C.3   206  THR206      0.1807
     90  OG1        7.6660   19.8470  -15.7160 O.3   206  THR206     -0.2208
     91  CG2        9.0690   18.6830  -17.3050 C.3   206  THR206      0.0379
     92  N         10.2980   19.7540  -13.0100 N.am  207  PRO207     -0.2715
     93  CA        10.2370   20.4220  -11.6970 C.3   207  PRO207      0.1536
     94  C          9.0000   21.3300  -11.5350 C.2   207  PRO207      0.2599
     95  O          8.6190   22.0220  -12.4930 O.2   207  PRO207     -0.2715
     96  CB        11.5350   21.2450  -11.6600 C.3   207  PRO207      0.0310
     97  CG        12.4680   20.4510  -12.4950 C.3   207  PRO207      0.0237
     98  CD        11.6150   19.9490  -13.6420 C.3   207  PRO207      0.0939
     99  N          8.3760   21.3440  -10.3520 N.am  208  THR208     -0.1951
    100  CA         8.8920   20.7390   -9.1070 C.3   208  THR208      0.1897
    101  C          8.4960   19.2740   -8.8490 C.2   208  THR208      0.2313
    102  O          8.5810   18.8020   -7.7110 O.2   208  THR208     -0.2863
    103  CB         8.4090   21.5450   -7.8720 C.3   208  THR208      0.1794
    104  OG1        6.9780   21.6080   -7.8890 O.3   208  THR208     -0.2208
    105  CG2        8.9960   22.9550   -7.8330 C.3   208  THR208      0.0378
    106  N          1.2520   14.4660   -7.3580 N.3   212  LYS212     -0.1245
    107  CA        -0.1700   14.7410   -7.3330 C.3   212  LYS212      0.1561
    108  C         -0.9040   14.2620   -8.5830 C.2   212  LYS212      0.2260
    109  O         -2.0480   14.6650   -8.8350 O.2   212  LYS212     -0.2867
    110  CB        -0.4200   16.2270   -7.0620 C.3   212  LYS212      0.0271
    111  CG         0.0360   17.1990   -8.1370 C.3   212  LYS212      0.0035
    112  CD        -0.1840   18.6090   -7.5950 C.3   212  LYS212      0.0206
    113  CE         0.0060   19.6580   -8.6540 C.3   212  LYS212      0.1093
    114  NZ        -0.3730   20.9940   -8.1060 N.3   212  LYS212     -0.1314
    115  N         -1.8840    8.8090  -13.1080 N.3   215  TRP215     -0.1241
    116  CA        -1.3910    8.5550  -14.4650 C.3   215  TRP215      0.1605
    117  C         -2.2420    7.5350  -15.1940 C.2   215  TRP215      0.2264
    118  O         -2.6950    6.5500  -14.6060 O.2   215  TRP215     -0.2867
    119  CB         0.0700    8.0710  -14.4320 C.3   215  TRP215      0.0550
    120  CG         1.0680    9.1800  -14.3350 C.ar  215  TRP215      0.0003
    121  CD1        1.7010    9.6340  -13.2070 C.ar  215  TRP215      0.0946
    122  CD2        1.5450    9.9880  -15.4140 C.ar  215  TRP215      0.0152
    123  NE1        2.5290   10.6830  -13.5230 N.ar  215  TRP215     -0.2442
    124  CE2        2.4650   10.9110  -14.8720 C.ar  215  TRP215      0.0810
    125  CE3        1.2900   10.0120  -16.7970 C.ar  215  TRP215      0.0012
    126  CZ2        3.1280   11.8600  -15.6600 C.ar  215  TRP215      0.0191
    127  CZ3        1.9510   10.9620  -17.5790 C.ar  215  TRP215      0.0001
    128  CH2        2.8510   11.8690  -17.0070 C.ar  215  TRP215      0.0015
@<TRIPOS>BOND
     1    31    30    2
     2     4     3    2
     3     1     2    1
     4    30    29    1
     5     3     2    1
     6     2     5    1
     7    28    29    1
     8    29    32    1
     9    20    21    2
    10    20    19    1
    11    19    18    1
    12    19    22    1
    13     5     6    1
    14    32    33    1
    15    22    23    1
    16    38    39    1
    17     6     7    1
    18    33    35   ar
    19    33    34   ar
    20    41    40    2
    21    23    25   ar
    22    23    24   ar
    23    35    37   ar
    24    40    39    1
    25    39    42    1
    26    11    10    1
    27    11    12    2
    28    25    27   ar
    29    34    36   ar
    30    10    13    1
    31    10     9    1
    32     7     8    1
    33    24    26   ar
    34    13    14    1
    35    37    36   ar
    36    42    43    1
    37    16    15    2
    38    45    43   ar
    39    45    47   ar
    40    43    44   ar
    41    27    26   ar
    42    47    46   ar
    43    44    46   ar
    44    15    14    1
    45    15    17   am
    46    48    49    1
    47    51    50    2
    48    54    52    1
    49    49    52    1
    50    49    50    1
    51    68    67    1
    52    52    53    1
    53    65    66    2
    54    65    64    1
    55   127   128   ar
    56   127   125   ar
    57    91    89    1
    58    83    82    1
    59    64    67    1
    60    64    63    1
    61    67    69    1
    62   128   126   ar
    63   125   122   ar
    64    82    84    1
    65    82    79    1
    66    89    90    1
    67    89    86    1
    68    81    80    2
    69   126   124   ar
    70   122   124   ar
    71   122   120   ar
    72   117   118    2
    73   117   116    1
    74    80    79    1
    75    80    85   am
    76   124   123   ar
    77    79    78    1
    78    86    85    1
    79    86    87    1
    80   116   119    1
    81   116   115    1
    82   119   120    1
    83    78    72   am
    84   120   121   ar
    85    98    92    1
    86    98    97    1
    87    77    75    1
    88   123   121   ar
    89    61    59    1
    90    87    92   am
    91    87    88    2
    92    72    71    1
    93    72    73    2
    94    92    93    1
    95    71    74    1
    96    71    70    1
    97    97    96    1
    98    95    94    2
    99    74    75    1
   100    57    58    2
   101    57    56    1
   102    75    76    1
   103    62    60    1
   104    59    56    1
   105    59    60    1
   106    93    96    1
   107    93    94    1
   108    56    55    1
   109    94    99   am
   110    99   100    1
   111   100   101    1
   112   100   103    1
   113   101   102    2
   114   109   108    2
   115   113   114    1
   116   113   112    1
   117   108   107    1
   118   111   112    1
   119   111   110    1
   120   104   103    1
   121   103   105    1
   122   106   107    1
   123   107   110    1
