@<TRIPOS>MOLECULE
tmp/5ku8B00.pdb
 187 177 0 0 0
SMALL
GASTEIGER

@<TRIPOS>ATOM
      1  N        -15.6320  -51.3560    1.0190 N.3    42  ARG42      -0.1245
      2  CA       -14.6760  -51.8260    0.0060 C.3    42  ARG42       0.1563
      3  C        -13.2780  -51.9820    0.5950 C.2    42  ARG42       0.2260
      4  O        -12.9800  -51.3610    1.6210 O.2    42  ARG42      -0.2867
      5  CB       -14.6570  -50.8510   -1.2180 C.3    42  ARG42       0.0307
      6  CG       -14.1130  -49.4390   -0.8910 C.3    42  ARG42       0.0489
      7  CD       -14.6210  -48.3340   -1.8220 C.3    42  ARG42       0.2205
      8  NE       -14.1220  -47.0140   -1.4080 N.pl3  42  ARG42      -0.0865
      9  CZ       -12.9830  -46.4660   -1.8260 C.cat  42  ARG42       0.5346
     10  NH1      -12.2070  -47.1050   -2.6940 N.pl3  42  ARG42       0.1354
     11  NH2      -12.6100  -45.2720   -1.3770 N.pl3  42  ARG42       0.1354
     12  N         -9.3090  -51.2690    0.7950 N.3    44  LEU44      -0.1231
     13  CA        -8.4080  -50.1350    0.5630 C.3    44  LEU44       0.1693
     14  C         -6.9540  -50.5620    0.3790 C.2    44  LEU44       0.2593
     15  O         -6.1930  -49.8740   -0.2990 O.2    44  LEU44      -0.2718
     16  CB        -8.4890  -49.1330    1.7230 C.3    44  LEU44       0.0284
     17  CG        -9.8070  -48.3650    1.8850 C.3    44  LEU44       0.0019
     18  CD1       -9.7100  -47.3710    3.0510 C.3    44  LEU44       0.0001
     19  CD2      -10.2060  -47.6520    0.5720 C.3    44  LEU44       0.0001
     20  N         -6.5860  -51.6840    0.9870 N.am   45  GLY45      -0.1942
     21  CA        -5.2270  -52.2060    0.9340 C.3    45  GLY45       0.2014
     22  C         -4.9930  -53.3000    1.9470 C.2    45  GLY45       0.2639
     23  O         -5.8980  -53.6800    2.6950 O.2    45  GLY45      -0.2714
     24  N         -3.7650  -53.8040    1.9700 N.am   46  ARG46      -0.1963
     25  CA        -3.3350  -54.8910    2.8620 C.3    46  ARG46       0.1729
     26  C         -1.8430  -54.7940    3.1290 C.2    46  ARG46       0.2616
     27  O         -1.1180  -54.0850    2.4150 O.2    46  ARG46      -0.2715
     28  CB        -3.6720  -56.2810    2.2610 C.3    46  ARG46       0.0348
     29  CG        -3.1780  -56.4630    0.8370 C.3    46  ARG46       0.0492
     30  CD        -3.4240  -57.8510    0.2760 C.3    46  ARG46       0.2205
     31  NE        -2.5690  -58.1100   -0.8890 N.pl3  46  ARG46      -0.0865
     32  CZ        -1.3470  -58.6370   -0.8270 C.cat  46  ARG46       0.5346
     33  NH1       -0.8210  -58.9800    0.3440 N.pl3  46  ARG46       0.1354
     34  NH2       -0.6440  -58.8260   -1.9360 N.pl3  46  ARG46       0.1354
     35  N         -1.4140  -55.4980    4.1670 N.am   47  GLY47      -0.1955
     36  CA        -0.0210  -55.6010    4.5650 C.3    47  GLY47       0.1869
     37  C          0.2260  -56.9620    5.1760 C.2    47  GLY47       0.2309
     38  O         -0.6870  -57.7920    5.2150 O.2    47  GLY47      -0.2863
     39  N         -2.0870  -56.7680    8.4400 N.3    50  SER50      -0.1217
     40  CA        -3.4140  -56.1500    8.3950 C.3    50  SER50       0.1889
     41  C         -4.1200  -56.2080    7.0310 C.2    50  SER50       0.2288
     42  O         -3.4830  -56.4010    5.9960 O.2    50  SER50      -0.2866
     43  CB        -3.3340  -54.6890    8.8530 C.3    50  SER50       0.2089
     44  OG        -2.4170  -53.9170    8.0870 O.3    50  SER50      -0.2183
     45  N         -7.1690  -53.5890    5.3110 N.3    52  VAL52      -0.1245
     46  CA        -7.7530  -52.2670    5.5070 C.3    52  VAL52       0.1561
     47  C         -8.9260  -52.0550    4.5730 C.2    52  VAL52       0.2260
     48  O         -8.8080  -52.2320    3.3700 O.2    52  VAL52      -0.2867
     49  CB        -6.6710  -51.1460    5.4170 C.3    52  VAL52       0.0252
     50  CG1       -7.2880  -49.7520    5.4640 C.3    52  VAL52       0.0019
     51  CG2       -5.6540  -51.3050    6.5370 C.3    52  VAL52       0.0019
     52  N        -12.3430  -45.6590    8.3060 N.3    65  VAL65      -0.1245
     53  CA       -11.3570  -46.5950    7.7860 C.3    65  VAL65       0.1561
     54  C        -11.1590  -47.6760    8.8770 C.2    65  VAL65       0.2260
     55  O        -10.9390  -47.3390   10.0300 O.2    65  VAL65      -0.2867
     56  CB       -10.0580  -45.8530    7.3760 C.3    65  VAL65       0.0252
     57  CG1       -8.8850  -46.8110    7.2040 C.3    65  VAL65       0.0019
     58  CG2      -10.2860  -45.0490    6.0990 C.3    65  VAL65       0.0019
     59  N         -8.9830  -51.0050   10.0980 N.3    67  LYS67      -0.1245
     60  CA        -7.7580  -51.8000    9.9860 C.3    67  LYS67       0.1561
     61  C         -7.9470  -53.0890   10.7980 C.2    67  LYS67       0.2260
     62  O         -7.9020  -53.0650   12.0280 O.2    67  LYS67      -0.2867
     63  CB        -6.5140  -51.0230   10.4190 C.3    67  LYS67       0.0271
     64  CG        -5.2440  -51.8900   10.4070 C.3    67  LYS67       0.0035
     65  CD        -3.9630  -51.0770   10.3460 C.3    67  LYS67       0.0206
     66  CE        -3.6620  -50.3660   11.6470 C.3    67  LYS67       0.1093
     67  NZ        -2.3310  -49.7110   11.5950 N.3    67  LYS67      -0.1314
     68  N         -3.8080  -38.8040   12.8660 N.3    94  ILE94      -0.1245
     69  CA        -5.0650  -39.5190   12.6130 C.3    94  ILE94       0.1561
     70  C         -5.7700  -39.8150   13.9650 C.2    94  ILE94       0.2260
     71  O         -5.1050  -40.1410   14.9530 O.2    94  ILE94      -0.2867
     72  CB        -4.8130  -40.8160   11.7820 C.3    94  ILE94       0.0252
     73  CG1       -6.1060  -41.3140   11.0850 C.3    94  ILE94       0.0019
     74  CG2       -4.1120  -41.9450   12.6000 C.3    94  ILE94       0.0019
     75  CD1       -6.5730  -40.4140    9.9160 C.3    94  ILE94       0.0001
     76  N        -10.6160  -45.7670   12.2860 N.3   112  PHE112     -0.1227
     77  CA       -10.0210  -44.4350   12.2140 C.3   112  PHE112      0.1736
     78  C        -10.8930  -43.4740   11.4910 C.2   112  PHE112      0.2595
     79  O        -11.6900  -43.8980   10.6560 O.2   112  PHE112     -0.2718
     80  CB        -8.6800  -44.4950   11.4450 C.3   112  PHE112      0.0547
     81  CG        -7.6740  -45.4190   12.0670 C.ar  112  PHE112     -0.0202
     82  CD1       -6.8190  -44.9670   13.0710 C.ar  112  PHE112     -0.0042
     83  CD2       -7.5790  -46.7500   11.6560 C.ar  112  PHE112     -0.0042
     84  CE1       -5.8790  -45.8290   13.6480 C.ar  112  PHE112     -0.0003
     85  CE2       -6.6450  -47.6120   12.2390 C.ar  112  PHE112     -0.0003
     86  CZ        -5.8050  -47.1470   13.2350 C.ar  112  PHE112     -0.0000
     87  N        -10.6510  -42.1560   11.7110 N.am  113  GLU113     -0.1965
     88  CA       -11.3210  -41.1240   10.9260 C.3   113  GLU113      0.1733
     89  C        -10.8980  -41.3040    9.4550 C.2   113  GLU113      0.2616
     90  O         -9.7810  -41.7320    9.1570 O.2   113  GLU113     -0.2715
     91  CB       -10.9890  -39.6970   11.4090 C.3   113  GLU113      0.0429
     92  CG        -9.5090  -39.4010   11.5270 C.3   113  GLU113      0.1163
     93  CD        -9.0670  -37.9510   11.5900 C.2   113  GLU113      0.3649
     94  OE1       -9.6440  -37.0950   10.8830 O.co2 113  GLU113     -0.2457
     95  OE2       -8.0640  -37.6930   12.2870 O.co2 113  GLU113     -0.2457
     96  N        -11.8020  -40.9850    8.5650 N.am  114  HIS114     -0.1959
     97  CA       -11.6220  -41.0900    7.1290 C.3   114  HIS114      0.1787
     98  C        -11.0840  -39.7780    6.5820 C.2   114  HIS114      0.2620
     99  O        -11.5810  -38.7010    6.9110 O.2   114  HIS114     -0.2715
    100  CB       -12.9680  -41.4510    6.4770 C.3   114  HIS114      0.0785
    101  CG       -12.9250  -41.6300    4.9860 C.ar  114  HIS114      0.0821
    102  ND1      -13.1180  -40.5610    4.1230 N.ar  114  HIS114     -0.2267
    103  CD2      -12.7950  -42.7600    4.2540 C.ar  114  HIS114      0.1154
    104  CE1      -13.0810  -41.0700    2.9030 C.ar  114  HIS114      0.1986
    105  NE2      -12.8640  -42.3840    2.9290 N.ar  114  HIS114     -0.2212
    106  N        -10.0520  -39.8770    5.7520 N.am  115  VAL115     -0.1963
    107  CA        -9.4640  -38.7480    5.0290 C.3   115  VAL115      0.1727
    108  C         -9.6940  -39.0380    3.5330 C.2   115  VAL115      0.2616
    109  O         -9.3080  -40.1080    3.0560 O.2   115  VAL115     -0.2715
    110  CB        -7.9650  -38.5380    5.3570 C.3   115  VAL115      0.0290
    111  CG1       -7.3690  -37.3960    4.5180 C.3   115  VAL115      0.0023
    112  CG2       -7.7550  -38.2840    6.8530 C.3   115  VAL115      0.0023
    113  N        -10.3110  -38.1010    2.8030 N.am  116  ASN116     -0.1958
    114  CA       -10.5410  -38.2530    1.3690 C.3   116  ASN116      0.1819
    115  C         -9.2240  -37.9560    0.6220 C.2   116  ASN116      0.2621
    116  O         -9.0160  -36.8730    0.0560 O.2   116  ASN116     -0.2715
    117  CB       -11.7090  -37.3550    0.9030 C.3   116  ASN116      0.1195
    118  CG       -12.0490  -37.4930   -0.5660 C.2   116  ASN116      0.2630
    119  OD1      -11.7510  -38.5000   -1.2150 O.2   116  ASN116     -0.2716
    120  ND2      -12.6370  -36.4540   -1.1340 N.am  116  ASN116     -0.0877
    121  N         -8.3410  -38.9370    0.6420 N.am  117  ASN117     -0.1972
    122  CA        -6.9960  -38.8630    0.0920 C.3   117  ASN117      0.1688
    123  C         -6.9340  -38.8970   -1.4230 C.2   117  ASN117      0.2292
    124  O         -7.7830  -39.4870   -2.0890 O.2   117  ASN117     -0.2864
    125  CB        -6.1400  -39.9950    0.6910 C.3   117  ASN117      0.1181
    126  CG        -4.6690  -40.0100    0.3280 C.2   117  ASN117      0.2629
    127  OD1       -3.8880  -39.1360    0.7010 O.2   117  ASN117     -0.2716
    128  ND2       -4.2430  -41.0520   -0.3470 N.am  117  ASN117     -0.0877
    129  N          7.9340  -44.8690   10.9300 N.3   155  ASP155     -0.1239
    130  CA         7.4570  -45.3550    9.6210 C.3   155  ASP155      0.1674
    131  C          6.9640  -44.1900    8.7640 C.2   155  ASP155      0.2266
    132  O          5.9160  -44.2760    8.1160 O.2   155  ASP155     -0.2867
    133  CB         6.3980  -46.4740    9.7740 C.3   155  ASP155      0.1410
    134  CG         6.1660  -47.3610    8.5410 C.2   155  ASP155      0.3668
    135  OD1        7.0200  -47.3420    7.6080 O.co2 155  ASP155     -0.2456
    136  OD2        5.1440  -48.0870    8.5160 O.co2 155  ASP155     -0.2456
    137  N          6.7280  -42.0280    5.6280 N.3   157  LYS157     -0.1245
    138  CA         6.7720  -42.3020    4.1920 C.3   157  LYS157      0.1561
    139  C          5.5050  -41.7470    3.4960 C.2   157  LYS157      0.2260
    140  O          4.4990  -41.5660    4.1770 O.2   157  LYS157     -0.2867
    141  CB         6.9490  -43.8070    3.9240 C.3   157  LYS157      0.0271
    142  CG         5.8080  -44.6730    4.3940 C.3   157  LYS157      0.0035
    143  CD         6.0810  -46.1380    4.1080 C.3   157  LYS157      0.0206
    144  CE         4.8000  -46.9280    4.2630 C.3   157  LYS157      0.1093
    145  NZ         5.0250  -48.3920    4.1480 N.3   157  LYS157     -0.1314
    146  N          3.0470  -43.0170    1.7260 N.3   159  HIS159     -0.1226
    147  CA         1.8740  -43.8610    1.9770 C.3   159  HIS159      0.1752
    148  C          1.2610  -43.6320    3.3740 C.2   159  HIS159      0.2596
    149  O          0.0590  -43.8610    3.5460 O.2   159  HIS159     -0.2718
    150  CB         2.2290  -45.3470    1.8210 C.3   159  HIS159      0.0759
    151  CG         2.3130  -45.8170    0.3980 C.ar  159  HIS159      0.0818
    152  ND1        3.4110  -46.5390   -0.0630 N.ar  159  HIS159     -0.2268
    153  CD2        1.4200  -45.6930   -0.6130 C.ar  159  HIS159      0.1154
    154  CE1        3.1640  -46.7970   -1.3400 C.ar  159  HIS159      0.1986
    155  NE2        1.9790  -46.3130   -1.7170 N.ar  159  HIS159     -0.2212
    156  N          2.0820  -43.1860    4.3790 N.am  160  ASN160     -0.1974
    157  CA         1.5780  -42.9500    5.7410 C.3   160  ASN160      0.1688
    158  C          1.1870  -41.4830    5.9720 C.2   160  ASN160      0.2292
    159  O          0.9540  -41.0550    7.0990 O.2   160  ASN160     -0.2864
    160  CB         2.5460  -43.5060    6.8160 C.3   160  ASN160      0.1181
    161  CG         2.4890  -45.0140    6.8790 C.2   160  ASN160      0.2629
    162  OD1        1.5180  -45.6300    6.4430 O.2   160  ASN160     -0.2716
    163  ND2        3.5110  -45.6530    7.4340 N.am  160  ASN160     -0.0877
    164  N         -1.7730  -39.0470    4.7120 N.3   162  MET162     -0.1245
    165  CA        -3.0470  -38.8650    4.0070 C.3   162  MET162      0.1570
    166  C         -3.2530  -37.3790    3.7460 C.2   162  MET162      0.2261
    167  O         -3.1150  -36.5660    4.6640 O.2   162  MET162     -0.2867
    168  CB        -4.2580  -39.4440    4.7990 C.3   162  MET162      0.0387
    169  CG        -4.3040  -40.9780    4.9030 C.3   162  MET162      0.0595
    170  SD        -4.4660  -41.8910    3.3470 S.3   162  MET162     -0.1393
    171  CE        -2.8660  -42.5310    3.2060 C.3   162  MET162      0.0692
    172  N         -0.6560  -41.0820    9.4570 N.3   173  ILE173     -0.1231
    173  CA        -1.3620  -42.3290    9.8100 C.3   173  ILE173      0.1692
    174  C         -0.3940  -43.4740   10.1240 C.2   173  ILE173      0.2592
    175  O          0.8200  -43.2840   10.0580 O.2   173  ILE173     -0.2718
    176  CB        -2.4020  -42.7080    8.6940 C.3   173  ILE173      0.0266
    177  CG1       -1.7100  -43.1880    7.3800 C.3   173  ILE173      0.0019
    178  CG2       -3.3580  -41.5520    8.4160 C.3   173  ILE173      0.0020
    179  CD1       -2.4610  -44.3980    6.6110 C.3   173  ILE173      0.0001
    180  N         -0.9520  -44.6580   10.4140 N.am  174  ASP174     -0.1974
    181  CA        -0.3050  -45.9500   10.6770 C.3   174  ASP174      0.1709
    182  C          0.7800  -45.8970   11.7430 C.2   174  ASP174      0.2293
    183  O          1.9850  -45.9320   11.4480 O.2   174  ASP174     -0.2864
    184  CB         0.2100  -46.6400    9.3960 C.3   174  ASP174      0.1436
    185  CG         0.2690  -48.1690    9.5270 C.2   174  ASP174      0.3671
    186  OD1        0.3920  -48.6700   10.6670 O.co2 174  ASP174     -0.2456
    187  OD2        0.1180  -48.8590    8.5010 O.co2 174  ASP174     -0.2456
@<TRIPOS>BOND
     1    10     9    1
     2   124   123    2
     3    34    32    1
     4     9     8    2
     5     9    11    1
     6     7     8    1
     7     7     6    1
     8   155   154   ar
     9   155   153   ar
    10   123   122    1
    11   154   152   ar
    12     5     6    1
    13     5     2    1
    14   119   118    2
    15   120   118   am
    16    31    32    2
    17    31    30    1
    18    32    33    1
    19   153   151   ar
    20   118   117    1
    21   128   126   am
    22    15    14    2
    23   152   151   ar
    24     2     3    1
    25     2     1    1
    26   116   115    2
    27   122   121    1
    28   122   125    1
    29    30    29    1
    30   126   125    1
    31   126   127    2
    32    14    13    1
    33    14    20   am
    34   151   150    1
    35    13    12    1
    36    13    16    1
    37    19    17    1
    38     3     4    2
    39   115   121   am
    40   115   114    1
    41    29    28    1
    42   117   114    1
    43    21    20    1
    44    21    22    1
    45   114   113    1
    46    16    17    1
    47   146   147    1
    48   150   147    1
    49    17    18    1
    50    22    24   am
    51    22    23    2
    52    24    25    1
    53   147   148    1
    54    28    25    1
    55    27    26    2
    56   113   108   am
    57    25    26    1
    58   104   105   ar
    59   104   102   ar
    60   105   103   ar
    61   109   108    2
    62    26    35   am
    63   171   170    1
    64   170   169    1
    65    48    47    2
    66   148   149    2
    67   148   156   am
    68   139   140    2
    69   139   138    1
    70   108   107    1
    71   166   165    1
    72   166   167    2
    73   141   138    1
    74   141   142    1
    75   165   164    1
    76   165   168    1
    77   143   144    1
    78   143   142    1
    79   102   101   ar
    80   145   144    1
    81    35    36    1
    82   138   137    1
    83   103   101   ar
    84   156   157    1
    85   111   110    1
    86    36    37    1
    87    47    46    1
    88   168   169    1
    89   101   100    1
    90   107   110    1
    91   107   106    1
    92    37    38    2
    93    45    46    1
    94   110   112    1
    95    49    50    1
    96    49    46    1
    97    49    51    1
    98   157   158    1
    99   157   160    1
   100   106    98   am
   101   158   159    2
   102    42    41    2
   103    58    56    1
   104   162   161    2
   105   100    97    1
   106    98    99    2
   107    98    97    1
   108   179   177    1
   109   160   161    1
   110   161   163   am
   111    41    40    1
   112    97    96    1
   113    57    56    1
   114    56    53    1
   115   177   176    1
   116   135   134   ar
   117    53    52    1
   118    53    54    1
   119    44    43    1
   120   132   131    2
   121    40    39    1
   122    40    43    1
   123   178   176    1
   124   187   185   ar
   125   136   134   ar
   126   134   133    1
   127    96    89   am
   128   176   173    1
   129   131   130    1
   130    54    55    2
   131    90    89    2
   132   184   185    1
   133   184   181    1
   134    89    88    1
   135   172   173    1
   136   185   186   ar
   137   130   133    1
   138   130   129    1
   139   173   174    1
   140    75    73    1
   141    60    59    1
   142    60    63    1
   143    60    61    1
   144   175   174    2
   145   174   180   am
   146    65    64    1
   147    65    66    1
   148    64    63    1
   149   180   181    1
   150    79    78    2
   151   181   182    1
   152    61    62    2
   153    94    93   ar
   154    88    91    1
   155    88    87    1
   156    73    72    1
   157    91    92    1
   158    80    81    1
   159    80    77    1
   160   183   182    2
   161    78    87   am
   162    78    77    1
   163    92    93    1
   164    93    95   ar
   165    67    66    1
   166    83    81   ar
   167    83    85   ar
   168    72    74    1
   169    72    69    1
   170    81    82   ar
   171    77    76    1
   172    85    86   ar
   173    69    68    1
   174    69    70    1
   175    82    84   ar
   176    86    84   ar
   177    70    71    2
