@<TRIPOS>MOLECULE
tmp/5ku9B00.pdb
 126 120 0 0 0
SMALL
GASTEIGER

@<TRIPOS>ATOM
      1  N        -34.4690   -2.1640    4.2360 N.3    38  HIS38      -0.1241
      2  CA       -33.1230   -1.7670    3.8120 C.3    38  HIS38       0.1621
      3  C        -32.9170   -1.7710    2.2910 C.2    38  HIS38       0.2264
      4  O        -31.7720   -1.7020    1.8340 O.2    38  HIS38      -0.2867
      5  CB       -32.0630   -2.6250    4.5220 C.3    38  HIS38       0.0745
      6  CG       -32.1090   -2.4820    6.0120 C.ar   38  HIS38       0.0817
      7  ND1      -31.5800   -1.3730    6.6480 N.ar   38  HIS38      -0.2268
      8  CD2      -32.6620   -3.2950    6.9400 C.ar   38  HIS38       0.1154
      9  CE1      -31.8000   -1.5590    7.9380 C.ar   38  HIS38       0.1986
     10  NE2      -32.4540   -2.7000    8.1630 N.ar   38  HIS38      -0.2212
     11  N        -30.5340    0.9890    0.9020 N.3    41  ALA41      -0.1231
     12  CA       -29.1780    0.6980    1.3650 C.3    41  ALA41       0.1694
     13  C        -28.5850   -0.5010    0.6140 C.2    41  ALA41       0.2592
     14  O        -27.4340   -0.4220    0.1880 O.2    41  ALA41      -0.2718
     15  CB       -29.1790    0.4440    2.8720 C.3    41  ALA41       0.0304
     16  N        -29.3900   -1.5760    0.4060 N.am   42  PHE42      -0.1976
     17  CA       -28.9890   -2.8150   -0.2950 C.3    42  PHE42       0.1639
     18  C        -28.6550   -2.5340   -1.7450 C.2    42  PHE42       0.2290
     19  O        -27.6230   -3.0070   -2.2460 O.2    42  PHE42      -0.2864
     20  CB       -30.0840   -3.8960   -0.1870 C.3    42  PHE42       0.0560
     21  CG       -30.2490   -4.5910    1.1560 C.ar   42  PHE42      -0.0200
     22  CD1      -29.3760   -4.3310    2.2090 C.ar   42  PHE42      -0.0042
     23  CD2      -31.2290   -5.5590    1.3380 C.ar   42  PHE42      -0.0042
     24  CE1      -29.5000   -5.0060    3.4180 C.ar   42  PHE42      -0.0003
     25  CE2      -31.3490   -6.2350    2.5500 C.ar   42  PHE42      -0.0003
     26  CZ       -30.5090   -5.9290    3.5910 C.ar   42  PHE42      -0.0000
     27  N        -25.5320   -0.6460   -1.8850 N.3    45  MET45      -0.1245
     28  CA       -24.4080   -1.5740   -1.6680 C.3    45  MET45       0.1570
     29  C        -24.0750   -2.3860   -2.9160 C.2    45  MET45       0.2261
     30  O        -22.9050   -2.5110   -3.2590 O.2    45  MET45      -0.2867
     31  CB       -24.7030   -2.5120   -0.5030 C.3    45  MET45       0.0387
     32  CG       -24.3120   -1.9510    0.8320 C.3    45  MET45       0.0595
     33  SD       -24.2900   -3.2380    2.1100 S.3    45  MET45      -0.1393
     34  CE       -25.9930   -3.4940    2.3130 C.3    45  MET45       0.0692
     35  N        -22.2760   -0.1110   -5.4390 N.3    48  LYS48      -0.1245
     36  CA       -20.8660    0.0350   -5.0500 C.3    48  LYS48       0.1561
     37  C        -20.0440   -1.2220   -5.3560 C.2    48  LYS48       0.2260
     38  O        -18.9130   -1.1050   -5.8270 O.2    48  LYS48      -0.2867
     39  CB       -20.7480    0.3790   -3.5530 C.3    48  LYS48       0.0271
     40  CG       -21.1110    1.8190   -3.1980 C.3    48  LYS48       0.0035
     41  CD       -21.5560    1.9610   -1.7340 C.3    48  LYS48       0.0206
     42  CE       -20.4950    2.5210   -0.8170 C.3    48  LYS48       0.1093
     43  NZ       -21.0410    2.8050    0.5370 N.3    48  LYS48      -0.1314
     44  N        -16.6760   -7.1840    2.8980 N.3    63  VAL63      -0.1231
     45  CA       -17.6870   -6.1650    3.1980 C.3    63  VAL63       0.1692
     46  C        -18.5080   -6.6680    4.3660 C.2    63  VAL63       0.2591
     47  O        -18.7460   -5.9010    5.2940 O.2    63  VAL63      -0.2718
     48  CB       -18.6150   -5.8210    1.9850 C.3    63  VAL63       0.0266
     49  CG1      -19.6010   -4.7110    2.3340 C.3    63  VAL63       0.0020
     50  CG2      -17.8030   -5.4440    0.7470 C.3    63  VAL63       0.0020
     51  N        -18.9630   -7.9420    4.3230 N.am   64  MET64      -0.1979
     52  CA       -19.8430   -8.5390    5.3550 C.3    64  MET64       0.1605
     53  C        -19.2970   -8.4780    6.7670 C.2    64  MET64       0.2287
     54  O        -20.0660   -8.4120    7.7170 O.2    64  MET64      -0.2864
     55  CB       -20.2340   -9.9860    5.0250 C.3    64  MET64       0.0413
     56  CG       -21.1260  -10.0840    3.8390 C.3    64  MET64       0.0598
     57  SD       -21.2170  -11.7800    3.2540 S.3    64  MET64      -0.1393
     58  CE       -22.4630  -11.5490    1.9670 C.3    64  MET64       0.0692
     59  N        -18.0180   -5.9950    8.1310 N.3    66  HIS66      -0.1226
     60  CA       -18.3050   -4.6820    8.6940 C.3    66  HIS66       0.1752
     61  C        -19.7170   -4.5510    9.3000 C.2    66  HIS66       0.2595
     62  O        -20.0250   -3.5140    9.8890 O.2    66  HIS66      -0.2718
     63  CB       -17.9880   -3.5850    7.6850 C.3    66  HIS66       0.0759
     64  CG       -16.5240   -3.5580    7.3780 C.ar   66  HIS66       0.0818
     65  ND1      -15.5950   -3.2050    8.3440 N.ar   66  HIS66      -0.2268
     66  CD2      -15.8640   -3.9540    6.2660 C.ar   66  HIS66       0.1154
     67  CE1      -14.4080   -3.3480    7.7740 C.ar   66  HIS66       0.1986
     68  NE2      -14.5180   -3.8070    6.5300 N.ar   66  HIS66      -0.2212
     69  N        -20.5210   -5.6310    9.2760 N.am   67  VAL67      -0.1980
     70  CA       -21.8270   -5.6550    9.9340 C.3    67  VAL67       0.1595
     71  C        -21.6000   -5.8220   11.4630 C.2    67  VAL67       0.2287
     72  O        -22.5170   -5.5540   12.2430 O.2    67  VAL67      -0.2864
     73  CB       -22.8020   -6.7180    9.3250 C.3    67  VAL67       0.0276
     74  CG1      -22.4350   -8.1290    9.7480 C.3    67  VAL67       0.0022
     75  CG2      -24.2530   -6.4310    9.7080 C.3    67  VAL67       0.0022
     76  N        -17.9750   -5.1010   12.7060 N.3    69  SER69      -0.1202
     77  CA       -16.6670   -4.4680   12.9440 C.3    69  SER69       0.2020
     78  C        -16.6360   -3.4710   14.1120 C.2    69  SER69       0.2618
     79  O        -15.6580   -3.4640   14.8620 O.2    69  SER69      -0.2717
     80  CB       -16.1360   -3.8120   11.6740 C.3    69  SER69       0.2103
     81  OG       -16.8980   -2.6780   11.2850 O.3    69  SER69      -0.2182
     82  N        -17.7120   -2.6660   14.2880 N.am   70  ASP70      -0.1973
     83  CA       -17.8300   -1.6600   15.3580 C.3    70  ASP70       0.1709
     84  C        -17.8060   -2.2540   16.7950 C.2    70  ASP70       0.2293
     85  O        -17.5340   -1.5290   17.7600 O.2    70  ASP70      -0.2864
     86  CB       -19.0810   -0.7820   15.1350 C.3    70  ASP70       0.1436
     87  CG       -20.4180   -1.4390   15.4350 C.2    70  ASP70       0.3671
     88  OD1      -20.5410   -2.6690   15.2260 O.co2  70  ASP70      -0.2456
     89  OD2      -21.3490   -0.7190   15.8530 O.co2  70  ASP70      -0.2456
     90  N        -28.7230   -6.8730   13.4490 N.3    77  ARG77      -0.1245
     91  CA       -27.5780   -6.8300   12.5340 C.3    77  ARG77       0.1563
     92  C        -27.4950   -8.1240   11.7110 C.2    77  ARG77       0.2260
     93  O        -27.1820   -8.0740   10.5200 O.2    77  ARG77      -0.2867
     94  CB       -26.2550   -6.6830   13.3210 C.3    77  ARG77       0.0307
     95  CG       -26.0850   -5.3780   14.0680 C.3    77  ARG77       0.0489
     96  CD       -25.5110   -4.3320   13.1650 C.3    77  ARG77       0.2205
     97  NE       -25.2080   -3.0930   13.8720 N.pl3  77  ARG77      -0.0865
     98  CZ       -24.0070   -2.7430   14.3110 C.cat  77  ARG77       0.5346
     99  NH1      -23.8300   -1.5800   14.9110 N.pl3  77  ARG77       0.1354
    100  NH2      -22.9690   -3.5580   14.1520 N.pl3  77  ARG77       0.1354
    101  N        -30.3540   -8.3430    9.0470 N.3    80  THR80      -0.1203
    102  CA       -29.9580   -7.4250    7.9700 C.3    80  THR80       0.1994
    103  C        -28.9190   -8.1260    7.0560 C.2    80  THR80       0.2617
    104  O        -29.0220   -8.0170    5.8280 O.2    80  THR80      -0.2717
    105  CB       -29.4260   -6.0980    8.5440 C.3    80  THR80       0.1784
    106  OG1      -30.3840   -5.5580    9.4580 O.3    80  THR80      -0.2211
    107  CG2      -29.1190   -5.0680    7.4590 C.3    80  THR80       0.0376
    108  N        -27.9710   -8.8770    7.6640 N.am   81  LEU81      -0.1979
    109  CA       -26.9480   -9.6270    6.9390 C.3    81  LEU81       0.1596
    110  C        -27.5330  -10.7660    6.0920 C.2    81  LEU81       0.2287
    111  O        -27.2360  -10.8630    4.8900 O.2    81  LEU81      -0.2864
    112  CB       -25.8180  -10.1420    7.8630 C.3    81  LEU81       0.0297
    113  CG       -24.6930  -10.9420    7.1500 C.3    81  LEU81       0.0022
    114  CD1      -23.9470  -10.0840    6.0850 C.3    81  LEU81       0.0001
    115  CD2      -23.7590  -11.6080    8.1470 C.3    81  LEU81       0.0001
    116  N        -29.5850   -9.3470    3.3130 N.3    84  PHE84      -0.1241
    117  CA       -28.7030   -8.8530    2.2540 C.3    84  PHE84       0.1605
    118  C        -28.2510  -10.0140    1.3430 C.2    84  PHE84       0.2264
    119  O        -28.1660   -9.8320    0.1260 O.2    84  PHE84      -0.2867
    120  CB       -27.5100   -8.0660    2.8160 C.3    84  PHE84       0.0534
    121  CG       -26.5420   -7.5790    1.7610 C.ar   84  PHE84      -0.0203
    122  CD1      -26.9360   -6.6410    0.8080 C.ar   84  PHE84      -0.0042
    123  CD2      -25.2490   -8.0710    1.7050 C.ar   84  PHE84      -0.0042
    124  CE1      -26.0440   -6.2150   -0.1900 C.ar   84  PHE84      -0.0003
    125  CE2      -24.3550   -7.6370    0.7150 C.ar   84  PHE84      -0.0003
    126  CZ       -24.7540   -6.7040   -0.2190 C.ar   84  PHE84      -0.0000
@<TRIPOS>BOND
     1    38    37    2
     2    35    36    1
     3    37    36    1
     4    36    39    1
     5    39    40    1
     6    30    29    2
     7    40    41    1
     8    29    28    1
     9    19    18    2
    10    27    28    1
    11    18    17    1
    12    41    42    1
    13    28    31    1
    14    42    43    1
    15    31    32    1
    16    17    20    1
    17    17    16    1
    18   126   124   ar
    19   126   125   ar
    20   124   122   ar
    21    20    21    1
    22   119   118    2
    23    14    13    2
    24    16    13   am
    25    13    12    1
    26   125   123   ar
    27    50    48    1
    28   122   121   ar
    29    32    33    1
    30    11    12    1
    31    21    23   ar
    32    21    22   ar
    33    23    25   ar
    34   118   117    1
    35    12    15    1
    36   123   121   ar
    37   121   120    1
    38     4     3    2
    39    58    57    1
    40    48    49    1
    41    48    45    1
    42    33    34    1
    43    22    24   ar
    44   117   120    1
    45   117   116    1
    46     3     2    1
    47    25    26   ar
    48    44    45    1
    49    45    46    1
    50    57    56    1
    51    24    26   ar
    52     2     1    1
    53     2     5    1
    54    56    55    1
    55    51    46   am
    56    51    52    1
    57    46    47    2
    58     5     6    1
    59   111   110    2
    60    55    52    1
    61    52    53    1
    62   104   103    2
    63     6     7   ar
    64     6     8   ar
    65   114   113    1
    66   110   109    1
    67    66    68   ar
    68    66    64   ar
    69    68    67   ar
    70     7     9   ar
    71    53    54    2
    72   109   108    1
    73   109   112    1
    74     8    10   ar
    75   103   108   am
    76   103   102    1
    77   113   112    1
    78   113   115    1
    79    64    63    1
    80    64    65   ar
    81   107   105    1
    82    63    60    1
    83    67    65   ar
    84     9    10   ar
    85   102   105    1
    86   102   101    1
    87    59    60    1
    88   105   106    1
    89    60    61    1
    90    69    61   am
    91    69    70    1
    92    61    62    2
    93    73    75    1
    94    73    74    1
    95    73    70    1
    96    70    71    1
    97    93    92    2
    98    81    80    1
    99    71    72    2
   100    80    77    1
   101    92    91    1
   102    91    94    1
   103    91    90    1
   104    76    77    1
   105    77    78    1
   106    96    97    1
   107    96    95    1
   108    94    95    1
   109    97    98    2
   110    78    82   am
   111    78    79    2
   112   100    98    1
   113    82    83    1
   114    98    99    1
   115    86    83    1
   116    86    87    1
   117    88    87   ar
   118    83    84    1
   119    87    89   ar
   120    84    85    2
