@<TRIPOS>MOLECULE
tmp/5kufA00.pdb
 116 109 0 0 0
SMALL
GASTEIGER

@<TRIPOS>ATOM
      1  N        215.3460  164.2940  187.9310 N.3   408  GLU408     -0.1245
      2  CA       215.2030  165.2770  186.8680 C.3   408  GLU408      0.1567
      3  C        216.3860  165.1670  185.9300 C.2   408  GLU408      0.2260
      4  O        217.5320  165.3680  186.3450 O.2   408  GLU408     -0.2867
      5  CB       215.1030  166.6820  187.4330 C.3   408  GLU408      0.0388
      6  CG       214.8120  167.7440  186.3790 C.3   408  GLU408      0.1160
      7  CD       213.4360  167.5960  185.7330 C.2   408  GLU408      0.3649
      8  OE1      212.5320  166.9980  186.3530 O.co2 408  GLU408     -0.2457
      9  OE2      213.2550  168.0930  184.6030 O.co2 408  GLU408     -0.2457
     10  N        210.3950  169.4420  195.3620 N.3   456  TYR456     -0.1241
     11  CA       211.6520  169.9360  195.9020 C.3   456  TYR456      0.1605
     12  C        211.4420  170.3780  197.3300 C.2   456  TYR456      0.2264
     13  O        211.9700  169.7720  198.2660 O.2   456  TYR456     -0.2867
     14  CB       212.1630  171.1040  195.0790 C.3   456  TYR456      0.0534
     15  CG       212.6070  170.7070  193.7100 C.ar  456  TYR456     -0.0201
     16  CD1      213.9220  170.3340  193.4670 C.ar  456  TYR456     -0.0009
     17  CD2      211.7040  170.6610  192.6670 C.ar  456  TYR456     -0.0009
     18  CE1      214.3270  169.9690  192.2190 C.ar  456  TYR456      0.0417
     19  CE2      212.0940  170.2870  191.4200 C.ar  456  TYR456      0.0417
     20  CZ       213.4060  169.9420  191.1980 C.ar  456  TYR456      0.1957
     21  OH       213.7910  169.5690  189.9360 O.3   456  TYR456     -0.2866
     22  N        219.1030  169.3240  191.7690 N.3   484  PRO484     -0.2102
     23  CA       219.1080  170.6990  191.2800 C.3   484  PRO484      0.1504
     24  C        218.3050  171.5890  192.2050 C.2   484  PRO484      0.2576
     25  O        217.1050  171.8030  192.0070 O.2   484  PRO484     -0.2718
     26  CB       218.4750  170.5830  189.8920 C.3   484  PRO484      0.0282
     27  CG       217.6650  169.3590  189.9540 C.3   484  PRO484      0.0208
     28  CD       218.4090  168.4190  190.8450 C.3   484  PRO484      0.0893
     29  N        218.9560  172.0540  193.2640 N.am  485  LEU485     -0.1966
     30  CA       218.2980  172.8340  194.2930 C.3   485  LEU485      0.1728
     31  C        218.6500  174.3050  194.1330 C.2   485  LEU485      0.2616
     32  O        219.7720  174.6540  193.7530 O.2   485  LEU485     -0.2715
     33  CB       218.7040  172.3650  195.6790 C.3   485  LEU485      0.0311
     34  CG       217.7620  172.9670  196.6980 C.3   485  LEU485      0.0022
     35  CD1      216.3910  172.4120  196.4160 C.3   485  LEU485      0.0001
     36  CD2      218.2040  172.6450  198.1000 C.3   485  LEU485      0.0001
     37  N        217.6800  175.1620  194.4370 N.am  486  THR486     -0.1951
     38  CA       217.8070  176.5980  194.2440 C.3   486  THR486      0.1897
     39  C        218.2540  177.2990  195.5130 C.2   486  THR486      0.2313
     40  O        217.6940  177.0780  196.5880 O.2   486  THR486     -0.2863
     41  CB       216.4900  177.2070  193.8030 C.3   486  THR486      0.1794
     42  OG1      216.1750  176.7690  192.4840 O.3   486  THR486     -0.2208
     43  CG2      216.5820  178.6940  193.8510 C.3   486  THR486      0.0378
     44  N        214.7960  179.9750  201.8260 N.3   491  ARG491     -0.1245
     45  CA       215.2630  178.6490  202.1940 C.3   491  ARG491      0.1563
     46  C        216.5310  178.7270  203.0230 C.2   491  ARG491      0.2260
     47  O        216.7350  177.9200  203.9350 O.2   491  ARG491     -0.2867
     48  CB       215.5040  177.8220  200.9450 C.3   491  ARG491      0.0307
     49  CG       214.2640  177.4010  200.2330 C.3   491  ARG491      0.0489
     50  CD       214.6490  176.7010  198.9620 C.3   491  ARG491      0.2205
     51  NE       213.5100  176.1440  198.2530 N.pl3 491  ARG491     -0.0865
     52  CZ       213.6030  175.5510  197.0720 C.cat 491  ARG491      0.5346
     53  NH1      214.7790  175.4660  196.4730 N.pl3 491  ARG491      0.1354
     54  NH2      212.5290  175.0510  196.4880 N.pl3 491  ARG491      0.1354
     55  N        206.6960  174.2070  187.7950 N.3   607  VAL607     -0.1245
     56  CA       206.6750  173.0570  188.6810 C.3   607  VAL607      0.1561
     57  C        206.2700  173.4960  190.0680 C.2   607  VAL607      0.2260
     58  O        206.7070  174.5370  190.5670 O.2   607  VAL607     -0.2867
     59  CB       208.0440  172.3600  188.6960 C.3   607  VAL607      0.0252
     60  CG1      208.0570  171.2580  189.7280 C.3   607  VAL607      0.0019
     61  CG2      208.3400  171.7900  187.3340 C.3   607  VAL607      0.0019
     62  N        208.4100  174.6410  193.7260 N.3   610  GLY610     -0.1210
     63  CA       209.7340  174.8770  193.2090 C.3   610  GLY610      0.1956
     64  C        210.0560  176.3330  193.4130 C.2   610  GLY610      0.2613
     65  O        209.1400  177.1550  193.4520 O.2   610  GLY610     -0.2717
     66  N        211.3390  176.6620  193.5640 N.am  611  SER611     -0.1938
     67  CA       211.7290  178.0450  193.8040 C.3   611  SER611      0.2055
     68  C        211.0100  178.9930  192.8780 C.2   611  SER611      0.2643
     69  O        210.6230  180.0870  193.2890 O.2   611  SER611     -0.2714
     70  CB       213.2160  178.2180  193.6000 C.3   611  SER611      0.2130
     71  OG       213.5430  178.0280  192.2380 O.3   611  SER611     -0.2179
     72  N        210.8190  178.5860  191.6300 N.am  612  THR612     -0.1950
     73  CA       210.0740  179.4060  190.6920 C.3   612  THR612      0.1897
     74  C        208.6860  179.7150  191.2260 C.2   612  THR612      0.2313
     75  O        208.2850  180.8810  191.3040 O.2   612  THR612     -0.2863
     76  CB       209.9860  178.6920  189.3570 C.3   612  THR612      0.1794
     77  OG1      211.3070  178.3720  188.9120 O.3   612  THR612     -0.2208
     78  CG2      209.3510  179.6030  188.3640 C.3   612  THR612      0.0378
     79  N        208.7560  168.7760  185.8530 N.3   643  SER643     -0.1217
     80  CA       209.0530  169.4550  184.6010 C.3   643  SER643      0.1889
     81  C        208.7260  168.5660  183.4160 C.2   643  SER643      0.2288
     82  O        208.0290  168.9780  182.4850 O.2   643  SER643     -0.2866
     83  CB       210.5210  169.8650  184.5690 C.3   643  SER643      0.2089
     84  OG       210.8040  170.7860  185.6010 O.3   643  SER643     -0.2183
     85  N        207.6840  177.9820  183.0280 N.3   658  LEU658     -0.1231
     86  CA       208.6240  178.8840  183.6940 C.3   658  LEU658      0.1693
     87  C        209.7780  178.0640  184.2370 C.2   658  LEU658      0.2592
     88  O        209.9210  177.8700  185.4400 O.2   658  LEU658     -0.2718
     89  CB       207.9210  179.6290  184.8100 C.3   658  LEU658      0.0284
     90  CG       206.8030  180.4810  184.2550 C.3   658  LEU658      0.0019
     91  CD1      205.9540  180.9970  185.3650 C.3   658  LEU658      0.0001
     92  CD2      207.4000  181.6120  183.4840 C.3   658  LEU658      0.0001
     93  N        210.6140  177.5750  183.3400 N.am  659  MET659     -0.1965
     94  CA       211.6240  176.5970  183.6870 C.3   659  MET659      0.1736
     95  C        212.9520  177.2820  183.9610 C.2   659  MET659      0.2616
     96  O        213.2030  178.4070  183.5270 O.2   659  MET659     -0.2715
     97  CB       211.7730  175.5610  182.5730 C.3   659  MET659      0.0427
     98  CG       212.7570  174.4620  182.8610 C.3   659  MET659      0.0599
     99  SD       212.9120  173.3320  181.4820 S.3   659  MET659     -0.1393
    100  CE       211.3470  172.4950  181.5840 C.3   659  MET659      0.0692
    101  N        213.7920  176.5920  184.7190 N.am  660  GLU660     -0.1977
    102  CA       215.1450  177.0560  184.9390 C.3   660  GLU660      0.1602
    103  C        215.9260  176.9890  183.6420 C.2   660  GLU660      0.2287
    104  O        215.6940  176.1130  182.8090 O.2   660  GLU660     -0.2864
    105  CB       215.8100  176.2080  186.0040 C.3   660  GLU660      0.0415
    106  CG       215.1560  176.3560  187.3460 C.3   660  GLU660      0.1163
    107  CD       215.7850  175.4670  188.3900 C.2   660  GLU660      0.3649
    108  OE1      216.6430  174.6400  188.0280 O.co2 660  GLU660     -0.2457
    109  OE2      215.4240  175.5930  189.5750 O.co2 660  GLU660     -0.2457
    110  N        218.0760  173.7600  182.5690 N.3   663  THR663     -0.1218
    111  CA       217.2430  172.6770  182.0740 C.3   663  THR663      0.1862
    112  C        216.7050  172.9990  180.6880 C.2   663  THR663      0.2287
    113  O        216.7820  172.1720  179.7740 O.2   663  THR663     -0.2866
    114  CB       216.1090  172.4140  183.0490 C.3   663  THR663      0.1770
    115  OG1      216.6680  172.1270  184.3300 O.3   663  THR663     -0.2211
    116  CG2      215.3170  171.2240  182.6010 C.3   663  THR663      0.0375
@<TRIPOS>BOND
     1   113   112    2
     2   112   111    1
     3    99   100    1
     4    99    98    1
     5   111   110    1
     6   111   114    1
     7    82    81    2
     8    97    98    1
     9    97    94    1
    10   116   114    1
    11   104   103    2
    12    85    86    1
    13   114   115    1
    14    93    94    1
    15    93    87   am
    16    81    80    1
    17    92    90    1
    18    96    95    2
    19   103   102    1
    20    94    95    1
    21    86    87    1
    22    86    89    1
    23    95   101   am
    24    87    88    2
    25    90    89    1
    26    90    91    1
    27    83    80    1
    28    83    84    1
    29    80    79    1
    30     9     7   ar
    31   101   102    1
    32   102   105    1
    33     7     8   ar
    34     7     6    1
    35     3     4    2
    36     3     2    1
    37   105   106    1
    38     6     5    1
    39     2     5    1
    40     2     1    1
    41    61    59    1
    42   106   107    1
    43    55    56    1
    44   108   107   ar
    45    78    76    1
    46   107   109   ar
    47    56    59    1
    48    56    57    1
    49    59    60    1
    50    77    76    1
    51    76    73    1
    52    26    27    1
    53    26    23    1
    54    21    20    1
    55    27    28    1
    56    57    58    2
    57    73    74    1
    58    73    72    1
    59    28    22    1
    60    20    19   ar
    61    20    18   ar
    62    74    75    2
    63    23    22    1
    64    23    24    1
    65    19    17   ar
    66    72    68   am
    67    25    24    2
    68    24    29   am
    69    18    16   ar
    70    71    70    1
    71    42    41    1
    72    17    15   ar
    73    68    69    2
    74    68    67    1
    75    63    64    1
    76    63    62    1
    77    29    30    1
    78    64    65    2
    79    64    66   am
    80    16    15   ar
    81    66    67    1
    82    70    67    1
    83    15    14    1
    84    32    31    2
    85    41    43    1
    86    41    38    1
    87    31    30    1
    88    31    37   am
    89    38    37    1
    90    38    39    1
    91    30    33    1
    92    14    11    1
    93    10    11    1
    94    39    40    2
    95    33    34    1
    96    11    12    1
    97    35    34    1
    98    53    52    1
    99    54    52    1
   100    34    36    1
   101    52    51    2
   102    12    13    2
   103    51    50    1
   104    50    49    1
   105    49    48    1
   106    48    45    1
   107    44    45    1
   108    45    46    1
   109    46    47    2
