@<TRIPOS>MOLECULE
tmp/5kuhC00.pdb
 154 147 0 0 0
SMALL
GASTEIGER

@<TRIPOS>ATOM
      1  N        167.3910  223.5270  187.7490 N.3   395  GLU395     -0.1245
      2  CA       168.4060  222.7080  187.0990 C.3   395  GLU395      0.1567
      3  C        167.7770  222.1360  185.8160 C.2   395  GLU395      0.2260
      4  O        166.8670  221.3380  185.8750 O.2   395  GLU395     -0.2867
      5  CB       168.8840  221.5800  188.0090 C.3   395  GLU395      0.0388
      6  CG       169.9800  220.7270  187.4280 C.3   395  GLU395      0.1160
      7  CD       170.3810  219.5460  188.2830 C.2   395  GLU395      0.3649
      8  OE1      170.1640  219.5550  189.4960 O.co2 395  GLU395     -0.2457
      9  OE2      171.0420  218.6520  187.7090 O.co2 395  GLU395     -0.2457
     10  N        165.3560  219.3570  184.7400 N.3   398  TYR398     -0.1241
     11  CA       164.6420  218.7870  185.8660 C.3   398  TYR398      0.1605
     12  C        163.6080  219.7260  186.4300 C.2   398  TYR398      0.2264
     13  O        162.4690  219.3290  186.7220 O.2   398  TYR398     -0.2867
     14  CB       165.6460  218.3710  186.9590 C.3   398  TYR398      0.0534
     15  CG       166.5760  217.2870  186.4800 C.ar  398  TYR398     -0.0201
     16  CD1      166.0620  216.0280  186.1500 C.ar  398  TYR398     -0.0009
     17  CD2      167.9290  217.5180  186.2990 C.ar  398  TYR398     -0.0009
     18  CE1      166.9290  215.0420  185.7620 C.ar  398  TYR398      0.0417
     19  CE2      168.7900  216.5420  185.8750 C.ar  398  TYR398      0.0417
     20  CZ       168.2740  215.2830  185.5820 C.ar  398  TYR398      0.1957
     21  OH       169.0810  214.2430  185.1700 O.3   398  TYR398     -0.2866
     22  N        172.7080  221.8730  196.6670 N.3   443  TYR443     -0.1241
     23  CA       172.1510  220.5540  196.8190 C.3   443  TYR443      0.1605
     24  C        172.3400  220.0200  198.2250 C.2   443  TYR443      0.2264
     25  O        171.3930  219.5630  198.8510 O.2   443  TYR443     -0.2867
     26  CB       172.7740  219.6130  195.7950 C.3   443  TYR443      0.0534
     27  CG       172.6970  220.1810  194.3810 C.ar  443  TYR443     -0.0201
     28  CD1      171.4940  220.5260  193.7660 C.ar  443  TYR443     -0.0009
     29  CD2      173.8420  220.3420  193.6160 C.ar  443  TYR443     -0.0009
     30  CE1      171.4020  221.0420  192.4790 C.ar  443  TYR443      0.0417
     31  CE2      173.7940  220.8730  192.3240 C.ar  443  TYR443      0.0417
     32  CZ       172.5750  221.2010  191.7520 C.ar  443  TYR443      0.1957
     33  OH       172.5730  221.7400  190.5090 O.3   443  TYR443     -0.2866
     34  N        167.4150  216.3530  191.1620 N.3   471  PRO471     -0.2102
     35  CA       168.3950  215.3060  190.8440 C.3   471  PRO471      0.1504
     36  C        169.4470  215.2580  191.9630 C.2   471  PRO471      0.2576
     37  O        170.5650  215.7040  191.7780 O.2   471  PRO471     -0.2718
     38  CB       168.9940  215.7290  189.5180 C.3   471  PRO471      0.0282
     39  CG       168.5960  217.0860  189.3070 C.3   471  PRO471      0.0208
     40  CD       167.4770  217.4500  190.1320 C.3   471  PRO471      0.0893
     41  N        169.0170  214.7770  193.1230 N.am  472  LEU472     -0.1966
     42  CA       169.8480  214.7150  194.3160 C.3   472  LEU472      0.1728
     43  C        170.5900  213.3880  194.3270 C.2   472  LEU472      0.2616
     44  O        169.9660  212.3390  194.5060 O.2   472  LEU472     -0.2715
     45  CB       168.9910  214.8740  195.5470 C.3   472  LEU472      0.0311
     46  CG       169.6860  214.9300  196.8990 C.3   472  LEU472      0.0022
     47  CD1      170.4330  216.2460  197.0760 C.3   472  LEU472      0.0001
     48  CD2      168.6760  214.7430  198.0290 C.3   472  LEU472      0.0001
     49  N        171.9090  213.4270  194.1590 N.am  473  THR473     -0.1951
     50  CA       172.6660  212.1920  194.0530 C.3   473  THR473      0.1897
     51  C        172.6730  211.4560  195.3710 C.2   473  THR473      0.2313
     52  O        172.9320  212.0290  196.4390 O.2   473  THR473     -0.2863
     53  CB       174.0880  212.4540  193.5680 C.3   473  THR473      0.1794
     54  OG1      174.7270  213.3120  194.5010 O.3   473  THR473     -0.2208
     55  CG2      174.1120  213.0620  192.1790 C.3   473  THR473      0.0378
     56  N        175.5540  211.4960  202.4150 N.3   478  ARG478     -0.1245
     57  CA       174.1770  211.9920  202.5510 C.3   478  ARG478      0.1563
     58  C        173.2130  210.9440  203.1240 C.2   478  ARG478      0.2260
     59  O        172.3400  211.2630  203.9290 O.2   478  ARG478     -0.2867
     60  CB       173.6500  212.4890  201.2030 C.3   478  ARG478      0.0307
     61  CG       174.3010  213.7180  200.7250 C.3   478  ARG478      0.0489
     62  CD       173.5750  214.1330  199.4290 C.3   478  ARG478      0.2205
     63  NE       174.4100  215.2320  198.9780 N.pl3 478  ARG478     -0.0865
     64  CZ       174.4830  215.5910  197.6870 C.cat 478  ARG478      0.5346
     65  NH1      173.7440  215.0770  196.7220 N.pl3 478  ARG478      0.1354
     66  NH2      175.4530  216.4960  197.4730 N.pl3 478  ARG478      0.1354
     67  N        184.5970  220.1150  184.7930 N.3   520  VAL520     -0.1231
     68  CA       184.2340  221.3530  185.4380 C.3   520  VAL520      0.1693
     69  C        184.8580  221.4000  186.8370 C.2   520  VAL520      0.2594
     70  O        184.7540  220.4560  187.6400 O.2   520  VAL520     -0.2718
     71  CB       182.7260  221.5100  185.5310 C.3   520  VAL520      0.0266
     72  CG1      182.3330  222.8120  186.2210 C.3   520  VAL520      0.0020
     73  CG2      182.1480  221.5250  184.1140 C.3   520  VAL520      0.0020
     74  N        185.5700  222.4870  187.0970 N.am  521  GLU521     -0.1934
     75  CA       186.2970  222.6280  188.3280 C.3   521  GLU521      0.1818
     76  C        185.3460  222.5480  189.5300 C.2   521  GLU521      0.2332
     77  O        184.2940  223.1860  189.5100 O.2   521  GLU521     -0.2860
     78  CB       187.0510  223.9500  188.3380 C.2   521  GLU521      0.0097
     79  CG       187.5670  224.4630  189.5990 C.2   521  GLU521      0.0837
     80  CD       188.4000  225.7250  189.5860 C.2   521  GLU521      0.3877
     81  OE1      188.6150  226.3410  188.4850 O.co2 521  GLU521     -0.2406
     82  OE2      189.0320  226.0020  190.6380 O.co2 521  GLU521     -0.2406
     83  N        183.3200  220.3100  190.5510 N.3   523  GLY523     -0.1210
     84  CA       182.0600  219.5860  190.4130 C.3   523  GLY523      0.1956
     85  C        182.2110  218.1790  190.9270 C.2   523  GLY523      0.2613
     86  O        183.2880  217.7680  191.3350 O.2   523  GLY523     -0.2717
     87  N        181.1110  217.4160  190.8980 N.am  524  SER524     -0.1938
     88  CA       181.1440  216.0560  191.3990 C.3   524  SER524      0.2055
     89  C        182.0540  215.1830  190.5610 C.2   524  SER524      0.2643
     90  O        182.7130  214.3100  191.0590 O.2   524  SER524     -0.2714
     91  CB       179.7290  215.4540  191.4420 C.3   524  SER524      0.2130
     92  OG       179.1860  215.2370  190.1840 O.3   524  SER524     -0.2179
     93  N        182.0860  215.4210  189.2610 N.am  525  THR525     -0.1950
     94  CA       182.9240  214.6140  188.4020 C.3   525  THR525      0.1897
     95  C        184.3870  214.8470  188.6970 C.2   525  THR525      0.2313
     96  O        185.1760  213.8920  188.8090 O.2   525  THR525     -0.2863
     97  CB       182.5920  214.8970  186.9140 C.3   525  THR525      0.1794
     98  OG1      182.8290  216.2730  186.6570 O.3   525  THR525     -0.2208
     99  CG2      181.1620  214.5270  186.5700 C.3   525  THR525      0.0378
    100  N        182.6800  226.1690  183.9690 N.3   555  SER555     -0.1202
    101  CA       181.2650  225.8540  183.7570 C.3   555  SER555      0.2020
    102  C        181.0800  224.8030  182.6780 C.2   555  SER555      0.2619
    103  O        181.9250  224.6360  181.8370 O.2   555  SER555     -0.2717
    104  CB       180.4770  227.0970  183.3540 C.3   555  SER555      0.2103
    105  OG       180.8080  227.5720  182.0940 O.3   555  SER555     -0.2182
    106  N        179.9670  224.0840  182.7740 N.am  556  SER556     -0.1951
    107  CA       179.6120  223.0960  181.7850 C.3   556  SER556      0.1924
    108  C        179.5930  223.7280  180.4150 C.2   556  SER556      0.2314
    109  O        180.1070  223.1720  179.4460 O.2   556  SER556     -0.2863
    110  CB       178.2460  222.4890  182.0900 C.3   556  SER556      0.2116
    111  OG       177.1990  223.4350  182.0920 O.3   556  SER556     -0.2180
    112  N        181.9730  214.2890  182.3380 N.3   572  MET572     -0.1230
    113  CA       180.7630  214.8490  182.9950 C.3   572  MET572      0.1702
    114  C        179.7430  213.7480  183.2600 C.2   572  MET572      0.2592
    115  O        179.9340  212.6090  182.8620 O.2   572  MET572     -0.2718
    116  CB       180.1690  216.0110  182.1460 C.3   572  MET572      0.0401
    117  CG       179.6910  215.6280  180.7690 C.3   572  MET572      0.0596
    118  SD       178.9980  217.0810  179.8790 S.3   572  MET572     -0.1393
    119  CE       178.1990  217.8330  181.1360 C.3   572  MET572      0.0692
    120  N        178.6600  214.0790  183.9420 N.am  573  GLU573     -0.1979
    121  CA       177.6350  213.0920  184.2630 C.3   573  GLU573      0.1602
    122  C        176.9070  212.7210  182.9780 C.2   573  GLU573      0.2287
    123  O        176.6960  213.5660  182.0780 O.2   573  GLU573     -0.2864
    124  CB       176.6830  213.6500  185.3560 C.3   573  GLU573      0.0415
    125  CG       176.2130  215.0260  185.0340 C.3   573  GLU573      0.1163
    126  CD       175.5230  215.6500  186.2020 C.2   573  GLU573      0.3649
    127  OE1      175.2940  214.9060  187.1980 O.co2 573  GLU573     -0.2457
    128  OE2      175.1760  216.8600  186.1150 O.co2 573  GLU573     -0.2457
    129  N        173.8880  211.9010  182.2890 N.3   575  THR575     -0.1203
    130  CA       172.6000  212.5830  182.0880 C.3   575  THR575      0.1994
    131  C        172.8090  213.9150  181.3600 C.2   575  THR575      0.2618
    132  O        172.0970  214.2410  180.4050 O.2   575  THR575     -0.2717
    133  CB       171.9010  212.8330  183.4100 C.3   575  THR575      0.1784
    134  OG1      172.7780  213.5250  184.2900 O.3   575  THR575     -0.2211
    135  CG2      171.4480  211.5350  184.0530 C.3   575  THR575      0.0376
    136  N        173.8000  214.6850  181.7930 N.am  576  THR576     -0.1952
    137  CA       174.1550  215.9190  181.1010 C.3   576  THR576      0.1897
    138  C        174.6630  215.6360  179.7100 C.2   576  THR576      0.2313
    139  O        174.3140  216.3310  178.7700 O.2   576  THR576     -0.2863
    140  CB       175.2320  216.6900  181.8840 C.3   576  THR576      0.1794
    141  OG1      176.3400  215.8360  182.1380 O.3   576  THR576     -0.2208
    142  CG2      174.6870  217.2280  183.1940 C.3   576  THR576      0.0378
    143  N        170.0560  209.2070  191.2140 N.3   599  TYR599     -0.1241
    144  CA       169.3390  210.3370  191.8010 C.3   599  TYR599      0.1605
    145  C        168.1270  209.8020  192.5410 C.2   599  TYR599      0.2264
    146  O        167.3840  208.9910  191.9700 O.2   599  TYR599     -0.2867
    147  CB       168.8700  211.3010  190.7320 C.3   599  TYR599      0.0534
    148  CG       169.9320  211.9720  189.9080 C.ar  599  TYR599     -0.0201
    149  CD1      171.1730  212.3100  190.4280 C.ar  599  TYR599     -0.0009
    150  CD2      169.6750  212.2770  188.5750 C.ar  599  TYR599     -0.0009
    151  CE1      172.1250  212.9350  189.6430 C.ar  599  TYR599      0.0417
    152  CE2      170.6110  212.9200  187.7920 C.ar  599  TYR599      0.0417
    153  CZ       171.8440  213.2360  188.3300 C.ar  599  TYR599      0.1957
    154  OH       172.7720  213.8570  187.5370 O.3   599  TYR599     -0.2866
@<TRIPOS>BOND
     1   139   138    2
     2   109   108    2
     3   138   137    1
     4   118   117    1
     5   118   119    1
     6   132   131    2
     7   108   107    1
     8   117   116    1
     9   137   136    1
    10   137   140    1
    11   131   136   am
    12   131   130    1
    13   107   110    1
    14   107   106    1
    15   103   102    2
    16   140   141    1
    17   140   142    1
    18   123   122    2
    19   130   129    1
    20   130   133    1
    21   110   111    1
    22   105   104    1
    23   116   113    1
    24   112   113    1
    25   102   106   am
    26   102   101    1
    27   115   114    2
    28   122   121    1
    29   113   114    1
    30   114   120   am
    31   104   101    1
    32   133   135    1
    33   133   134    1
    34   101   100    1
    35   120   121    1
    36    73    71    1
    37   121   124    1
    38    10    11    1
    39    67    68    1
    40   125   124    1
    41   125   126    1
    42    21    20    1
    43    68    71    1
    44    68    69    1
    45    71    72    1
    46    20    18   ar
    47    20    19   ar
    48    18    16   ar
    49     3     4    2
    50     3     2    1
    51    11    12    1
    52    11    14    1
    53    19    17   ar
    54   128   126   ar
    55    16    15   ar
    56   126   127   ar
    57    17    15   ar
    58    12    13    2
    59    15    14    1
    60    99    97    1
    61    98    97    1
    62    69    74   am
    63    69    70    2
    64    97    94    1
    65    74    75    1
    66     2     1    1
    67     2     5    1
    68     6     5    1
    69     6     7    1
    70   154   153    1
    71     9     7   ar
    72   152   153   ar
    73   152   150   ar
    74     7     8   ar
    75    75    78    1
    76    75    76    1
    77   153   151   ar
    78    78    79    2
    79    94    95    1
    80    94    93    1
    81    81    80   ar
    82   150   148   ar
    83    95    96    2
    84    93    89   am
    85    39    38    1
    86    39    40    1
    87    77    76    2
    88    38    35    1
    89    80    79    1
    90    80    82   ar
    91   151   149   ar
    92   148   149   ar
    93   148   147    1
    94    40    34    1
    95    92    91    1
    96    84    83    1
    97    84    85    1
    98    33    32    1
    99    89    90    2
   100    89    88    1
   101   147   144    1
   102    35    34    1
   103    35    36    1
   104    87    85   am
   105    87    88    1
   106    85    86    2
   107   143   144    1
   108    88    91    1
   109    32    31   ar
   110    32    30   ar
   111    37    36    2
   112   144   145    1
   113    36    41   am
   114   146   145    2
   115    55    53    1
   116    31    29   ar
   117    30    28   ar
   118    41    42    1
   119    53    50    1
   120    53    54    1
   121    29    27   ar
   122    28    27   ar
   123    50    49    1
   124    50    51    1
   125    49    43   am
   126    42    43    1
   127    42    45    1
   128    43    44    2
   129    27    26    1
   130    51    52    2
   131    45    46    1
   132    26    23    1
   133    22    23    1
   134    65    64    1
   135    23    24    1
   136    46    47    1
   137    46    48    1
   138    66    64    1
   139    64    63    2
   140    24    25    2
   141    63    62    1
   142    62    61    1
   143    61    60    1
   144    60    57    1
   145    56    57    1
   146    57    58    1
   147    58    59    2
