@<TRIPOS>MOLECULE
tmp/5kukA00.pdb
 92 91 0 0 0
SMALL
GASTEIGER

@<TRIPOS>ATOM
      1  N        -28.9820   -1.6080    6.2530 N.3    15  GLU15      -0.1231
      2  CA       -29.2870   -0.7770    5.0840 C.3    15  GLU15       0.1699
      3  C        -29.2630    0.7020    5.4720 C.2    15  GLU15       0.2592
      4  O        -29.6830    1.0650    6.5680 O.2    15  GLU15      -0.2718
      5  CB       -30.6650   -1.1390    4.5220 C.3    15  GLU15       0.0402
      6  CG       -30.9310   -0.5890    3.1260 C.3    15  GLU15       0.1161
      7  CD       -32.4000   -0.6280    2.7350 C.2    15  GLU15       0.3649
      8  OE1      -33.1590   -1.4390    3.3130 O.co2  15  GLU15      -0.2457
      9  OE2      -32.7960    0.1590    1.8440 O.co2  15  GLU15      -0.2457
     10  N        -28.7630    1.5510    4.5790 N.am   16  PHE16      -0.1962
     11  CA       -28.7460    2.9950    4.8140 C.3    16  PHE16       0.1771
     12  C        -29.8490    3.6630    3.9980 C.2    16  PHE16       0.2620
     13  O        -30.0500    3.3250    2.8280 O.2    16  PHE16      -0.2715
     14  CB       -27.3910    3.6060    4.4350 C.3    16  PHE16       0.0574
     15  CG       -26.2040    3.0230    5.1710 C.ar   16  PHE16      -0.0200
     16  CD1      -26.3500    2.3170    6.3650 C.ar   16  PHE16      -0.0042
     17  CD2      -24.9190    3.2280    4.6790 C.ar   16  PHE16      -0.0042
     18  CE1      -25.2460    1.8030    7.0280 C.ar   16  PHE16      -0.0003
     19  CE2      -23.8140    2.7180    5.3380 C.ar   16  PHE16      -0.0003
     20  CZ       -23.9760    2.0040    6.5140 C.ar   16  PHE16      -0.0000
     21  N        -30.5550    4.6100    4.6170 N.am   17  THR17      -0.1937
     22  CA       -31.6380    5.3430    3.9540 C.3    17  THR17       0.2028
     23  C        -31.5370    6.8440    4.1850 C.2    17  THR17       0.2642
     24  O        -30.8470    7.3020    5.1000 O.2    17  THR17      -0.2714
     25  CB       -33.0170    4.8920    4.4550 C.3    17  THR17       0.1808
     26  OG1      -33.1110    5.1240    5.8650 O.3    17  THR17      -0.2208
     27  CG2      -33.2380    3.4220    4.1600 C.3    17  THR17       0.0379
     28  N        -32.2460    7.5930    3.3420 N.am   18  ASN18      -0.1957
     29  CA       -32.3450    9.0520    3.4390 C.3    18  ASN18       0.1819
     30  C        -30.9810    9.7440    3.5090 C.2    18  ASN18       0.2621
     31  O        -30.7720   10.6960    4.2600 O.2    18  ASN18      -0.2715
     32  CB       -33.2450    9.4480    4.6120 C.3    18  ASN18       0.1195
     33  CG       -34.6720    8.9900    4.4320 C.2    18  ASN18       0.2630
     34  OD1      -35.1410    8.8030    3.3100 O.2    18  ASN18      -0.2716
     35  ND2      -35.3760    8.8090    5.5430 N.am   18  ASN18      -0.0877
     36  N        -30.0680    9.2470    2.6850 N.am   19  MET19      -0.1963
     37  CA       -28.7310    9.7880    2.5340 C.3    19  MET19       0.1736
     38  C        -28.8040   10.7530    1.3470 C.2    19  MET19       0.2616
     39  O        -28.1640   10.5470    0.3170 O.2    19  MET19      -0.2715
     40  CB       -27.7780    8.6200    2.2650 C.3    19  MET19       0.0427
     41  CG       -26.3370    8.8040    2.6920 C.3    19  MET19       0.0599
     42  SD       -25.5640    7.1850    2.9200 S.3    19  MET19      -0.1393
     43  CE       -25.6300    6.5140    1.2600 C.3    19  MET19       0.0692
     44  N        -29.5900   11.8150    1.5130 N.am   20  ASP20      -0.1971
     45  CA       -30.0620   12.6550    0.3930 C.3    20  ASP20       0.1709
     46  C        -28.9820   13.1860   -0.5570 C.2    20  ASP20       0.2293
     47  O        -29.2280   13.3350   -1.7570 O.2    20  ASP20      -0.2864
     48  CB       -30.8870   13.8370    0.9290 C.3    20  ASP20       0.1436
     49  CG       -32.2400   13.4120    1.4900 C.2    20  ASP20       0.3671
     50  OD1      -32.4610   12.2000    1.7090 O.co2  20  ASP20      -0.2456
     51  OD2      -33.0880   14.3020    1.7150 O.co2  20  ASP20      -0.2456
     52  N        -26.1060   11.7480   -1.4100 N.3    22  TRP22      -0.1241
     53  CA       -25.1710   10.6840   -1.7880 C.3    22  TRP22       0.1605
     54  C        -24.6340   10.7920   -3.2240 C.2    22  TRP22       0.2264
     55  O        -23.4560   10.5140   -3.4490 O.2    22  TRP22      -0.2867
     56  CB       -25.7390    9.2780   -1.5010 C.3    22  TRP22       0.0550
     57  CG       -26.7800    8.7550   -2.4610 C.ar   22  TRP22       0.0003
     58  CD1      -28.1340    8.7230   -2.2670 C.ar   22  TRP22       0.0946
     59  CD2      -26.5490    8.1570   -3.7460 C.ar   22  TRP22       0.0152
     60  NE1      -28.7550    8.1610   -3.3520 N.ar   22  TRP22      -0.2442
     61  CE2      -27.8090    7.8040   -4.2750 C.ar   22  TRP22       0.0810
     62  CE3      -25.4020    7.8930   -4.5040 C.ar   22  TRP22       0.0012
     63  CZ2      -27.9550    7.2020   -5.5260 C.ar   22  TRP22       0.0191
     64  CZ3      -25.5480    7.2950   -5.7470 C.ar   22  TRP22       0.0001
     65  CH2      -26.8150    6.9550   -6.2450 C.ar   22  TRP22       0.0015
     66  N        -20.7190   10.6380   -3.9080 N.3    26  TYR26      -0.1241
     67  CA       -20.1970    9.5050   -4.6730 C.3    26  TYR26       0.1605
     68  C        -19.4600    9.9760   -5.9310 C.2    26  TYR26       0.2264
     69  O        -18.5320    9.3060   -6.3930 O.2    26  TYR26      -0.2867
     70  CB       -21.3110    8.5240   -5.0430 C.3    26  TYR26       0.0534
     71  CG       -21.7030    7.5480   -3.9430 C.ar   26  TYR26      -0.0201
     72  CD1      -21.7910    7.9490   -2.6100 C.ar   26  TYR26      -0.0009
     73  CD2      -22.0230    6.2310   -4.2480 C.ar   26  TYR26      -0.0009
     74  CE1      -22.1600    7.0590   -1.6180 C.ar   26  TYR26       0.0417
     75  CE2      -22.3990    5.3340   -3.2630 C.ar   26  TYR26       0.0417
     76  CZ       -22.4670    5.7560   -1.9520 C.ar   26  TYR26       0.1957
     77  OH       -22.8360    4.8690   -0.9800 O.3    26  TYR26      -0.2866
     78  N        -16.2140    4.9210   -5.7500 N.3    33  THR33      -0.1218
     79  CA       -17.4780    4.5270   -6.3660 C.3    33  THR33       0.1862
     80  C        -17.2460    3.5070   -7.4910 C.2    33  THR33       0.2287
     81  O        -17.8810    2.4530   -7.5150 O.2    33  THR33      -0.2866
     82  CB       -18.2330    5.7660   -6.9070 C.3    33  THR33       0.1770
     83  OG1      -18.5530    6.6480   -5.8170 O.3    33  THR33      -0.2211
     84  CG2      -19.5200    5.3680   -7.6340 C.3    33  THR33       0.0375
     85  N        -18.5000   -0.6730   -7.5960 N.3    37  ILE37      -0.1245
     86  CA       -19.5710   -1.2260   -8.4480 C.3    37  ILE37       0.1561
     87  C        -19.1210   -2.5200   -9.1190 C.2    37  ILE37       0.2260
     88  O        -17.9260   -2.7350   -9.3260 O.2    37  ILE37      -0.2867
     89  CB       -20.0890   -0.2330   -9.5160 C.3    37  ILE37       0.0252
     90  CG1      -18.9900    0.1670  -10.5040 C.3    37  ILE37       0.0019
     91  CG2      -20.6890    0.9930   -8.8490 C.3    37  ILE37       0.0019
     92  CD1      -19.5020    0.9430  -11.6960 C.3    37  ILE37       0.0001
@<TRIPOS>BOND
     1    92    90    1
     2    90    89    1
     3    89    91    1
     4    89    86    1
     5    88    87    2
     6    87    86    1
     7    86    85    1
     8    84    82    1
     9    81    80    2
    10    80    79    1
    11    82    79    1
    12    82    83    1
    13    69    68    2
    14    79    78    1
    15    65    64   ar
    16    65    63   ar
    17    68    67    1
    18    64    62   ar
    19    63    61   ar
    20    70    67    1
    21    70    71    1
    22    67    66    1
    23    62    59   ar
    24    61    59   ar
    25    61    60   ar
    26    73    71   ar
    27    73    75   ar
    28    71    72   ar
    29    59    57   ar
    30    55    54    2
    31    60    58   ar
    32    75    76   ar
    33    54    53    1
    34    72    74   ar
    35    57    58   ar
    36    57    56    1
    37    76    74   ar
    38    76    77    1
    39    53    56    1
    40    53    52    1
    41    47    46    2
    42    46    45    1
    43    39    38    2
    44    45    48    1
    45    45    44    1
    46    48    49    1
    47    43    42    1
    48    38    44   am
    49    38    37    1
    50    49    50   ar
    51    49    51   ar
    52     9     7   ar
    53    40    37    1
    54    40    41    1
    55    37    36    1
    56    36    30   am
    57    41    42    1
    58     7     6    1
    59     7     8   ar
    60    13    12    2
    61     6     5    1
    62    34    33    2
    63    28    29    1
    64    28    23   am
    65    29    30    1
    66    29    32    1
    67    30    31    2
    68    22    23    1
    69    22    25    1
    70    22    21    1
    71    12    21   am
    72    12    11    1
    73    27    25    1
    74    23    24    2
    75    33    32    1
    76    33    35   am
    77    14    11    1
    78    14    15    1
    79    25    26    1
    80     5     2    1
    81    10    11    1
    82    10     3   am
    83    17    15   ar
    84    17    19   ar
    85     2     3    1
    86     2     1    1
    87    15    16   ar
    88    19    20   ar
    89     3     4    2
    90    16    18   ar
    91    20    18   ar
