@<TRIPOS>MOLECULE
tmp/5kutA00.pdb
 126 120 0 0 0
SMALL
GASTEIGER

@<TRIPOS>ATOM
      1  N        -10.8540  -26.7010  -15.0590 N.3    18  CYS18      -0.1221
      2  CA       -12.0770  -26.1250  -15.6080 C.3    18  CYS18       0.1808
      3  C        -13.0200  -25.6820  -14.4910 C.2    18  CYS18       0.2602
      4  O        -13.2730  -26.4250  -13.5390 O.2    18  CYS18      -0.2717
      5  CB       -12.7690  -27.1480  -16.5200 C.3    18  CYS18       0.0970
      6  SG       -14.4710  -26.7490  -17.0100 S.3    18  CYS18      -0.0800
      7  N        -13.5300  -24.4580  -14.6060 N.am   19  GLY19      -0.1942
      8  CA       -14.5070  -23.9280  -13.6760 C.3    19  GLY19       0.2014
      9  C        -13.9560  -23.1790  -12.4770 C.2    19  GLY19       0.2639
     10  O        -14.7480  -22.6970  -11.6580 O.2    19  GLY19      -0.2714
     11  N        -12.6320  -23.0560  -12.3390 N.am   20  VAL20      -0.1963
     12  CA       -12.0870  -22.3920  -11.1540 C.3    20  VAL20       0.1727
     13  C        -12.1510  -20.8770  -11.2400 C.2    20  VAL20       0.2617
     14  O        -11.9370  -20.2080  -10.2220 O.2    20  VAL20      -0.2715
     15  CB       -10.6280  -22.7950  -10.8580 C.3    20  VAL20       0.0290
     16  CG1      -10.5160  -24.2940  -10.6380 C.3    20  VAL20       0.0023
     17  CG2       -9.6910  -22.3310  -11.9760 C.3    20  VAL20       0.0023
     18  N        -12.4530  -20.3210  -12.4060 N.am   21  GLY21      -0.1940
     19  CA       -12.5530  -18.8900  -12.5890 C.3    21  GLY21       0.2014
     20  C        -11.4610  -18.2350  -13.4270 C.2    21  GLY21       0.2639
     21  O        -11.2520  -17.0210  -13.2860 O.2    21  GLY21      -0.2714
     22  N        -10.7670  -18.9880  -14.2860 N.am   22  LYS22      -0.1963
     23  CA        -9.6680  -18.4050  -15.0510 C.3    22  LYS22       0.1728
     24  C        -10.1760  -17.3310  -16.0030 C.2    22  LYS22       0.2617
     25  O         -9.6280  -16.2250  -16.0590 O.2    22  LYS22      -0.2715
     26  CB        -8.9190  -19.4940  -15.8210 C.3    22  LYS22       0.0311
     27  CG        -8.3530  -20.6020  -14.9430 C.3    22  LYS22       0.0038
     28  CD        -7.5630  -21.6230  -15.7640 C.3    22  LYS22       0.0206
     29  CE        -8.4490  -22.3240  -16.7930 C.3    22  LYS22       0.1093
     30  NZ        -9.5370  -23.1250  -16.1610 N.3    22  LYS22      -0.1314
     31  N        -11.2340  -17.6350  -16.7580 N.am   23  SER23      -0.1936
     32  CA       -11.7110  -16.6780  -17.7500 C.3    23  SER23       0.2055
     33  C        -12.2190  -15.4070  -17.0740 C.2    23  SER23       0.2642
     34  O        -12.0020  -14.2980  -17.5750 O.2    23  SER23      -0.2714
     35  CB       -12.8000  -17.3190  -18.6150 C.3    23  SER23       0.2130
     36  OG       -12.2440  -18.3080  -19.4740 O.3    23  SER23      -0.2179
     37  N        -12.8750  -15.5450  -15.9210 N.am   24  ALA24      -0.1977
     38  CA       -13.3290  -14.3580  -15.1960 C.3    24  ALA24       0.1597
     39  C        -12.1510  -13.5580  -14.6550 C.2    24  ALA24       0.2287
     40  O        -12.2070  -12.3250  -14.5940 O.2    24  ALA24      -0.2864
     41  CB       -14.2670  -14.7530  -14.0570 C.3    24  ALA24       0.0319
     42  N        -17.8460   -9.9570  -12.5940 N.3    34  LEU34      -0.1245
     43  CA       -18.8410  -10.9060  -13.0820 C.3    34  LEU34       0.1561
     44  C        -20.0300  -10.1820  -13.7020 C.2    34  LEU34       0.2260
     45  O        -20.5050   -9.1680  -13.1810 O.2    34  LEU34      -0.2867
     46  CB       -19.3080  -11.8140  -11.9450 C.3    34  LEU34       0.0270
     47  CG       -18.2620  -12.8050  -11.4360 C.3    34  LEU34       0.0019
     48  CD1      -18.8630  -13.7090  -10.3760 C.3    34  LEU34       0.0001
     49  CD2      -17.6960  -13.6210  -12.5940 C.3    34  LEU34       0.0001
     50  N        -18.5680   -8.6310  -17.9280 N.3    37  GLN37      -0.1245
     51  CA       -17.5880   -9.1380  -18.8720 C.3    37  GLN37       0.1566
     52  C        -17.9680   -8.7680  -20.3080 C.2    37  GLN37       0.2260
     53  O        -19.1220   -8.4770  -20.6190 O.2    37  GLN37      -0.2867
     54  CB       -17.4550  -10.6520  -18.7380 C.3    37  GLN37       0.0367
     55  CG       -17.0500  -11.0890  -17.3530 C.3    37  GLN37       0.0905
     56  CD       -16.9590  -12.5880  -17.2220 C.2    37  GLN37       0.2608
     57  OE1      -17.4330  -13.3290  -18.0840 O.2    37  GLN37      -0.2717
     58  NE2      -16.3380  -13.0480  -16.1420 N.am   37  GLN37      -0.0878
     59  N         -4.7100  -18.1240  -20.5480 N.3    64  GLU64      -0.1245
     60  CA        -5.4940  -19.1220  -19.8270 C.3    64  GLU64       0.1567
     61  C         -5.1150  -20.5280  -20.2790 C.2    64  GLU64       0.2260
     62  O         -5.0800  -20.8130  -21.4780 O.2    64  GLU64      -0.2867
     63  CB        -6.9880  -18.8830  -20.0570 C.3    64  GLU64       0.0388
     64  CG        -7.9120  -19.9180  -19.4030 C.3    64  GLU64       0.1160
     65  CD        -9.3860  -19.5610  -19.5580 C.2    64  GLU64       0.3649
     66  OE1       -9.6750  -18.4110  -19.9540 O.co2  64  GLU64      -0.2457
     67  OE2      -10.2550  -20.4110  -19.2620 O.co2  64  GLU64      -0.2457
     68  N         -9.5040  -18.5770   -5.7960 N.3   117  SER117     -0.1202
     69  CA       -10.5570  -17.8480   -6.4790 C.3   117  SER117      0.2020
     70  C        -11.8770  -17.9580   -5.7180 C.2   117  SER117      0.2618
     71  O        -12.0320  -18.7600   -4.7960 O.2   117  SER117     -0.2717
     72  CB       -10.7360  -18.3790   -7.8990 C.3   117  SER117      0.2103
     73  OG       -11.2050  -19.7150   -7.8580 O.3   117  SER117     -0.2182
     74  N        -12.8430  -17.1350   -6.1370 N.am  118  LYS118     -0.1979
     75  CA       -14.2000  -17.1350   -5.5830 C.3   118  LYS118      0.1596
     76  C        -14.1890  -16.8980   -4.0710 C.2   118  LYS118      0.2287
     77  O        -14.8620  -17.5880   -3.3020 O.2   118  LYS118     -0.2864
     78  CB       -14.9310  -18.4330   -5.9340 C.3   118  LYS118      0.0298
     79  CG       -14.9230  -18.7460   -7.4220 C.3   118  LYS118      0.0038
     80  CD       -15.6810  -20.0250   -7.7240 C.3   118  LYS118      0.0206
     81  CE       -15.5810  -20.3790   -9.1950 C.3   118  LYS118      0.1093
     82  NZ       -16.3490  -21.6100   -9.5300 N.3   118  LYS118     -0.1314
     83  N        -15.5240  -14.5810   -2.5240 N.3   120  ASP120     -0.1225
     84  CA       -16.8180  -14.0720   -2.0840 C.3   120  ASP120      0.1805
     85  C        -17.7570  -15.1780   -1.6280 C.2   120  ASP120      0.2597
     86  O        -18.7040  -14.8990   -0.8850 O.2   120  ASP120     -0.2718
     87  CB       -17.4820  -13.2770   -3.2110 C.3   120  ASP120      0.1424
     88  CG       -17.6320  -14.0870   -4.4920 C.2   120  ASP120      0.3668
     89  OD1      -16.6080  -14.2980   -5.1760 O.co2 120  ASP120     -0.2456
     90  OD2      -18.7650  -14.5020   -4.8240 O.co2 120  ASP120     -0.2456
     91  N        -17.5270  -16.4110   -2.0620 N.am  121  LEU121     -0.1979
     92  CA       -18.3860  -17.5250   -1.7040 C.3   121  LEU121      0.1596
     93  C        -17.9730  -18.1140   -0.3590 C.2   121  LEU121      0.2287
     94  O        -16.8710  -17.8540    0.1330 O.2   121  LEU121     -0.2864
     95  CB       -18.3220  -18.6020   -2.7830 C.3   121  LEU121      0.0297
     96  CG       -18.8400  -18.2220   -4.1690 C.3   121  LEU121      0.0022
     97  CD1      -18.8140  -19.4310   -5.1030 C.3   121  LEU121      0.0001
     98  CD2      -20.2410  -17.6240   -4.0790 C.3   121  LEU121      0.0001
     99  N         -8.9010  -14.0660   -4.2560 N.3   147  PHE147     -0.1227
    100  CA        -9.3910  -13.1550   -5.2770 C.3   147  PHE147      0.1736
    101  C        -10.8740  -13.3880   -5.4970 C.2   147  PHE147      0.2596
    102  O        -11.3660  -14.5110   -5.3700 O.2   147  PHE147     -0.2718
    103  CB        -8.6370  -13.3200   -6.6030 C.3   147  PHE147      0.0547
    104  CG        -8.9250  -12.2330   -7.5930 C.ar  147  PHE147     -0.0202
    105  CD1       -8.2560  -11.0210   -7.5200 C.ar  147  PHE147     -0.0042
    106  CD2       -9.8710  -12.4140   -8.5880 C.ar  147  PHE147     -0.0042
    107  CE1       -8.5210  -10.0120   -8.4240 C.ar  147  PHE147     -0.0003
    108  CE2      -10.1430  -11.4070   -9.4950 C.ar  147  PHE147     -0.0003
    109  CZ        -9.4650  -10.2030   -9.4120 C.ar  147  PHE147     -0.0000
    110  N        -11.5840  -12.3120   -5.8330 N.am  148  SER148     -0.1938
    111  CA       -13.0010  -12.4050   -6.1410 C.3   148  SER148      0.2055
    112  C        -13.3430  -11.4910   -7.3060 C.2   148  SER148      0.2643
    113  O        -12.8220  -10.3760   -7.4100 O.2   148  SER148     -0.2714
    114  CB       -13.8710  -12.0470   -4.9310 C.3   148  SER148      0.2130
    115  OG       -15.2380  -12.0510   -5.2960 O.3   148  SER148     -0.2179
    116  N        -14.2310  -11.9790   -8.1720 N.am  149  CYS149     -0.1953
    117  CA       -14.7080  -11.2280   -9.3240 C.3   149  CYS149      0.1843
    118  C        -16.1090  -10.6670   -9.1370 C.2   149  CYS149      0.2625
    119  O        -16.5540   -9.8680   -9.9700 O.2   149  CYS149     -0.2714
    120  CB       -14.6980  -12.1100  -10.5870 C.3   149  CYS149      0.0997
    121  SG       -13.0670  -12.5950  -11.1800 S.3   149  CYS149     -0.0797
    122  N        -16.8090  -11.0500   -8.0720 N.am  150  ALA150     -0.1977
    123  CA       -18.2010  -10.6730   -7.8730 C.3   150  ALA150      0.1597
    124  C        -18.2900   -9.3640   -7.0860 C.2   150  ALA150      0.2287
    125  O        -17.3150   -8.6150   -6.9790 O.2   150  ALA150     -0.2864
    126  CB       -18.9530  -11.8170   -7.1850 C.3   150  ALA150      0.0319
@<TRIPOS>BOND
     1    62    61    2
     2    53    52    2
     3    59    60    1
     4    52    51    1
     5    61    60    1
     6    63    60    1
     7    63    64    1
     8    66    65   ar
     9    65    64    1
    10    65    67   ar
    11    36    35    1
    12    51    54    1
    13    51    50    1
    14    54    55    1
    15    35    32    1
    16    57    56    2
    17    32    33    1
    18    32    31    1
    19    34    33    2
    20    55    56    1
    21    56    58   am
    22    33    37   am
    23     6     5    1
    24    29    30    1
    25    29    28    1
    26    31    24   am
    27     5     2    1
    28    25    24    2
    29    24    23    1
    30    37    38    1
    31    26    23    1
    32    26    27    1
    33    28    27    1
    34     2     1    1
    35     2     3    1
    36    38    39    1
    37    38    41    1
    38    23    22    1
    39    39    40    2
    40     7     3   am
    41     7     8    1
    42     3     4    2
    43    22    20   am
    44    44    45    2
    45    44    43    1
    46     8     9    1
    47    20    21    2
    48    20    19    1
    49    43    42    1
    50    43    46    1
    51    49    47    1
    52    19    18    1
    53     9    11   am
    54     9    10    2
    55    18    13   am
    56    11    12    1
    57    17    15    1
    58    46    47    1
    59    47    48    1
    60    13    12    1
    61    13    14    2
    62   121   120    1
    63    12    15    1
    64    15    16    1
    65   120   117    1
    66   119   118    2
    67    82    81    1
    68   108   109   ar
    69   108   106   ar
    70   109   107   ar
    71   117   118    1
    72   117   116    1
    73    81    80    1
    74   118   122   am
    75   106   104   ar
    76   107   105   ar
    77   116   112   am
    78   122   123    1
    79    72    73    1
    80    72    69    1
    81   123   126    1
    82   123   124    1
    83    80    79    1
    84   104   105   ar
    85   104   103    1
    86    79    78    1
    87   113   112    2
    88   112   111    1
    89   124   125    2
    90   103   100    1
    91    69    68    1
    92    69    70    1
    93   111   110    1
    94   111   114    1
    95    74    70   am
    96    74    75    1
    97    78    75    1
    98   110   101   am
    99    70    71    2
   100    75    76    1
   101   101   102    2
   102   101   100    1
   103   115   114    1
   104   100    99    1
   105    89    88   ar
   106    97    96    1
   107    90    88   ar
   108    88    87    1
   109    96    98    1
   110    96    95    1
   111    76    77    2
   112    87    84    1
   113    95    92    1
   114    83    84    1
   115    84    85    1
   116    91    92    1
   117    91    85   am
   118    92    93    1
   119    85    86    2
   120    93    94    2
