@<TRIPOS>MOLECULE
tmp/5kviA01.pdb
 116 109 0 0 0
SMALL
GASTEIGER

@<TRIPOS>ATOM
      1  N        -48.6880   87.7740   20.5930 N.3   137  ARG137     -0.1245
      2  CA       -49.3710   87.3770   21.8160 C.3   137  ARG137      0.1563
      3  C        -50.8040   87.8920   21.8020 C.2   137  ARG137      0.2260
      4  O        -51.0990   88.9670   21.2790 O.2   137  ARG137     -0.2867
      5  CB       -48.6570   87.9300   23.0520 C.3   137  ARG137      0.0307
      6  CG       -47.2320   87.4560   23.2560 C.3   137  ARG137      0.0489
      7  CD       -46.6290   88.0830   24.5100 C.3   137  ARG137      0.2205
      8  NE       -45.2740   87.5920   24.7840 N.pl3 137  ARG137     -0.0865
      9  CZ       -44.1640   88.3380   24.8250 C.cat 137  ARG137      0.5346
     10  NH1      -44.2030   89.6470   24.6230 N.pl3 137  ARG137      0.1354
     11  NH2      -42.9890   87.7640   25.0830 N.pl3 137  ARG137      0.1354
     12  N        -47.0240  100.0420   23.8730 N.3   181  GLY181     -0.1210
     13  CA       -45.7300  100.0650   23.2270 C.3   181  GLY181      0.1956
     14  C        -45.7440  100.8650   21.9340 C.2   181  GLY181      0.2611
     15  O        -46.7190  101.5200   21.5640 O.2   181  GLY181     -0.2717
     16  N        -44.6040  100.8230   21.2440 N.am  182  PHE182     -0.1976
     17  CA       -44.4340  101.6560   20.0640 C.3   182  PHE182      0.1639
     18  C        -45.4940  101.3380   19.0130 C.2   182  PHE182      0.2290
     19  O        -46.1380  102.2420   18.4640 O.2   182  PHE182     -0.2864
     20  CB       -43.0240  101.4770   19.4980 C.3   182  PHE182      0.0560
     21  CG       -41.9490  102.1290   20.3420 C.ar  182  PHE182     -0.0200
     22  CD1      -41.6670  103.4620   20.1970 C.ar  182  PHE182     -0.0042
     23  CD2      -41.2380  101.4050   21.2840 C.ar  182  PHE182     -0.0042
     24  CE1      -40.6940  104.0750   20.9500 C.ar  182  PHE182     -0.0003
     25  CE2      -40.2580  102.0200   22.0530 C.ar  182  PHE182     -0.0003
     26  CZ       -39.9900  103.3510   21.8870 C.ar  182  PHE182     -0.0000
     27  N        -42.4480  101.0420   29.7060 N.3   214  LYS214     -0.1231
     28  CA       -41.4060  100.0670   30.0170 C.3   214  LYS214      0.1693
     29  C        -40.0550  100.4280   29.4060 C.2   214  LYS214      0.2591
     30  O        -39.0420   99.8390   29.7990 O.2   214  LYS214     -0.2718
     31  CB       -41.8250   98.6760   29.5380 C.3   214  LYS214      0.0285
     32  CG       -43.0380   98.1190   30.2760 C.3   214  LYS214      0.0035
     33  CD       -43.3480   96.6830   29.8570 C.3   214  LYS214      0.0206
     34  CE       -43.9870   96.6370   28.5070 C.3   214  LYS214      0.1093
     35  NZ       -44.4240   95.2470   28.1740 N.3   214  LYS214     -0.1314
     36  N        -40.0060  101.4020   28.4970 N.am  215  ILE215     -0.1980
     37  CA       -38.7860  101.7580   27.7840 C.3   215  ILE215      0.1595
     38  C        -38.3570  103.1930   28.0750 C.2   215  ILE215      0.2287
     39  O        -37.2060  103.4440   28.4560 O.2   215  ILE215     -0.2864
     40  CB       -38.9450  101.5230   26.2680 C.3   215  ILE215      0.0276
     41  CG1      -39.0510  100.0180   26.0030 C.3   215  ILE215      0.0022
     42  CG2      -37.7840  102.1260   25.4780 C.3   215  ILE215      0.0022
     43  CD1      -39.7420   99.6980   24.7220 C.3   215  ILE215      0.0001
     44  N        -51.9240   94.9900   20.5970 N.3   269  ALA269     -0.1231
     45  CA       -50.4990   95.0820   20.2670 C.3   269  ALA269      0.1694
     46  C        -49.7490   94.9160   21.5900 C.2   269  ALA269      0.2592
     47  O        -49.2420   95.8890   22.1610 O.2   269  ALA269     -0.2718
     48  CB       -50.1510   96.3830   19.5860 C.3   269  ALA269      0.0304
     49  N        -49.6750   93.6720   22.0620 N.am  270  VAL270     -0.1966
     50  CA       -49.0530   93.3540   23.3420 C.3   270  VAL270      0.1727
     51  C        -47.8800   92.3940   23.1350 C.2   270  VAL270      0.2616
     52  O        -47.5800   91.5700   23.9980 O.2   270  VAL270     -0.2715
     53  CB       -50.0940   92.7650   24.3060 C.3   270  VAL270      0.0290
     54  CG1      -51.1740   93.7800   24.6010 C.3   270  VAL270      0.0023
     55  CG2      -50.7000   91.4760   23.7400 C.3   270  VAL270      0.0023
     56  N        -47.1970   92.4970   22.0070 N.am  271  GLY271     -0.1955
     57  CA       -45.9480   91.7770   21.8330 C.3   271  GLY271      0.1869
     58  C        -46.0990   90.4780   21.0590 C.2   271  GLY271      0.2309
     59  O        -47.1610   90.1470   20.5180 O.2   271  GLY271     -0.2863
     60  N        -29.7230   87.6170   23.4920 N.3   322  ARG322     -0.1245
     61  CA       -30.9000   88.4670   23.3760 C.3   322  ARG322      0.1563
     62  C        -31.6450   88.1630   22.0910 C.2   322  ARG322      0.2260
     63  O        -31.1230   87.5310   21.1690 O.2   322  ARG322     -0.2867
     64  CB       -30.5530   89.9660   23.4240 C.3   322  ARG322      0.0307
     65  CG       -29.8890   90.5180   22.2010 C.3   322  ARG322      0.0489
     66  CD       -29.4920   91.9950   22.4000 C.3   322  ARG322      0.2205
     67  NE       -30.6370   92.9070   22.5160 N.pl3 322  ARG322     -0.0865
     68  CZ       -30.6920   94.1250   21.9810 C.cat 322  ARG322      0.5346
     69  NH1      -29.6840   94.5940   21.2630 N.pl3 322  ARG322      0.1354
     70  NH2      -31.7680   94.8800   22.1470 N.pl3 322  ARG322      0.1354
     71  N        -36.8820   92.7570   18.0560 N.3   325  GLU325     -0.1231
     72  CA       -37.9000   92.9110   17.0230 C.3   325  GLU325      0.1699
     73  C        -37.5720   94.1720   16.2280 C.2   325  GLU325      0.2592
     74  O        -38.2600   95.1950   16.3340 O.2   325  GLU325     -0.2718
     75  CB       -39.2950   92.9750   17.6300 C.3   325  GLU325      0.0402
     76  CG       -39.6450   91.7490   18.4640 C.3   325  GLU325      0.1161
     77  CD       -40.9110   91.9240   19.2660 C.2   325  GLU325      0.3649
     78  OE1      -41.8660   92.5330   18.7470 O.co2 325  GLU325     -0.2457
     79  OE2      -40.9490   91.4440   20.4140 O.co2 325  GLU325     -0.2457
     80  N        -36.4780   94.1130   15.4730 N.am  326  HIS326     -0.1976
     81  CA       -35.9470   95.2680   14.7640 C.3   326  HIS326      0.1656
     82  C        -35.8590   94.9530   13.2810 C.2   326  HIS326      0.2291
     83  O        -35.2820   93.9300   12.8830 O.2   326  HIS326     -0.2864
     84  CB       -34.5650   95.6510   15.2830 C.3   326  HIS326      0.0771
     85  CG       -34.5360   96.0290   16.7250 C.ar  326  HIS326      0.0820
     86  ND1      -33.3570   96.2530   17.4020 N.ar  326  HIS326     -0.2267
     87  CD2      -35.5310   96.2170   17.6280 C.ar  326  HIS326      0.1154
     88  CE1      -33.6250   96.5610   18.6600 C.ar  326  HIS326      0.1986
     89  NE2      -34.9370   96.5470   18.8220 N.ar  326  HIS326     -0.2212
     90  N        -33.4600  100.3040   16.4780 N.3   354  PHE354     -0.1241
     91  CA       -34.9080  100.3450   16.3400 C.3   354  PHE354      0.1605
     92  C        -35.3240  101.7840   16.0960 C.2   354  PHE354      0.2264
     93  O        -34.6240  102.7060   16.4980 O.2   354  PHE354     -0.2867
     94  CB       -35.5760   99.8180   17.6040 C.3   354  PHE354      0.0534
     95  CG       -37.0650   99.9590   17.6160 C.ar  354  PHE354     -0.0203
     96  CD1      -37.8670   99.0580   16.9360 C.ar  354  PHE354     -0.0042
     97  CD2      -37.6620  100.9640   18.3580 C.ar  354  PHE354     -0.0042
     98  CE1      -39.2310   99.1820   16.9720 C.ar  354  PHE354     -0.0003
     99  CE2      -39.0320  101.0970   18.3910 C.ar  354  PHE354     -0.0003
    100  CZ       -39.8160  100.2210   17.6950 C.ar  354  PHE354     -0.0000
    101  N        -33.8040  103.7340   19.0430 N.3   366  ALA366     -0.1245
    102  CA       -33.3200  103.0380   20.2280 C.3   366  ALA366      0.1562
    103  C        -32.2090  102.0780   19.8300 C.2   366  ALA366      0.2260
    104  O        -32.2060  101.5320   18.7280 O.2   366  ALA366     -0.2867
    105  CB       -34.4470  102.2750   20.9110 C.3   366  ALA366      0.0290
    106  N        -29.3100   99.1810   21.8980 N.3   368  GLY368     -0.1225
    107  CA       -28.7890   98.6000   23.1190 C.3   368  GLY368      0.1811
    108  C        -29.9030   98.2920   24.1070 C.2   368  GLY368      0.2280
    109  O        -31.0580   98.0740   23.7330 O.2   368  GLY368     -0.2866
    110  N        -32.4890   99.2280   26.5610 N.3   370  VAL370     -0.1245
    111  CA       -33.2900  100.4180   26.8170 C.3   370  VAL370      0.1561
    112  C        -34.4590   99.9590   27.6800 C.2   370  VAL370      0.2260
    113  O        -35.5020   99.5160   27.1970 O.2   370  VAL370     -0.2867
    114  CB       -33.7460  101.1120   25.5280 C.3   370  VAL370      0.0252
    115  CG1      -32.5320  101.6390   24.7680 C.3   370  VAL370      0.0019
    116  CG2      -34.5200  100.1820   24.5890 C.3   370  VAL370      0.0019
@<TRIPOS>BOND
     1    83    82    2
     2    82    81    1
     3    81    84    1
     4    81    80    1
     5    84    85    1
     6    80    73   am
     7    92    91    1
     8    92    93    2
     9    73    74    2
    10    73    72    1
    11    91    90    1
    12    91    94    1
    13    85    86   ar
    14    85    87   ar
    15    96    98   ar
    16    96    95   ar
    17    98   100   ar
    18    72    75    1
    19    72    71    1
    20    86    88   ar
    21    94    95    1
    22    95    97   ar
    23    87    89   ar
    24    75    76    1
    25   100    99   ar
    26    97    99   ar
    27    76    77    1
    28    19    18    2
    29    88    89   ar
    30   104   103    2
    31    78    77   ar
    32    18    17    1
    33   101   102    1
    34    77    79   ar
    35    20    17    1
    36    20    21    1
    37    48    45    1
    38   103   102    1
    39    17    16    1
    40    22    21   ar
    41    22    24   ar
    42   102   105    1
    43    45    44    1
    44    45    46    1
    45    21    23   ar
    46    59    58    2
    47     1     2    1
    48    24    26   ar
    49    58    57    1
    50    63    62    2
    51    16    14   am
    52    69    68    1
    53     4     3    2
    54    23    25   ar
    55    15    14    2
    56    46    49   am
    57    46    47    2
    58     3     2    1
    59     2     5    1
    60    57    56    1
    61    26    25   ar
    62   106   107    1
    63    14    13    1
    64    68    70    1
    65    68    67    2
    66    56    51   am
    67    49    50    1
    68    62    61    1
    69    65    66    1
    70    65    64    1
    71    66    67    1
    72     5     6    1
    73   107   108    1
    74    51    50    1
    75    51    52    2
    76    13    12    1
    77     6     7    1
    78    50    53    1
    79    61    64    1
    80    61    60    1
    81   109   108    2
    82    55    53    1
    83    53    54    1
    84     7     8    1
    85   116   114    1
    86    10     9    1
    87    43    41    1
    88   115   114    1
    89     8     9    2
    90     9    11    1
    91    42    40    1
    92   114   111    1
    93    41    40    1
    94    40    37    1
    95   110   111    1
    96   111   112    1
    97   113   112    2
    98    37    38    1
    99    37    36    1
   100    38    39    2
   101    35    34    1
   102    36    29   am
   103    34    33    1
   104    29    30    2
   105    29    28    1
   106    31    28    1
   107    31    32    1
   108    27    28    1
   109    33    32    1
