@<TRIPOS>MOLECULE
tmp/5kvlA00.pdb
 102 98 0 0 0
SMALL
GASTEIGER

@<TRIPOS>ATOM
      1  N         -1.0740   29.1240   30.5800 N.3    40  GLN40      -0.1231
      2  CA        -0.9580   29.0680   29.1300 C.3    40  GLN40       0.1698
      3  C         -2.3350   29.1830   28.4920 C.2    40  GLN40       0.2592
      4  O         -3.2460   28.4100   28.7970 O.2    40  GLN40      -0.2718
      5  CB        -0.2880   27.7690   28.6950 C.3    40  GLN40       0.0381
      6  CG         0.0920   27.7210   27.2240 C.3    40  GLN40       0.0905
      7  CD         1.0330   26.5730   26.9300 C.2    40  GLN40       0.2608
      8  OE1        0.9650   25.5230   27.5720 O.2    40  GLN40      -0.2717
      9  NE2        1.9260   26.7700   25.9730 N.am   40  GLN40      -0.0878
     10  N         -2.4760   30.1590   27.6070 N.am   41  PHE41      -0.1963
     11  CA        -3.7530   30.4400   26.9680 C.3    41  PHE41       0.1756
     12  C         -3.9960   29.5210   25.7750 C.2    41  PHE41       0.2461
     13  O         -3.0580   28.8950   25.2780 O.2    41  PHE41      -0.2730
     14  CB        -3.7960   31.9080   26.5500 C.3    41  PHE41       0.0574
     15  CG        -3.5140   32.8580   27.6750 C.ar   41  PHE41      -0.0200
     16  CD1       -4.5020   33.1710   28.6030 C.ar   41  PHE41      -0.0042
     17  CD2       -2.2570   33.4470   27.8050 C.ar   41  PHE41      -0.0042
     18  CE1       -4.2410   34.0520   29.6540 C.ar   41  PHE41      -0.0003
     19  CE2       -1.9910   34.3290   28.8450 C.ar   41  PHE41      -0.0003
     20  CZ        -2.9820   34.6310   29.7680 C.ar   41  PHE41      -0.0000
     21  N         -5.2620   29.4130   25.3230 N.am   42  PRO42      -0.2727
     22  CA        -5.5710   28.6160   24.1290 C.3    42  PRO42       0.1402
     23  C         -4.7090   28.9820   22.9190 C.2    42  PRO42       0.2269
     24  O         -4.3890   28.1130   22.1060 O.2    42  PRO42      -0.2865
     25  CB        -7.0390   28.9470   23.8730 C.3    42  PRO42       0.0296
     26  CG        -7.5900   29.1580   25.2300 C.3    42  PRO42       0.0237
     27  CD        -6.4950   29.8610   26.0000 C.3    42  PRO42       0.0939
     28  N         -1.6820   29.6470   23.0880 N.3    44  LYS44      -0.1245
     29  CA        -0.3780   29.0210   23.4150 C.3    44  LYS44       0.1561
     30  C          0.6180   29.9130   24.1730 C.2    44  LYS44       0.2260
     31  O          1.6450   29.4290   24.6570 O.2    44  LYS44      -0.2867
     32  CB         0.2880   28.3680   22.1890 C.3    44  LYS44       0.0271
     33  CG        -0.5630   27.3220   21.4540 C.3    44  LYS44       0.0035
     34  CD        -1.0120   26.1750   22.3500 C.3    44  LYS44       0.0206
     35  CE        -1.9500   25.2480   21.5890 C.3    44  LYS44       0.1093
     36  NZ        -2.4560   24.1350   22.4320 N.3    44  LYS44      -0.1314
     37  N         -9.6730   31.7690   30.6120 N.3    91  THR91      -0.1203
     38  CA        -9.6250   30.3560   30.2100 C.3    91  THR91       0.1994
     39  C         -8.1880   29.9870   29.8380 C.2    91  THR91       0.2618
     40  O         -7.5940   30.6070   28.9590 O.2    91  THR91      -0.2717
     41  CB       -10.5840   30.0850   29.0340 C.3    91  THR91       0.1784
     42  OG1      -11.9340   30.3110   29.4700 O.3    91  THR91      -0.2211
     43  CG2      -10.4480   28.6500   28.5240 C.3    91  THR91       0.0376
     44  N         -7.6270   29.0000   30.5360 N.am   92  ALA92      -0.1965
     45  CA        -6.2090   28.6560   30.3890 C.3    92  ALA92       0.1728
     46  C         -5.8590   27.3680   31.1190 C.2    92  ALA92       0.2616
     47  O         -6.6430   26.8650   31.9240 O.2    92  ALA92      -0.2715
     48  CB        -5.3260   29.7930   30.9210 C.3    92  ALA92       0.0334
     49  N         -4.6720   26.8420   30.8260 N.am   93  VAL93      -0.1977
     50  CA        -4.0890   25.8090   31.6730 C.3    93  VAL93       0.1596
     51  C         -3.2620   26.5200   32.7420 C.2    93  VAL93       0.2287
     52  O         -2.4220   27.3680   32.4220 O.2    93  VAL93      -0.2864
     53  CB        -3.2170   24.8150   30.8840 C.3    93  VAL93       0.0276
     54  CG1       -2.6640   23.7370   31.8190 C.3    93  VAL93       0.0022
     55  CG2       -4.0270   24.1580   29.7650 C.3    93  VAL93       0.0022
     56  N         -0.5130   26.2480   35.6960 N.3    95  TYR95      -0.1241
     57  CA         0.6170   25.4420   36.1720 C.3    95  TYR95       0.1605
     58  C          1.2160   26.0210   37.4420 C.2    95  TYR95       0.2264
     59  O          1.3210   27.2430   37.5820 O.2    95  TYR95      -0.2867
     60  CB         1.7460   25.4020   35.1420 C.3    95  TYR95       0.0534
     61  CG         1.3740   24.9920   33.7420 C.ar   95  TYR95      -0.0201
     62  CD1        1.2630   23.6490   33.3950 C.ar   95  TYR95      -0.0009
     63  CD2        1.1930   25.9470   32.7440 C.ar   95  TYR95      -0.0009
     64  CE1        0.9420   23.2650   32.1000 C.ar   95  TYR95       0.0417
     65  CE2        0.8790   25.5740   31.4430 C.ar   95  TYR95       0.0417
     66  CZ         0.7580   24.2340   31.1290 C.ar   95  TYR95       0.1957
     67  OH         0.4420   23.8640   29.8430 O.3    95  TYR95      -0.2866
     68  N         -6.7400   22.4990   33.7600 N.3   107  THR107     -0.1218
     69  CA        -7.4640   23.2990   32.7810 C.3   107  THR107      0.1862
     70  C         -8.6880   23.9440   33.4170 C.2   107  THR107      0.2287
     71  O         -9.5090   23.2630   34.0340 O.2   107  THR107     -0.2866
     72  CB        -7.8920   22.4370   31.5720 C.3   107  THR107      0.1770
     73  OG1       -6.7390   21.7890   31.0190 O.3   107  THR107     -0.2211
     74  CG2       -8.5520   23.2880   30.4890 C.3   107  THR107      0.0375
     75  N        -11.8790   26.6550   32.4940 N.3   109  THR109     -0.1218
     76  CA       -12.6380   27.3850   31.4860 C.3   109  THR109      0.1862
     77  C        -13.6220   28.3080   32.1920 C.2   109  THR109      0.2287
     78  O        -14.2900   27.9010   33.1410 O.2   109  THR109     -0.2866
     79  CB       -13.3820   26.4140   30.5370 C.3   109  THR109      0.1770
     80  OG1      -12.4200   25.6390   29.8090 O.3   109  THR109     -0.2211
     81  CG2      -14.2540   27.1600   29.5410 C.3   109  THR109      0.0375
     82  N        -13.2450   21.4970   28.2230 N.3   147  GLU147     -0.1245
     83  CA       -12.0460   20.6660   28.1780 C.3   147  GLU147      0.1567
     84  C        -11.5550   20.3780   29.6030 C.2   147  GLU147      0.2260
     85  O        -11.8510   21.1410   30.5240 O.2   147  GLU147     -0.2867
     86  CB       -10.9590   21.3830   27.3740 C.3   147  GLU147      0.0388
     87  CG       -11.1680   21.3480   25.8720 C.3   147  GLU147      0.1160
     88  CD       -10.5040   20.1490   25.2260 C.2   147  GLU147      0.3649
     89  OE1      -10.9270   18.9990   25.4990 O.co2 147  GLU147     -0.2457
     90  OE2       -9.5510   20.3600   24.4450 O.co2 147  GLU147     -0.2457
     91  N        -17.3100   20.3740   22.3840 N.3   175  TYR175     -0.1241
     92  CA       -16.0820   19.7600   21.8750 C.3   175  TYR175      0.1605
     93  C        -16.3100   18.3360   21.3850 C.2   175  TYR175      0.2264
     94  O        -17.2420   17.6580   21.8140 O.2   175  TYR175     -0.2867
     95  CB       -14.9930   19.7520   22.9460 C.3   175  TYR175      0.0534
     96  CG       -14.4770   21.1190   23.3210 C.ar  175  TYR175     -0.0201
     97  CD1      -15.0560   21.8350   24.3640 C.ar  175  TYR175     -0.0009
     98  CD2      -13.4020   21.6920   22.6420 C.ar  175  TYR175     -0.0009
     99  CE1      -14.5870   23.0910   24.7200 C.ar  175  TYR175      0.0417
    100  CE2      -12.9240   22.9540   22.9920 C.ar  175  TYR175      0.0417
    101  CZ       -13.5240   23.6430   24.0330 C.ar  175  TYR175      0.1957
    102  OH       -13.0670   24.8890   24.3990 O.3   175  TYR175     -0.2866
@<TRIPOS>BOND
     1    93    94    2
     2    93    92    1
     3    33    32    1
     4    33    34    1
     5    35    34    1
     6    35    36    1
     7    92    91    1
     8    92    95    1
     9    24    23    2
    10    32    29    1
    11    98   100   ar
    12    98    96   ar
    13    23    22    1
    14    95    96    1
    15   100   101   ar
    16    28    29    1
    17    96    97   ar
    18    29    30    1
    19    25    22    1
    20    25    26    1
    21   101   102    1
    22   101    99   ar
    23    22    21    1
    24    30    31    2
    25    97    99   ar
    26    90    88   ar
    27    88    89   ar
    28    88    87    1
    29    26    27    1
    30    13    12    2
    31    21    12   am
    32    21    27    1
    33    12    11    1
    34    87    86    1
    35     9     7   am
    36    14    11    1
    37    14    15    1
    38     7     6    1
    39     7     8    2
    40    11    10    1
    41     6     5    1
    42    86    83    1
    43    10     3   am
    44    15    17   ar
    45    15    16   ar
    46    17    19   ar
    47    83    82    1
    48    83    84    1
    49     3     4    2
    50     3     2    1
    51    43    41    1
    52    16    18   ar
    53     5     2    1
    54    19    20   ar
    55    40    39    2
    56    41    42    1
    57    41    38    1
    58     2     1    1
    59    81    79    1
    60    84    85    2
    61    18    20   ar
    62    55    53    1
    63    80    79    1
    64    39    38    1
    65    39    44   am
    66    67    66    1
    67    38    37    1
    68    45    44    1
    69    45    48    1
    70    45    46    1
    71    74    72    1
    72    79    76    1
    73    49    46   am
    74    49    50    1
    75    53    50    1
    76    53    54    1
    77    73    72    1
    78    46    47    2
    79    66    65   ar
    80    66    64   ar
    81    65    63   ar
    82    76    77    1
    83    76    75    1
    84    72    69    1
    85    50    51    1
    86    64    62   ar
    87    77    78    2
    88    52    51    2
    89    63    61   ar
    90    69    70    1
    91    69    68    1
    92    62    61   ar
    93    70    71    2
    94    61    60    1
    95    60    57    1
    96    56    57    1
    97    57    58    1
    98    58    59    2
