@<TRIPOS>MOLECULE
tmp/5kvmA03.pdb
 113 108 0 0 0
SMALL
GASTEIGER

@<TRIPOS>ATOM
      1  N         42.4220   14.8920   -3.9950 N.3   200  SER200     -0.1217
      2  CA        43.3380   15.6960   -4.7870 C.3   200  SER200      0.1889
      3  C         44.3760   16.3400   -3.8800 C.2   200  SER200      0.2288
      4  O         44.0490   16.8330   -2.7960 O.2   200  SER200     -0.2866
      5  CB        42.5920   16.7800   -5.5710 C.3   200  SER200      0.2089
      6  OG        41.6970   16.2150   -6.5110 O.3   200  SER200     -0.2183
      7  N         46.7060   19.3410   -4.2370 N.3   202  GLU202     -0.1231
      8  CA        46.9120   20.5110   -5.0880 C.3   202  GLU202      0.1699
      9  C         48.0610   21.3410   -4.5280 C.2   202  GLU202      0.2592
     10  O         47.8970   22.0660   -3.5430 O.2   202  GLU202     -0.2718
     11  CB        45.6280   21.3260   -5.1870 C.3   202  GLU202      0.0402
     12  CG        44.5440   20.6460   -6.0050 C.3   202  GLU202      0.1161
     13  CD        43.1490   21.0400   -5.5720 C.2   202  GLU202      0.3649
     14  OE1       42.8850   21.0300   -4.3510 O.co2 202  GLU202     -0.2457
     15  OE2       42.3190   21.3630   -6.4500 O.co2 202  GLU202     -0.2457
     16  N         49.2210   21.2470   -5.1700 N.am  203  GLU203     -0.1979
     17  CA        50.4000   22.0010   -4.7810 C.3   203  GLU203      0.1602
     18  C         50.8340   22.9180   -5.9160 C.2   203  GLU203      0.2287
     19  O         50.3340   22.8430   -7.0430 O.2   203  GLU203     -0.2864
     20  CB        51.5560   21.0710   -4.3900 C.3   203  GLU203      0.0415
     21  CG        51.2440   20.1740   -3.2100 C.3   203  GLU203      0.1163
     22  CD        50.7550   20.9510   -2.0010 C.2   203  GLU203      0.3649
     23  OE1       51.3050   22.0390   -1.7170 O.co2 203  GLU203     -0.2457
     24  OE2       49.8040   20.4760   -1.3470 O.co2 203  GLU203     -0.2457
     25  N         49.8550   18.6170   -9.1810 N.3   207  ASN207     -0.1240
     26  CA        48.4820   18.3510   -8.7560 C.3   207  ASN207      0.1653
     27  C         48.2020   16.8760   -8.9920 C.2   207  ASN207      0.2266
     28  O         48.0240   16.4570  -10.1400 O.2   207  ASN207     -0.2867
     29  CB        47.4710   19.2190   -9.5140 C.3   207  ASN207      0.1155
     30  CG        46.0410   18.9390   -9.1050 C.2   207  ASN207      0.2627
     31  OD1       45.7950   18.3260   -8.0670 O.2   207  ASN207     -0.2716
     32  ND2       45.0870   19.3930   -9.9160 N.am  207  ASN207     -0.0877
     33  N         45.7980   13.5420   -8.2240 N.3   209  THR209     -0.1218
     34  CA        44.4020   13.2340   -7.9490 C.3   209  THR209      0.1862
     35  C         44.1830   11.7290   -8.0200 C.2   209  THR209      0.2287
     36  O         44.7100   11.0600   -8.9130 O.2   209  THR209     -0.2866
     37  CB        43.4790   13.9460   -8.9440 C.3   209  THR209      0.1770
     38  OG1       43.7470   15.3530   -8.9160 O.3   209  THR209     -0.2211
     39  CG2       42.0210   13.7070   -8.5910 C.3   209  THR209      0.0375
     40  N         41.2690    8.7120   -8.0610 N.3   211  TRP211     -0.1241
     41  CA        39.8840    8.3020   -8.2540 C.3   211  TRP211      0.1605
     42  C         39.7030    6.8720   -7.7650 C.2   211  TRP211      0.2264
     43  O         40.4420    5.9760   -8.1790 O.2   211  TRP211     -0.2867
     44  CB        39.4870    8.3790   -9.7290 C.3   211  TRP211      0.0550
     45  CG        39.1910    9.7460  -10.2490 C.ar  211  TRP211      0.0003
     46  CD1       37.9730   10.3500  -10.3060 C.ar  211  TRP211      0.0946
     47  CD2       40.1250   10.6700  -10.8190 C.ar  211  TRP211      0.0152
     48  NE1       38.0890   11.5990  -10.8630 N.ar  211  TRP211     -0.2442
     49  CE2       39.4020   11.8200  -11.1870 C.ar  211  TRP211      0.0810
     50  CE3       41.5030   10.6400  -11.0450 C.ar  211  TRP211      0.0012
     51  CZ2       40.0100   12.9300  -11.7690 C.ar  211  TRP211      0.0191
     52  CZ3       42.1030   11.7400  -11.6220 C.ar  211  TRP211      0.0001
     53  CH2       41.3590   12.8700  -11.9790 C.ar  211  TRP211      0.0015
     54  N         37.8120   13.8880  -18.3380 N.3   224  ILE224     -0.1231
     55  CA        38.4630   14.6950  -17.3110 C.3   224  ILE224      0.1692
     56  C         38.7880   16.0620  -17.9000 C.2   224  ILE224      0.2592
     57  O         39.2280   16.1620  -19.0510 O.2   224  ILE224     -0.2718
     58  CB        39.7390   14.0040  -16.7750 C.3   224  ILE224      0.0266
     59  CG1       39.4390   13.1910  -15.5100 C.3   224  ILE224      0.0019
     60  CG2       40.8550   15.0100  -16.5150 C.3   224  ILE224      0.0020
     61  CD1       38.7160   11.8860  -15.7610 C.3   224  ILE224      0.0001
     62  N         38.5680   17.1170  -17.1120 N.am  225  HIS225     -0.1962
     63  CA        38.8250   18.4860  -17.5390 C.3   225  HIS225      0.1787
     64  C         39.5840   19.2290  -16.4490 C.2   225  HIS225      0.2621
     65  O         39.4910   18.8920  -15.2650 O.2   225  HIS225     -0.2715
     66  CB        37.5200   19.2290  -17.8700 C.3   225  HIS225      0.0785
     67  CG        36.4810   18.3670  -18.5160 C.ar  225  HIS225      0.0821
     68  ND1       35.5240   17.6890  -17.7920 N.ar  225  HIS225     -0.2267
     69  CD2       36.2540   18.0650  -19.8160 C.ar  225  HIS225      0.1154
     70  CE1       34.7490   17.0110  -18.6180 C.ar  225  HIS225      0.1986
     71  NE2       35.1700   17.2210  -19.8520 N.ar  225  HIS225     -0.2212
     72  N         40.3400   20.2450  -16.8590 N.am  226  SER226     -0.1936
     73  CA        41.1740   21.0020  -15.9380 C.3   226  SER226      0.2055
     74  C         41.0240   22.4910  -16.2140 C.2   226  SER226      0.2642
     75  O         40.5400   22.9000  -17.2720 O.2   226  SER226     -0.2714
     76  CB        42.6440   20.6090  -16.0650 C.3   226  SER226      0.2130
     77  OG        43.2000   21.1720  -17.2400 O.3   226  SER226     -0.2179
     78  N         41.4770   23.3030  -15.2590 N.am  227  GLN227     -0.1976
     79  CA        41.4130   24.7540  -15.3730 C.3   227  GLN227      0.1601
     80  C         42.7210   25.3710  -14.8890 C.2   227  GLN227      0.2287
     81  O         43.1680   25.0800  -13.7760 O.2   227  GLN227     -0.2864
     82  CB        40.2250   25.3120  -14.5820 C.3   227  GLN227      0.0394
     83  CG        39.8180   26.6900  -15.0300 C.3   227  GLN227      0.0908
     84  CD        40.0550   26.8790  -16.5160 C.2   227  GLN227      0.2608
     85  OE1       40.9500   27.6190  -16.9240 O.2   227  GLN227     -0.2717
     86  NE2       39.2610   26.1980  -17.3350 N.am  227  GLN227     -0.0878
     87  N         43.5680   21.5770  -20.3510 N.3   238  TYR238     -0.1241
     88  CA        43.6550   20.2490  -20.9410 C.3   238  TYR238      0.1605
     89  C         42.3750   19.4720  -20.6650 C.2   238  TYR238      0.2264
     90  O         41.6120   19.7900  -19.7490 O.2   238  TYR238     -0.2867
     91  CB        44.8830   19.4690  -20.4350 C.3   238  TYR238      0.0534
     92  CG        44.8530   18.9650  -19.0020 C.ar  238  TYR238     -0.0201
     93  CD1       44.0870   17.8620  -18.6390 C.ar  238  TYR238     -0.0009
     94  CD2       45.6440   19.5580  -18.0260 C.ar  238  TYR238     -0.0009
     95  CE1       44.0740   17.3960  -17.3380 C.ar  238  TYR238      0.0417
     96  CE2       45.6410   19.0950  -16.7200 C.ar  238  TYR238      0.0417
     97  CZ        44.8540   18.0140  -16.3830 C.ar  238  TYR238      0.1957
     98  OH        44.8440   17.5460  -15.0870 O.3   238  TYR238     -0.2866
     99  N         45.9460   10.6040  -11.8520 N.3   263  VAL263     -0.1245
    100  CA        46.3440   11.6730  -12.7590 C.3   263  VAL263      0.1561
    101  C         47.2630   12.5990  -11.9760 C.2   263  VAL263      0.2260
    102  O         46.8180   13.2940  -11.0530 O.2   263  VAL263     -0.2867
    103  CB        45.1460   12.4380  -13.3410 C.3   263  VAL263      0.0252
    104  CG1       45.6280   13.6480  -14.1240 C.3   263  VAL263      0.0019
    105  CG2       44.3250   11.5320  -14.2470 C.3   263  VAL263      0.0019
    106  N         49.4770   15.7690  -12.4740 N.3   265  ASP265     -0.1239
    107  CA        49.5810   16.8780  -13.4140 C.3   265  ASP265      0.1674
    108  C         50.7660   17.7530  -13.0190 C.2   265  ASP265      0.2266
    109  O         50.7290   18.4320  -11.9880 O.2   265  ASP265     -0.2867
    110  CB        48.2730   17.6700  -13.4280 C.3   265  ASP265      0.1410
    111  CG        48.3580   18.9480  -14.2430 C.2   265  ASP265      0.3668
    112  OD1       49.2930   19.1030  -15.0580 O.co2 265  ASP265     -0.2456
    113  OD2       47.4700   19.8080  -14.0690 O.co2 265  ASP265     -0.2456
@<TRIPOS>BOND
     1    88    89    1
     2    88    91    1
     3    88    87    1
     4    89    90    2
     5    91    92    1
     6    71    69   ar
     7    71    70   ar
     8    69    67   ar
     9    57    56    2
    10    92    93   ar
    11    92    94   ar
    12    93    95   ar
    13    70    68   ar
    14    67    66    1
    15    67    68   ar
    16    54    55    1
    17    94    96   ar
    18    56    55    1
    19    56    62   am
    20    66    63    1
    21    63    62    1
    22    63    64    1
    23    95    97   ar
    24    86    84   am
    25    55    58    1
    26    75    74    2
    27    77    76    1
    28    85    84    2
    29    72    64   am
    30    72    73    1
    31    58    60    1
    32    58    59    1
    33    96    97   ar
    34    84    83    1
    35    64    65    2
    36    97    98    1
    37    74    73    1
    38    74    78   am
    39    76    73    1
    40    61    59    1
    41    79    78    1
    42    79    80    1
    43    79    82    1
    44   112   111   ar
    45    83    82    1
    46    80    81    2
    47   105   103    1
    48   111   113   ar
    49   111   110    1
    50   104   103    1
    51   110   107    1
    52   107   108    1
    53   107   106    1
    54   103   100    1
    55   108   109    2
    56   100   101    1
    57   100    99    1
    58    53    51   ar
    59    53    52   ar
    60   101   102    2
    61    51    49   ar
    62    52    50   ar
    63    49    48   ar
    64    49    47   ar
    65    50    47   ar
    66    48    46   ar
    67    47    45   ar
    68    46    45   ar
    69    45    44    1
    70    28    27    2
    71    32    30   am
    72    44    41    1
    73    29    30    1
    74    29    26    1
    75    25    26    1
    76    30    31    2
    77    27    26    1
    78    37    38    1
    79    37    39    1
    80    37    34    1
    81    36    35    2
    82    41    40    1
    83    41    42    1
    84    33    34    1
    85    43    42    2
    86    35    34    1
    87    19    18    2
    88     6     5    1
    89    15    13   ar
    90    12    13    1
    91    12    11    1
    92    18    17    1
    93    13    14   ar
    94     5     2    1
    95    11     8    1
    96    16    17    1
    97    16     9   am
    98     8     9    1
    99     8     7    1
   100     2     1    1
   101     2     3    1
   102    17    20    1
   103     9    10    2
   104    20    21    1
   105     3     4    2
   106    21    22    1
   107    22    23   ar
   108    22    24   ar
