@<TRIPOS>MOLECULE
tmp/5kvtA00.pdb
 216 211 0 0 0
SMALL
GASTEIGER

@<TRIPOS>ATOM
      1  N         21.9820  -38.5840    1.8060 N.3    16  LEU16      -0.1231
      2  CA        22.1780  -37.3640    2.5540 C.3    16  LEU16       0.1693
      3  C         21.6180  -36.1470    1.7660 C.2    16  LEU16       0.2593
      4  O         21.2150  -35.1750    2.3450 O.2    16  LEU16      -0.2718
      5  CB        23.6540  -37.1570    2.8500 C.3    16  LEU16       0.0284
      6  CG        24.3000  -38.0180    3.9180 C.3    16  LEU16       0.0019
      7  CD1       25.8100  -37.8690    3.8390 C.3    16  LEU16       0.0001
      8  CD2       23.8110  -37.6490    5.3120 C.3    16  LEU16       0.0001
      9  N         21.6220  -36.2220    0.4500 N.am   17  GLY17      -0.1942
     10  CA        21.1310  -35.1650   -0.3780 C.3    17  GLY17       0.2014
     11  C         21.5350  -35.4090   -1.8040 C.2    17  GLY17       0.2638
     12  O         22.2430  -36.3710   -2.1040 O.2    17  GLY17      -0.2714
     13  N         21.0860  -34.5240   -2.6800 N.am   18  GLU18      -0.1977
     14  CA        21.3480  -34.6160   -4.1150 C.3    18  GLU18       0.1602
     15  C         21.9850  -33.3220   -4.6160 C.2    18  GLU18       0.2287
     16  O         21.9430  -32.2970   -3.9420 O.2    18  GLU18      -0.2864
     17  CB        20.0350  -34.8820   -4.8220 C.3    18  GLU18       0.0415
     18  CG        20.1520  -35.2840   -6.2740 C.3    18  GLU18       0.1163
     19  CD        18.8610  -35.8440   -6.8390 C.2    18  GLU18       0.3649
     20  OE1       18.0890  -36.4840   -6.0850 O.co2  18  GLU18      -0.2457
     21  OE2       18.6280  -35.6630   -8.0570 O.co2  18  GLU18      -0.2457
     22  N         26.2920  -33.0760   -9.4310 N.3    21  PHE21      -0.1241
     23  CA        27.0990  -34.3090   -9.3900 C.3    21  PHE21       0.1605
     24  C         26.2660  -35.6090   -9.4160 C.2    21  PHE21       0.2264
     25  O         26.4710  -36.4890  -10.2540 O.2    21  PHE21      -0.2867
     26  CB        28.0550  -34.3190   -8.1580 C.3    21  PHE21       0.0534
     27  CG        27.6420  -33.4060   -6.9890 C.ar   21  PHE21      -0.0203
     28  CD1       26.8090  -33.8690   -5.9630 C.ar   21  PHE21      -0.0042
     29  CD2       28.1380  -32.0900   -6.8940 C.ar   21  PHE21      -0.0042
     30  CE1       26.4570  -33.0430   -4.8960 C.ar   21  PHE21      -0.0003
     31  CE2       27.7870  -31.2630   -5.8270 C.ar   21  PHE21      -0.0003
     32  CZ        26.9460  -31.7410   -4.8260 C.ar   21  PHE21      -0.0000
     33  N         24.5520  -37.9480   -2.7660 N.3    24  VAL24      -0.1245
     34  CA        25.5660  -38.2260   -1.7720 C.3    24  VAL24       0.1561
     35  C         24.8890  -39.0440   -0.7040 C.2    24  VAL24       0.2260
     36  O         23.7990  -38.6760   -0.2330 O.2    24  VAL24      -0.2867
     37  CB        26.1090  -36.9920   -1.0510 C.3    24  VAL24       0.0252
     38  CG1       27.3140  -37.3880   -0.2030 C.3    24  VAL24       0.0019
     39  CG2       26.5080  -35.9130   -2.0300 C.3    24  VAL24       0.0019
     40  N         31.0820  -40.7630    3.4860 N.3    38  ALA38      -0.1245
     41  CA        30.2330  -40.1280    2.5070 C.3    38  ALA38       0.1562
     42  C         30.6070  -40.6790    1.1580 C.2    38  ALA38       0.2260
     43  O         31.7790  -40.8100    0.8270 O.2    38  ALA38      -0.2867
     44  CB        30.3950  -38.6130    2.5560 C.3    38  ALA38       0.0290
     45  N         29.7290  -40.1200   -2.8220 N.3    40  LYS40      -0.1245
     46  CA        29.1180  -39.3860   -3.9290 C.3    40  LYS40       0.1561
     47  C         28.9950  -40.2980   -5.1240 C.2    40  LYS40       0.2260
     48  O         29.9740  -40.8770   -5.5820 O.2    40  LYS40      -0.2867
     49  CB        29.9350  -38.1580   -4.2960 C.3    40  LYS40       0.0271
     50  CG        29.5290  -37.5080   -5.6090 C.3    40  LYS40       0.0035
     51  CD        29.9750  -36.0530   -5.6780 C.3    40  LYS40       0.0206
     52  CE        31.4060  -35.8340   -5.2160 C.3    40  LYS40       0.1093
     53  NZ        31.9250  -34.5410   -5.7340 N.3    40  LYS40      -0.1314
     54  N         38.4780  -31.6950    2.5340 N.3    69  VAL69      -0.1245
     55  CA        37.8420  -32.9430    2.8660 C.3    69  VAL69       0.1561
     56  C         38.7610  -34.0900    2.4190 C.2    69  VAL69       0.2260
     57  O         39.2010  -34.1110    1.2850 O.2    69  VAL69      -0.2867
     58  CB        36.4520  -33.0690    2.2390 C.3    69  VAL69       0.0252
     59  CG1       36.5170  -33.2390    0.7360 C.3    69  VAL69       0.0019
     60  CG2       35.6990  -34.2360    2.8430 C.3    69  VAL69       0.0019
     61  N         34.5100  -40.5630    0.7220 N.3    85  PHE85      -0.1227
     62  CA        35.0470  -39.4390    1.4930 C.3    85  PHE85       0.1736
     63  C         34.8510  -39.6240    2.9980 C.2    85  PHE85       0.2595
     64  O         33.9770  -40.3780    3.4340 O.2    85  PHE85      -0.2718
     65  CB        34.2780  -38.1540    1.1350 C.3    85  PHE85       0.0547
     66  CG        34.4710  -37.6500   -0.2830 C.ar   85  PHE85      -0.0202
     67  CD1       35.4700  -36.7480   -0.5830 C.ar   85  PHE85      -0.0042
     68  CD2       33.6140  -38.0260   -1.2860 C.ar   85  PHE85      -0.0042
     69  CE1       35.6200  -36.2390   -1.8630 C.ar   85  PHE85      -0.0003
     70  CE2       33.7670  -37.5290   -2.5780 C.ar   85  PHE85      -0.0003
     71  CZ        34.7760  -36.6290   -2.8610 C.ar   85  PHE85      -0.0000
     72  N         35.6200  -38.8980    3.8000 N.am   86  GLU86      -0.1965
     73  CA        35.2700  -38.8110    5.2110 C.3    86  GLU86       0.1733
     74  C         33.9070  -38.1180    5.3080 C.2    86  GLU86       0.2616
     75  O         33.4990  -37.4330    4.3770 O.2    86  GLU86      -0.2715
     76  CB        36.3030  -38.0370    6.0240 C.3    86  GLU86       0.0429
     77  CG        36.4640  -36.5940    5.6030 C.3    86  GLU86       0.1163
     78  CD        37.2350  -35.7970    6.6050 C.2    86  GLU86       0.3649
     79  OE1       37.1630  -36.0990    7.8040 O.co2  86  GLU86      -0.2457
     80  OE2       37.9210  -34.8360    6.2050 O.co2  86  GLU86      -0.2457
     81  N         33.2420  -38.2950    6.4490 N.am   87  TYR87      -0.1960
     82  CA        31.8930  -37.8150    6.6910 C.3    87  TYR87       0.1771
     83  C         31.9400  -36.5250    7.4750 C.2    87  TYR87       0.2619
     84  O         32.5420  -36.4580    8.5470 O.2    87  TYR87      -0.2715
     85  CB        31.1300  -38.8740    7.4520 C.3    87  TYR87       0.0574
     86  CG        29.7010  -38.5510    7.8360 C.ar   87  TYR87      -0.0198
     87  CD1       28.7720  -38.0840    6.8840 C.ar   87  TYR87      -0.0009
     88  CD2       29.2570  -38.7580    9.1550 C.ar   87  TYR87      -0.0009
     89  CE1       27.4520  -37.8110    7.2430 C.ar   87  TYR87       0.0417
     90  CE2       27.9470  -38.4840    9.5200 C.ar   87  TYR87       0.0417
     91  CZ        27.0470  -38.0130    8.5720 C.ar   87  TYR87       0.1957
     92  OH        25.7610  -37.7460    8.9490 O.3    87  TYR87      -0.2866
     93  N         31.3130  -35.4880    6.9290 N.am   88  MET88      -0.1963
     94  CA        31.2150  -34.2060    7.6040 C.3    88  MET88       0.1736
     95  C         29.7420  -34.1050    7.9730 C.2    88  MET88       0.2616
     96  O         28.9040  -33.9690    7.0880 O.2    88  MET88      -0.2715
     97  CB        31.6290  -33.1170    6.6390 C.3    88  MET88       0.0427
     98  CG        32.9670  -33.3500    5.9620 C.3    88  MET88       0.0599
     99  SD        34.3020  -33.1270    7.1140 S.3    88  MET88      -0.1393
    100  CE        34.4170  -31.3500    7.2190 C.3    88  MET88       0.0692
    101  N         29.4090  -34.2180    9.2560 N.am   89  ARG89      -0.1963
    102  CA        27.9860  -34.4200    9.6410 C.3    89  ARG89       0.1729
    103  C         27.0820  -33.1830    9.5030 C.2    89  ARG89       0.2616
    104  O         25.8910  -33.3120    9.3110 O.2    89  ARG89      -0.2715
    105  CB        27.8510  -35.0210   11.0520 C.3    89  ARG89       0.0348
    106  CG        28.3890  -34.1530   12.1910 C.3    89  ARG89       0.0492
    107  CD        27.5810  -34.3000   13.4850 C.3    89  ARG89       0.2205
    108  NE        27.5900  -35.6740   13.9920 N.pl3  89  ARG89      -0.0865
    109  CZ        26.5780  -36.5450   13.9400 C.cat  89  ARG89       0.5346
    110  NH1       26.7560  -37.7640   14.4320 N.pl3  89  ARG89       0.1354
    111  NH2       25.3950  -36.2240   13.4150 N.pl3  89  ARG89       0.1354
    112  N         27.6380  -31.9890    9.5800 N.am   90  HIS90      -0.1959
    113  CA        26.8280  -30.7670    9.4570 C.3    90  HIS90       0.1787
    114  C         26.6310  -30.2190    8.0130 C.2    90  HIS90       0.2621
    115  O         26.0790  -29.1410    7.8360 O.2    90  HIS90      -0.2715
    116  CB        27.3930  -29.7020   10.3900 C.3    90  HIS90       0.0785
    117  CG        27.3480  -30.1060   11.8250 C.ar   90  HIS90       0.0821
    118  ND1       28.3420  -29.7850   12.7260 N.ar   90  HIS90      -0.2267
    119  CD2       26.4340  -30.8250   12.5130 C.ar   90  HIS90       0.1154
    120  CE1       28.0300  -30.2810   13.9130 C.ar   90  HIS90       0.1986
    121  NE2       26.8830  -30.9260   13.8050 N.ar   90  HIS90      -0.2212
    122  N         27.0760  -30.9640    7.0020 N.am   91  GLY91      -0.1940
    123  CA        26.7770  -30.6610    5.5840 C.3    91  GLY91       0.2014
    124  C         27.4820  -29.4420    5.0150 C.2    91  GLY91       0.2638
    125  O         28.5420  -29.0310    5.5250 O.2    91  GLY91      -0.2714
    126  N         26.8750  -28.8420    3.9790 N.am   92  ASP92      -0.1971
    127  CA        27.4760  -27.6760    3.2990 C.3    92  ASP92       0.1709
    128  C         27.4790  -26.3980    4.1420 C.2    92  ASP92       0.2293
    129  O         26.6000  -26.1700    4.9490 O.2    92  ASP92      -0.2864
    130  CB        26.8760  -27.4580    1.8910 C.3    92  ASP92       0.1436
    131  CG        25.5770  -26.6530    1.8800 C.2    92  ASP92       0.3671
    132  OD1       25.6390  -25.4030    1.8550 O.co2  92  ASP92      -0.2456
    133  OD2       24.4890  -27.2750    1.8270 O.co2  92  ASP92      -0.2456
    134  N         24.2200  -23.7210    3.8030 N.3    95  ARG95      -0.1231
    135  CA        23.0070  -24.0520    4.5350 C.3    95  ARG95       0.1694
    136  C         23.1990  -23.9240    6.0660 C.2    95  ARG95       0.2592
    137  O         22.2930  -23.5250    6.8020 O.2    95  ARG95      -0.2718
    138  CB        22.5440  -25.4610    4.1860 C.3    95  ARG95       0.0321
    139  CG        21.1450  -25.8330    4.7110 C.3    95  ARG95       0.0489
    140  CD        20.9690  -27.3530    4.6580 C.3    95  ARG95       0.2205
    141  NE        19.6170  -27.8230    4.9630 N.pl3  95  ARG95      -0.0865
    142  CZ        19.0620  -27.9030    6.1820 C.cat  95  ARG95       0.5346
    143  NH1       19.7210  -27.5300    7.2890 N.pl3  95  ARG95       0.1354
    144  NH2       17.8130  -28.3600    6.2950 N.pl3  95  ARG95       0.1354
    145  N         24.3950  -24.2630    6.5180 N.am   96  PHE96      -0.1976
    146  CA        24.7480  -24.2160    7.9070 C.3    96  PHE96       0.1639
    147  C         24.7410  -22.7580    8.3790 C.2    96  PHE96       0.2290
    148  O         24.2410  -22.4750    9.4360 O.2    96  PHE96      -0.2864
    149  CB        26.1270  -24.8650    8.1250 C.3    96  PHE96       0.0560
    150  CG        26.5590  -24.9270    9.5820 C.ar   96  PHE96      -0.0200
    151  CD1       27.2630  -23.8680   10.1750 C.ar   96  PHE96      -0.0042
    152  CD2       26.2740  -26.0530   10.3680 C.ar   96  PHE96      -0.0042
    153  CE1       27.6620  -23.9110   11.5230 C.ar   96  PHE96      -0.0003
    154  CE2       26.6800  -26.1020   11.7170 C.ar   96  PHE96      -0.0003
    155  CZ        27.3670  -25.0200   12.2870 C.ar   96  PHE96      -0.0000
    156  N         20.9560  -21.4860    8.5430 N.3    99  SER99      -0.1202
    157  CA        20.1110  -22.1400    9.5040 C.3    99  SER99       0.2020
    158  C         20.5550  -21.8400   10.9330 C.2    99  SER99       0.2618
    159  O         19.7870  -22.0180   11.8670 O.2    99  SER99      -0.2717
    160  CB        20.1560  -23.6290    9.2460 C.3    99  SER99       0.2103
    161  OG        21.4760  -24.0590    9.4240 O.3    99  SER99      -0.2182
    162  N         21.7980  -21.3890   11.0770 N.am  100  HIS100     -0.1975
    163  CA        22.3720  -21.0190   12.3570 C.3   100  HIS100      0.1656
    164  C         22.6630  -19.5110   12.4020 C.2   100  HIS100      0.2291
    165  O         23.5580  -19.0630   13.1080 O.2   100  HIS100     -0.2864
    166  CB        23.6080  -21.8780   12.6510 C.3   100  HIS100      0.0771
    167  CG        23.3280  -23.3540   12.7010 C.ar  100  HIS100      0.0820
    168  ND1       22.9750  -24.0090   13.8620 N.ar  100  HIS100     -0.2267
    169  CD2       23.3520  -24.3070   11.7380 C.ar  100  HIS100      0.1154
    170  CE1       22.7920  -25.2960   13.6140 C.ar  100  HIS100      0.1986
    171  NE2       23.0080  -25.5040   12.3300 N.ar  100  HIS100     -0.2212
    172  N         29.0390  -22.6720   -0.5150 N.3   150  ARG150     -0.1231
    173  CA        28.3680  -23.8920   -1.0020 C.3   150  ARG150      0.1694
    174  C         29.3580  -25.0430   -1.2980 C.2   150  ARG150      0.2592
    175  O         28.9640  -26.1770   -1.4450 O.2   150  ARG150     -0.2718
    176  CB        27.5410  -23.6260   -2.2560 C.3   150  ARG150      0.0321
    177  CG        28.3600  -23.1860   -3.4440 C.3   150  ARG150      0.0489
    178  CD        27.5520  -23.0150   -4.7320 C.3   150  ARG150      0.2205
    179  NE        28.4760  -22.4730   -5.7260 N.pl3 150  ARG150     -0.0865
    180  CZ        28.7910  -21.1860   -5.8290 C.cat 150  ARG150      0.5346
    181  NH1       28.2220  -20.2800   -5.0370 N.pl3 150  ARG150      0.1354
    182  NH2       29.6680  -20.7900   -6.7410 N.pl3 150  ARG150      0.1354
    183  N         30.6300  -24.7430   -1.4320 N.am  151  ASN151     -0.1960
    184  CA        31.6150  -25.7700   -1.7440 C.3   151  ASN151      0.1819
    185  C         32.5230  -26.0370   -0.5720 C.2   151  ASN151      0.2621
    186  O         33.5770  -26.6180   -0.7380 O.2   151  ASN151     -0.2715
    187  CB        32.4420  -25.3650   -2.9680 C.3   151  ASN151      0.1195
    188  CG        31.6390  -25.3910   -4.2470 C.2   151  ASN151      0.2630
    189  OD1       30.6390  -26.0980   -4.3660 O.2   151  ASN151     -0.2716
    190  ND2       32.0820  -24.6220   -5.2200 N.am  151  ASN151     -0.0877
    191  N         32.1110  -25.5980    0.6090 N.am  152  CYS152     -0.1954
    192  CA        32.7500  -25.9920    1.8560 C.3   152  CYS152      0.1843
    193  C         31.8420  -26.9340    2.6500 C.2   152  CYS152      0.2625
    194  O         30.6290  -26.9620    2.4300 O.2   152  CYS152     -0.2714
    195  CB        33.0460  -24.7870    2.6870 C.3   152  CYS152      0.0997
    196  SG        34.2020  -23.7970    1.8040 S.3   152  CYS152     -0.0797
    197  N         32.4520  -27.7100    3.5470 N.am  153  LEU153     -0.1977
    198  CA        31.7090  -28.5900    4.4170 C.3   153  LEU153      0.1596
    199  C         31.9970  -28.2950    5.8630 C.2   153  LEU153      0.2287
    200  O         33.0270  -27.7140    6.1940 O.2   153  LEU153     -0.2864
    201  CB        32.0740  -30.0260    4.1370 C.3   153  LEU153      0.0297
    202  CG        31.6180  -30.5730    2.8020 C.3   153  LEU153      0.0022
    203  CD1       32.4830  -31.7850    2.4980 C.3   153  LEU153      0.0001
    204  CD2       30.1470  -30.9310    2.8080 C.3   153  LEU153      0.0001
    205  N         35.3920  -28.7080    0.2300 N.3   163  GLY163     -0.1210
    206  CA        34.9320  -30.0460   -0.1360 C.3   163  GLY163      0.1956
    207  C         34.6080  -30.3930   -1.5750 C.2   163  GLY163      0.2611
    208  O         34.2150  -31.5350   -1.8820 O.2   163  GLY163     -0.2717
    209  N         34.7630  -29.4310   -2.4600 N.am  164  ASP164     -0.1973
    210  CA        34.3770  -29.6070   -3.8510 C.3   164  ASP164      0.1709
    211  C         35.1820  -28.6220   -4.6770 C.2   164  ASP164      0.2293
    212  O         35.6120  -27.5660   -4.1920 O.2   164  ASP164     -0.2864
    213  CB        32.8670  -29.3790   -4.0160 C.3   164  ASP164      0.1436
    214  CG        32.3200  -29.8850   -5.3410 C.2   164  ASP164      0.3671
    215  OD1       32.4680  -29.1830   -6.3710 O.co2 164  ASP164     -0.2456
    216  OD2       31.7050  -30.9770   -5.3330 O.co2 164  ASP164     -0.2456
@<TRIPOS>BOND
     1    25    24    2
     2    22    23    1
     3    24    23    1
     4    23    26    1
     5    26    27    1
     6    21    19   ar
     7    27    29   ar
     8    27    28   ar
     9    29    31   ar
    10    19    18    1
    11    19    20   ar
    12   182   180    1
    13   215   214   ar
    14    18    17    1
    15    28    30   ar
    16   180   179    2
    17   180   181    1
    18    31    32   ar
    19    53    52    1
    20   179   178    1
    21    51    50    1
    22    51    52    1
    23    50    49    1
    24    48    47    2
    25   214   216   ar
    26   214   213    1
    27   190   188   am
    28    47    46    1
    29    30    32   ar
    30    17    14    1
    31   178   177    1
    32   211   212    2
    33   211   210    1
    34    15    14    1
    35    15    16    2
    36   189   188    2
    37    49    46    1
    38   188   187    1
    39    14    13    1
    40   213   210    1
    41    46    45    1
    42   210   209    1
    43   177   176    1
    44   187   184    1
    45    71    70   ar
    46    71    69   ar
    47    33    34    1
    48    13    11   am
    49    70    68   ar
    50   209   207   am
    51   176   173    1
    52    12    11    2
    53    39    37    1
    54   208   207    2
    55    69    67   ar
    56    11    10    1
    57    34    37    1
    58    34    35    1
    59   184   183    1
    60   184   185    1
    61   207   206    1
    62   175   174    2
    63   183   174   am
    64   174   173    1
    65    68    66   ar
    66    37    38    1
    67   173   172    1
    68   186   185    2
    69    35    36    2
    70    67    66   ar
    71   185   191   am
    72    10     9    1
    73    66    65    1
    74   206   205    1
    75     9     3   am
    76   191   192    1
    77    61    62    1
    78    59    58    1
    79    43    42    2
    80    65    62    1
    81    42    41    1
    82    57    56    2
    83    62    63    1
    84     3     4    2
    85     3     2    1
    86   196   195    1
    87     1     2    1
    88   133   131   ar
    89   132   131   ar
    90   192   193    1
    91   192   195    1
    92   131   130    1
    93   130   127    1
    94    58    60    1
    95    58    55    1
    96    56    55    1
    97   194   193    2
    98   203   202    1
    99    41    44    1
   100    41    40    1
   101    54    55    1
   102     2     5    1
   103   193   197   am
   104   202   204    1
   105   202   201    1
   106     5     6    1
   107    63    64    2
   108    63    72   am
   109   127   126    1
   110   127   128    1
   111   197   198    1
   112    72    73    1
   113   134   135    1
   114     7     6    1
   115     6     8    1
   116   126   124   am
   117   201   198    1
   118   128   129    2
   119   138   135    1
   120   138   139    1
   121    75    74    2
   122   198   199    1
   123   135   136    1
   124   140   139    1
   125   140   141    1
   126   141   142    2
   127   124   125    2
   128   124   123    1
   129    73    74    1
   130    73    76    1
   131    74    81   am
   132   123   122    1
   133    77    76    1
   134    77    78    1
   135   199   200    2
   136    98    97    1
   137    98    99    1
   138   136   145   am
   139   136   137    2
   140   142   144    1
   141   142   143    1
   142    80    78   ar
   143    81    82    1
   144   145   146    1
   145    78    79   ar
   146    97    94    1
   147    82    85    1
   148    82    83    1
   149    87    89   ar
   150    87    86   ar
   151    93    83   am
   152    93    94    1
   153   122   114   am
   154    96    95    2
   155    99   100    1
   156    89    91   ar
   157    85    86    1
   158    83    84    2
   159    94    95    1
   160   115   114    2
   161    86    88   ar
   162   146   149    1
   163   146   147    1
   164    95   101   am
   165   114   113    1
   166   149   150    1
   167   147   148    2
   168   156   157    1
   169    91    92    1
   170    91    90   ar
   171    88    90   ar
   172   160   161    1
   173   160   157    1
   174   101   102    1
   175   104   103    2
   176   113   112    1
   177   113   116    1
   178   103   112   am
   179   103   102    1
   180   157   158    1
   181   150   151   ar
   182   150   152   ar
   183   102   105    1
   184   151   153   ar
   185   152   154   ar
   186   116   117    1
   187   158   162   am
   188   158   159    2
   189   105   106    1
   190   162   163    1
   191   153   155   ar
   192   154   155   ar
   193   169   171   ar
   194   169   167   ar
   195   117   119   ar
   196   117   118   ar
   197   106   107    1
   198   171   170   ar
   199   163   164    1
   200   163   166    1
   201   164   165    2
   202   119   121   ar
   203   166   167    1
   204   167   168   ar
   205   118   120   ar
   206   111   109    1
   207   107   108    1
   208   170   168   ar
   209   121   120   ar
   210   109   108    2
   211   109   110    1
