@<TRIPOS>MOLECULE
tmp/5kvuD01.pdb
 102 93 0 0 0
SMALL
GASTEIGER

@<TRIPOS>ATOM
      1  N         39.5620   47.3560    5.9620 N.3    83  ASN83      -0.1240
      2  CA        40.0260   47.9150    7.2220 C.3    83  ASN83       0.1653
      3  C         39.4020   47.1910    8.4110 C.2    83  ASN83       0.2266
      4  O         38.3240   46.6020    8.3010 O.2    83  ASN83      -0.2867
      5  CB        39.7240   49.4140    7.3000 C.3    83  ASN83       0.1155
      6  CG        38.2590   49.7010    7.5800 C.2    83  ASN83       0.2627
      7  OD1       37.4490   49.7980    6.6570 O.2    83  ASN83      -0.2716
      8  ND2       37.9110   49.8370    8.8590 N.am   83  ASN83      -0.0877
      9  N         37.3140   46.6090   11.5740 N.3    85  SER85      -0.1217
     10  CA        36.2500   47.0860   12.4420 C.3    85  SER85       0.1889
     11  C         36.6110   46.5790   13.8320 C.2    85  SER85       0.2288
     12  O         36.1770   45.5050   14.2470 O.2    85  SER85      -0.2866
     13  CB        34.8880   46.5400   12.0030 C.3    85  SER85       0.2089
     14  OG        34.5690   46.9430   10.6810 O.3    85  SER85      -0.2183
     15  N         32.4850   49.1740   13.0700 N.3   129  SER129     -0.1217
     16  CA        32.5500   49.5880   11.6760 C.3   129  SER129      0.1889
     17  C         32.3100   51.0860   11.5590 C.2   129  SER129      0.2288
     18  O         31.1660   51.5420   11.4970 O.2   129  SER129     -0.2866
     19  CB        31.5390   48.8180   10.8290 C.3   129  SER129      0.2089
     20  OG        31.7610   49.0610    9.4500 O.3   129  SER129     -0.2183
     21  N         33.3830   51.9700    6.7520 N.3   132  ASN132     -0.1240
     22  CA        32.4620   51.5500    5.6970 C.3   132  ASN132      0.1653
     23  C         31.0910   52.2460    5.6370 C.2   132  ASN132      0.2266
     24  O         30.6030   52.5330    4.5470 O.2   132  ASN132     -0.2867
     25  CB        32.2990   50.0240    5.6950 C.3   132  ASN132      0.1155
     26  CG        33.5740   49.2990    5.2830 C.2   132  ASN132      0.2627
     27  OD1       34.3470   49.7930    4.4560 O.2   132  ASN132     -0.2716
     28  ND2       33.7950   48.1190    5.8560 N.am  132  ASN132     -0.0877
     29  N         30.4380   54.1970    2.0880 N.3   136  ARG136     -0.1245
     30  CA        29.4450   53.5380    1.2390 C.3   136  ARG136      0.1563
     31  C         28.1950   54.3840    0.9860 C.2   136  ARG136      0.2260
     32  O         27.1410   54.1720    1.5970 O.2   136  ARG136     -0.2867
     33  CB        29.0730   52.1790    1.8270 C.3   136  ARG136      0.0307
     34  CG        30.2160   51.1730    1.7690 C.3   136  ARG136      0.0489
     35  CD        29.9220   49.9410    2.5960 C.3   136  ARG136      0.2205
     36  NE        30.9020   48.8840    2.3670 N.pl3 136  ARG136     -0.0865
     37  CZ        30.8870   47.7050    2.9800 C.cat 136  ARG136      0.5346
     38  NH1       29.9400   47.4310    3.8690 N.pl3 136  ARG136      0.1354
     39  NH2       31.8200   46.8020    2.7050 N.pl3 136  ARG136      0.1354
     40  N         28.4620   38.5140   14.3950 N.3   252  LYS252     -0.1245
     41  CA        29.2190   39.6830   13.9560 C.3   252  LYS252      0.1561
     42  C         29.2050   40.6920   15.0960 C.2   252  LYS252      0.2260
     43  O         28.2960   41.5140   15.1970 O.2   252  LYS252     -0.2867
     44  CB        28.6110   40.2940   12.6950 C.3   252  LYS252      0.0271
     45  CG        29.3860   41.4860   12.1510 C.3   252  LYS252      0.0035
     46  CD        28.7550   42.0060   10.8720 C.3   252  LYS252      0.0206
     47  CE        29.1770   41.1880    9.6610 C.3   252  LYS252      0.1093
     48  NZ        30.5600   41.5410    9.2170 N.3   252  LYS252     -0.1314
     49  N         30.8370   43.3690   15.9630 N.3   254  THR254     -0.1203
     50  CA        30.8370   44.8060   15.6790 C.3   254  THR254      0.1994
     51  C         29.5070   45.2910   15.0800 C.2   254  THR254      0.2617
     52  O         29.4900   45.9340   14.0290 O.2   254  THR254     -0.2717
     53  CB        32.0050   45.2220   14.7510 C.3   254  THR254      0.1784
     54  OG1       31.6310   45.0340   13.3770 O.3   254  THR254     -0.2211
     55  CG2       33.2660   44.4160   15.0710 C.3   254  THR254      0.0376
     56  N         28.4020   44.9920   15.7610 N.am  255  MET255     -0.1979
     57  CA        27.0760   45.3920   15.2980 C.3   255  MET255      0.1605
     58  C         26.1480   45.7000   16.4720 C.2   255  MET255      0.2287
     59  O         26.1620   45.0050   17.4910 O.2   255  MET255     -0.2864
     60  CB        26.4650   44.3000   14.4150 C.3   255  MET255      0.0413
     61  CG        25.7400   44.8130   13.1640 C.3   255  MET255      0.0598
     62  SD        26.8040   45.7230   12.0080 S.3   255  MET255     -0.1393
     63  CE        26.5130   44.8210   10.4920 C.3   255  MET255      0.0692
     64  N         30.4980   36.1040    8.7770 N.3   342  ASP342     -0.1239
     65  CA        30.5830   36.2400    7.3250 C.3   342  ASP342      0.1674
     66  C         31.8300   35.5720    6.7410 C.2   342  ASP342      0.2266
     67  O         31.8240   35.1100    5.6020 O.2   342  ASP342     -0.2867
     68  CB        30.5130   37.7130    6.9100 C.3   342  ASP342      0.1410
     69  CG        31.7120   38.5180    7.3880 C.2   342  ASP342      0.3668
     70  OD1       32.3500   38.1140    8.3880 O.co2 342  ASP342     -0.2456
     71  OD2       32.0150   39.5620    6.7640 O.co2 342  ASP342     -0.2456
     72  N         23.3090   48.5700    9.3610 N.3   412  TYR412     -0.1241
     73  CA        24.5900   49.2690    9.3680 C.3   412  TYR412      0.1605
     74  C         24.4480   50.7110    9.8250 C.2   412  TYR412      0.2264
     75  O         25.4330   51.3490   10.2010 O.2   412  TYR412     -0.2867
     76  CB        25.2480   49.2140    7.9870 C.3   412  TYR412      0.0534
     77  CG        25.8580   47.8700    7.6840 C.ar  412  TYR412     -0.0201
     78  CD1       25.0830   46.8340    7.1900 C.ar  412  TYR412     -0.0009
     79  CD2       27.2040   47.6310    7.9110 C.ar  412  TYR412     -0.0009
     80  CE1       25.6330   45.6020    6.9180 C.ar  412  TYR412      0.0417
     81  CE2       27.7590   46.4000    7.6430 C.ar  412  TYR412      0.0417
     82  CZ        26.9690   45.3880    7.1490 C.ar  412  TYR412      0.1957
     83  OH        27.5110   44.1510    6.8800 O.3   412  TYR412     -0.2866
     84  N         24.2460   41.0540    1.6130 N.3   540  ARG540     -0.1231
     85  CA        25.3250   41.3840    0.6840 C.3   540  ARG540      0.1694
     86  C         26.6520   40.8960    1.2490 C.2   540  ARG540      0.2592
     87  O         27.3970   40.1530    0.5880 O.2   540  ARG540     -0.2718
     88  CB        25.4020   42.8910    0.4310 C.3   540  ARG540      0.0321
     89  CG        26.7150   43.3320   -0.2240 C.3   540  ARG540      0.0489
     90  CD        27.0030   44.8110    0.0330 C.3   540  ARG540      0.2205
     91  NE        26.9260   45.1460    1.4540 N.pl3 540  ARG540     -0.0865
     92  CZ        27.9480   45.0520    2.2990 C.cat 540  ARG540      0.5346
     93  NH1       29.1350   44.6390    1.8710 N.pl3 540  ARG540      0.1354
     94  NH2       27.7850   45.3710    3.5740 N.pl3 540  ARG540      0.1354
     95  N         26.9330   41.3150    2.4810 N.am  541  ASP541     -0.1974
     96  CA        28.1330   40.8620    3.1800 C.3   541  ASP541      0.1709
     97  C         28.2590   39.3230    3.1790 C.2   541  ASP541      0.2293
     98  O         29.2270   38.7590    2.6270 O.2   541  ASP541     -0.2864
     99  CB        28.1330   41.4190    4.6080 C.3   541  ASP541      0.1436
    100  CG        29.3830   41.0550    5.3780 C.2   541  ASP541      0.3671
    101  OD1       30.5010   41.2940    4.8670 O.co2 541  ASP541     -0.2456
    102  OD2       29.2410   40.5290    6.5010 O.co2 541  ASP541     -0.2456
@<TRIPOS>BOND
     1    89    90    1
     2    89    88    1
     3    90    91    1
     4    88    85    1
     5    87    86    2
     6    85    86    1
     7    85    84    1
     8    31    30    1
     9    31    32    2
    10    30    33    1
    11    30    29    1
    12    86    95   am
    13    91    92    2
    14    34    33    1
    15    34    35    1
    16    93    92    1
    17    92    94    1
    18    36    35    1
    19    36    37    2
    20    95    96    1
    21    98    97    2
    22    39    37    1
    23    37    38    1
    24    97    96    1
    25    96    99    1
    26    27    26    2
    27    24    23    2
    28    99   100    1
    29   101   100   ar
    30    26    25    1
    31    26    28   am
    32   100   102   ar
    33    67    66    2
    34    23    22    1
    35    25    22    1
    36    22    21    1
    37     1     2    1
    38     7     6    2
    39    66    65    1
    40    71    69   ar
    41    83    82    1
    42    68    65    1
    43    68    69    1
    44    80    82   ar
    45    80    78   ar
    46    82    81   ar
    47    78    77   ar
    48     2     5    1
    49     2     3    1
    50     5     6    1
    51    65    64    1
    52    69    70   ar
    53     6     8   am
    54    81    79   ar
    55    77    79   ar
    56    77    76    1
    57    76    73    1
    58     4     3    2
    59    48    47    1
    60    72    73    1
    61    73    74    1
    62    20    19    1
    63    47    46    1
    64    74    75    2
    65    63    62    1
    66    14    13    1
    67    19    16    1
    68    46    45    1
    69    18    17    2
    70    17    16    1
    71     9    10    1
    72    16    15    1
    73    13    10    1
    74    62    61    1
    75    45    44    1
    76    10    11    1
    77    44    41    1
    78    61    60    1
    79    54    53    1
    80    11    12    2
    81    41    40    1
    82    41    42    1
    83    52    51    2
    84    60    57    1
    85    53    55    1
    86    53    50    1
    87    51    50    1
    88    51    56   am
    89    42    43    2
    90    57    56    1
    91    57    58    1
    92    50    49    1
    93    58    59    2
