@<TRIPOS>MOLECULE
tmp/5kvuA01.pdb
 118 107 0 0 0
SMALL
GASTEIGER

@<TRIPOS>ATOM
      1  N         -5.1350   -5.6750    1.7730 N.3    83  ASN83      -0.1240
      2  CA        -4.8160   -7.0720    1.5390 C.3    83  ASN83       0.1653
      3  C         -3.3320   -7.2500    1.2440 C.2    83  ASN83       0.2266
      4  O         -2.6810   -6.3480    0.7150 O.2    83  ASN83      -0.2867
      5  CB        -5.6570   -7.6350    0.3830 C.3    83  ASN83       0.1155
      6  CG        -5.1340   -7.2120   -0.9790 C.2    83  ASN83       0.2627
      7  OD1       -5.4790   -6.1420   -1.4910 O.2    83  ASN83      -0.2716
      8  ND2       -4.2890   -8.0510   -1.5720 N.am   83  ASN83      -0.0877
      9  N         -0.0560   -8.0830   -0.5680 N.3    85  SER85      -0.1217
     10  CA         0.5560   -8.2960   -1.8750 C.3    85  SER85       0.1889
     11  C          1.6920   -9.2830   -1.6750 C.2    85  SER85       0.2288
     12  O          2.8260   -8.8870   -1.4140 O.2    85  SER85      -0.2866
     13  CB         1.0980   -6.9960   -2.4550 C.3    85  SER85       0.2089
     14  OG         0.0460   -6.1320   -2.8310 O.3    85  SER85      -0.2183
     15  N          1.0300   -7.2490   -6.1790 N.3   129  SER129     -0.1217
     16  CA        -0.1970   -6.4690   -6.0990 C.3   129  SER129      0.1889
     17  C         -1.1920   -6.9370   -7.1570 C.2   129  SER129      0.2288
     18  O         -1.2590   -6.3690   -8.2460 O.2   129  SER129     -0.2866
     19  CB         0.1100   -4.9820   -6.2760 C.3   129  SER129      0.2089
     20  OG        -0.9240   -4.1820   -5.7290 O.3   129  SER129     -0.2183
     21  N         -5.3530   -4.6130   -6.1040 N.3   132  ASN132     -0.1240
     22  CA        -5.5420   -3.1710   -6.2720 C.3   132  ASN132      0.1653
     23  C         -5.5820   -2.6320   -7.7170 C.2   132  ASN132      0.2266
     24  O         -6.4640   -1.8410   -8.0490 O.2   132  ASN132     -0.2867
     25  CB        -4.5590   -2.3830   -5.3940 C.3   132  ASN132      0.1155
     26  CG        -4.7460   -2.6720   -3.9100 C.2   132  ASN132      0.2627
     27  OD1       -5.8040   -3.1490   -3.4900 O.2   132  ASN132     -0.2716
     28  ND2       -3.7190   -2.3840   -3.1110 N.am  132  ASN132     -0.0877
     29  N         -8.9360   -0.7520   -8.6660 N.3   136  ARG136     -0.1245
     30  CA        -8.7800    0.6910   -8.7750 C.3   136  ARG136      0.1563
     31  C         -9.0690    1.2020  -10.1800 C.2   136  ARG136      0.2260
     32  O         -8.1590    1.5930  -10.9130 O.2   136  ARG136     -0.2867
     33  CB        -7.3920    1.1190   -8.2940 C.3   136  ARG136      0.0307
     34  CG        -7.1990    0.8860   -6.8030 C.3   136  ARG136      0.0489
     35  CD        -5.7920    1.2160   -6.3330 C.3   136  ARG136      0.2205
     36  NE        -5.6720    1.0210   -4.8910 N.pl3 136  ARG136     -0.0865
     37  CZ        -4.5320    1.0790   -4.2150 C.cat 136  ARG136      0.5346
     38  NH1       -3.3980    1.3370   -4.8480 N.pl3 136  ARG136      0.1354
     39  NH2       -4.5290    0.8810   -2.9060 N.pl3 136  ARG136      0.1354
     40  N         -8.1600   10.7630   -1.2430 N.3   142  ARG142     -0.1245
     41  CA        -7.8020   10.4320    0.1300 C.3   142  ARG142      0.1563
     42  C         -7.6530   11.6900    0.9710 C.2   142  ARG142      0.2260
     43  O         -7.0560   12.6720    0.5170 O.2   142  ARG142     -0.2867
     44  CB        -6.5100    9.6160    0.1670 C.3   142  ARG142      0.0307
     45  CG        -6.7180    8.1620   -0.1600 C.3   142  ARG142      0.0489
     46  CD        -5.4220    7.3910   -0.1140 C.3   142  ARG142      0.2205
     47  NE        -5.6700    5.9570   -0.2240 N.pl3 142  ARG142     -0.0865
     48  CZ        -4.7230    5.0260   -0.2560 C.cat 142  ARG142      0.5346
     49  NH1       -3.4460    5.3730   -0.1930 N.pl3 142  ARG142      0.1354
     50  NH2       -5.0570    3.7440   -0.3540 N.pl3 142  ARG142      0.1354
     51  N          9.9730   -1.2700   -2.6200 N.3   252  LYS252     -0.1245
     52  CA         8.7550   -2.0710   -2.8170 C.3   252  LYS252      0.1561
     53  C          9.0970   -3.2800   -3.6520 C.2   252  LYS252      0.2260
     54  O          9.1430   -3.1780   -4.8740 O.2   252  LYS252     -0.2867
     55  CB         7.7060   -1.3130   -3.6220 C.3   252  LYS252      0.0271
     56  CG         6.7710   -0.4230   -2.8430 C.3   252  LYS252      0.0035
     57  CD         6.0110    0.4880   -3.8190 C.3   252  LYS252      0.0206
     58  CE         7.0050    1.2470   -4.7900 C.3   252  LYS252      0.1093
     59  NZ         8.1240    2.0410   -4.1290 N.3   252  LYS252     -0.1314
     60  N          7.3390   -5.5930   -4.5170 N.3   254  THR254     -0.1203
     61  CA         6.1730   -6.0740   -5.2460 C.3   254  THR254      0.1994
     62  C          5.9010   -5.2520   -6.5080 C.2   254  THR254      0.2617
     63  O          5.1960   -5.7010   -7.4210 O.2   254  THR254     -0.2717
     64  CB         4.9310   -6.1020   -4.3390 C.3   254  THR254      0.1784
     65  OG1        4.5380   -4.7630   -4.0080 O.3   254  THR254     -0.2211
     66  CG2        5.2310   -6.8800   -3.0700 C.3   254  THR254      0.0376
     67  N          6.4670   -4.0500   -6.5490 N.am  255  MET255     -0.1979
     68  CA         6.3590   -3.1820   -7.7140 C.3   255  MET255      0.1605
     69  C          7.4980   -3.4990   -8.6670 C.2   255  MET255      0.2287
     70  O          7.7060   -2.8110   -9.6740 O.2   255  MET255     -0.2864
     71  CB         6.3820   -1.7150   -7.2940 C.3   255  MET255      0.0413
     72  CG         5.0720   -1.2600   -6.6590 C.3   255  MET255      0.0598
     73  SD         3.7370   -1.0910   -7.8580 S.3   255  MET255     -0.1393
     74  CE         4.2440    0.2990   -8.7850 C.3   255  MET255      0.0692
     75  N          6.9410    2.5460    1.5900 N.3   347  ASP347     -0.1239
     76  CA         5.8070    3.4320    1.8490 C.3   347  ASP347      0.1674
     77  C          5.4060    3.4680    3.3230 C.2   347  ASP347      0.2266
     78  O          5.0100    4.5130    3.8330 O.2   347  ASP347     -0.2867
     79  CB         4.6040    3.0620    0.9680 C.3   347  ASP347      0.1410
     80  CG         4.0730    1.6680    1.2520 C.2   347  ASP347      0.3668
     81  OD1        4.8640    0.8110    1.7010 O.co2 347  ASP347     -0.2456
     82  OD2        2.8670    1.4220    1.0240 O.co2 347  ASP347     -0.2456
     83  N          2.0960    0.9400  -11.6760 N.3   417  TYR417     -0.1241
     84  CA         1.1910   -0.0930  -11.1730 C.3   417  TYR417      0.1605
     85  C          0.6460   -0.9790  -12.2800 C.2   417  TYR417      0.2264
     86  O          0.0890   -2.0410  -12.0090 O.2   417  TYR417     -0.2867
     87  CB         0.0370    0.5180  -10.3720 C.3   417  TYR417      0.0534
     88  CG         0.4480    0.9410   -8.9820 C.ar  417  TYR417     -0.0201
     89  CD1        1.1780    2.1050   -8.7850 C.ar  417  TYR417     -0.0009
     90  CD2        0.1220    0.1710   -7.8690 C.ar  417  TYR417     -0.0009
     91  CE1        1.5680    2.4970   -7.5290 C.ar  417  TYR417      0.0417
     92  CE2        0.5090    0.5550   -6.6050 C.ar  417  TYR417      0.0417
     93  CZ         1.2320    1.7230   -6.4420 C.ar  417  TYR417      0.1957
     94  OH         1.6330    2.1300   -5.1900 O.3   417  TYR417     -0.2866
     95  N          0.9060    8.9280   -4.5320 N.3   545  ARG545     -0.1231
     96  CA        -0.3240    8.7030   -3.7860 C.3   545  ARG545      0.1694
     97  C         -0.0270    7.7480   -2.6270 C.2   545  ARG545      0.2592
     98  O         -0.2720    8.0860   -1.4550 O.2   545  ARG545     -0.2718
     99  CB        -1.4280    8.1490   -4.6930 C.3   545  ARG545      0.0321
    100  CG        -2.6900    7.7150   -3.9460 C.3   545  ARG545      0.0489
    101  CD        -3.4320    6.6340   -4.7200 C.3   545  ARG545      0.2205
    102  NE        -2.5230    5.5930   -5.1840 N.pl3 545  ARG545     -0.0865
    103  CZ        -2.1770    4.5290   -4.4690 C.cat 545  ARG545      0.5346
    104  NH1       -2.6700    4.3510   -3.2490 N.pl3 545  ARG545      0.1354
    105  NH2       -1.3380    3.6380   -4.9730 N.pl3 545  ARG545      0.1354
    106  N          0.5380    6.5820   -2.9540 N.am  546  ASP546     -0.1974
    107  CA         0.9340    5.6110   -1.9230 C.3   546  ASP546      0.1709
    108  C          1.8210    6.2220   -0.8170 C.2   546  ASP546      0.2293
    109  O          1.4710    6.1990    0.3820 O.2   546  ASP546     -0.2864
    110  CB         1.6430    4.4120   -2.5740 C.3   546  ASP546      0.1436
    111  CG         1.9350    3.2800   -1.5850 C.2   546  ASP546      0.3671
    112  OD1        1.3430    3.2640   -0.4790 O.co2 546  ASP546     -0.2456
    113  OD2        2.7500    2.3900   -1.9200 O.co2 546  ASP546     -0.2456
    114  N         -5.4710    4.0330    4.4440 N.3   580  ALA580     -0.1245
    115  CA        -4.3950    4.0360    3.4510 C.3   580  ALA580      0.1562
    116  C         -3.2460    3.1060    3.8320 C.2   580  ALA580      0.2260
    117  O         -2.2060    3.0930    3.1710 O.2   580  ALA580     -0.2867
    118  CB        -3.8750    5.4480    3.2330 C.3   580  ALA580      0.0290
@<TRIPOS>BOND
     1    85    86    2
     2    85    84    1
     3    83    84    1
     4    84    87    1
     5    32    31    2
     6    87    88    1
     7    31    30    1
     8    70    69    2
     9    88    89   ar
    10    88    90   ar
    11    89    91   ar
    12    74    73    1
    13    30    29    1
    14    30    33    1
    15    69    68    1
    16    33    34    1
    17    18    17    2
    18    24    23    2
    19    90    92   ar
    20    73    72    1
    21    23    22    1
    22    68    71    1
    23    68    67    1
    24    91    93   ar
    25    63    62    2
    26    71    72    1
    27    17    16    1
    28    34    35    1
    29    92    93   ar
    30    67    62   am
    31    62    61    1
    32    93    94    1
    33    35    36    1
    34    19    16    1
    35    19    20    1
    36    22    21    1
    37    22    25    1
    38    15    16    1
    39    25    26    1
    40    61    60    1
    41    61    64    1
    42   102   101    1
    43   102   103    2
    44   105   103    1
    45    36    37    2
    46    54    53    2
    47    38    37    1
    48    58    59    1
    49    58    57    1
    50   101   100    1
    51    99   100    1
    52    99    96    1
    53    95    96    1
    54   103   104    1
    55    64    65    1
    56    64    66    1
    57    37    39    1
    58    26    27    2
    59    26    28   am
    60    57    56    1
    61    96    97    1
    62    53    52    1
    63    55    56    1
    64    55    52    1
    65   106    97   am
    66   106   107    1
    67    14    13    1
    68    52    51    1
    69    97    98    2
    70   110   107    1
    71   110   111    1
    72    13    10    1
    73   107   108    1
    74   113   111   ar
    75    10    11    1
    76    10     9    1
    77    11    12    2
    78   111   112   ar
    79     8     6   am
    80     7     6    2
    81    40    41    1
    82     6     5    1
    83   108   109    2
    84    50    48    1
    85    48    47    2
    86    48    49    1
    87    47    46    1
    88    45    46    1
    89    45    44    1
    90    41    44    1
    91    41    42    1
    92     5     2    1
    93    43    42    2
    94     4     3    2
    95    79    80    1
    96    79    76    1
    97    82    80   ar
    98     3     2    1
    99    80    81   ar
   100     2     1    1
   101    75    76    1
   102    76    77    1
   103   117   116    2
   104   118   115    1
   105    77    78    2
   106   115   116    1
   107   115   114    1
