@<TRIPOS>MOLECULE
tmp/5kvuC01.pdb
 113 102 0 0 0
SMALL
GASTEIGER

@<TRIPOS>ATOM
      1  N         67.5680   22.9890   60.0040 N.3    83  ASN83      -0.1240
      2  CA        68.7390   23.0710   60.8640 C.3    83  ASN83       0.1653
      3  C         68.7960   21.8610   61.7910 C.2    83  ASN83       0.2266
      4  O         67.7890   21.1870   62.0010 O.2    83  ASN83      -0.2867
      5  CB        68.6760   24.3410   61.6980 C.3    83  ASN83       0.1155
      6  CG        67.5350   24.3100   62.6980 C.2    83  ASN83       0.2627
      7  OD1       66.3630   24.3550   62.3170 O.2    83  ASN83      -0.2716
      8  ND2       67.8710   24.2180   63.9840 N.am   83  ASN83      -0.0877
      9  N         68.5590   19.9060   65.0630 N.3    85  SER85      -0.1217
     10  CA        68.1090   19.8930   66.4560 C.3    85  SER85       0.1889
     11  C         69.0870   19.0180   67.2250 C.2    85  SER85       0.2288
     12  O         68.9100   17.8030   67.3210 O.2    85  SER85      -0.2866
     13  CB        66.6850   19.3570   66.5980 C.3    85  SER85       0.2089
     14  OG        65.7720   20.1460   65.8580 O.3    85  SER85      -0.2183
     15  N         65.4190   21.1100   69.8730 N.3   130  SER130     -0.1217
     16  CA        64.7150   21.9890   68.9390 C.3   130  SER130      0.1889
     17  C         64.5370   23.4010   69.5010 C.2   130  SER130      0.2288
     18  O         63.5940   23.6650   70.2400 O.2   130  SER130     -0.2866
     19  CB        63.3530   21.3960   68.5640 C.3   130  SER130      0.2089
     20  OG        62.7200   22.1570   67.5480 O.3   130  SER130     -0.2183
     21  N         63.0950   26.1980   65.5160 N.3   133  ASN133     -0.1240
     22  CA        61.7670   26.1130   64.9090 C.3   133  ASN133      0.1653
     23  C         60.5770   26.6570   65.7290 C.2   133  ASN133      0.2266
     24  O         59.7530   27.4020   65.1870 O.2   133  ASN133     -0.2867
     25  CB        61.5120   24.6940   64.3850 C.3   133  ASN133      0.1155
     26  CG        62.5040   24.2930   63.2970 C.2   133  ASN133      0.2627
     27  OD1       62.6300   24.9720   62.2750 O.2   133  ASN133     -0.2716
     28  ND2       63.2300   23.2010   63.5260 N.am  133  ASN133     -0.0877
     29  N         58.2920   29.5550   64.1490 N.3   137  ARG137     -0.1245
     30  CA        56.9730   29.1320   63.6900 C.3   137  ARG137      0.1563
     31  C         55.8520   29.9050   64.3830 C.2   137  ARG137      0.2260
     32  O         55.1180   29.3660   65.2150 O.2   137  ARG137     -0.2867
     33  CB        56.8050   27.6130   63.8240 C.3   137  ARG137      0.0307
     34  CG        57.6450   26.8360   62.8210 C.3   137  ARG137      0.0489
     35  CD        57.6350   25.3350   63.0740 C.3   137  ARG137      0.2205
     36  NE        58.3550   24.6000   62.0300 N.pl3 137  ARG137     -0.0865
     37  CZ        58.6160   23.2970   62.0720 C.cat 137  ARG137      0.5346
     38  NH1       58.2170   22.5690   63.1040 N.pl3 137  ARG137      0.1354
     39  NH2       59.2770   22.7210   61.0810 N.pl3 137  ARG137      0.1354
     40  N         51.6360   23.1620   53.9220 N.3   143  ARG143     -0.1245
     41  CA        52.5810   22.3410   53.1760 C.3   143  ARG143      0.1563
     42  C         51.8930   21.5700   52.0520 C.2   143  ARG143      0.2260
     43  O         50.8490   20.9500   52.2620 O.2   143  ARG143     -0.2867
     44  CB        53.3280   21.3940   54.1170 C.3   143  ARG143      0.0307
     45  CG        54.3920   22.0980   54.9460 C.3   143  ARG143      0.0489
     46  CD        55.0490   21.1500   55.9240 C.3   143  ARG143      0.2205
     47  NE        56.3340   21.6490   56.4030 N.pl3 143  ARG143     -0.0865
     48  CZ        57.0620   21.0480   57.3390 C.cat 143  ARG143      0.5346
     49  NH1       56.6250   19.9290   57.9020 N.pl3 143  ARG143      0.1354
     50  NH2       58.2240   21.5670   57.7160 N.pl3 143  ARG143      0.1354
     51  N         61.1930   10.3780   68.8710 N.3   253  LYS253     -0.1245
     52  CA        61.6620   11.7250   68.5690 C.3   253  LYS253      0.1561
     53  C         62.3220   12.2920   69.8220 C.2   253  LYS253      0.2260
     54  O         61.6860   12.9970   70.6050 O.2   253  LYS253     -0.2867
     55  CB        60.5040   12.6170   68.1100 C.3   253  LYS253      0.0271
     56  CG        60.9470   13.9230   67.4540 C.3   253  LYS253      0.0035
     57  CD        59.7600   14.6920   66.8850 C.3   253  LYS253      0.0206
     58  CE        60.2170   15.8410   65.9890 C.3   253  LYS253      0.1093
     59  NZ        60.9390   15.3770   64.7650 N.3   253  LYS253     -0.1314
     60  N         64.3170   14.6420   70.6190 N.3   255  THR255     -0.1218
     61  CA        64.2300   16.0790   70.8460 C.3   255  THR255      0.1862
     62  C         62.7970   16.5330   71.1610 C.2   255  THR255      0.2287
     63  O         62.3110   17.5130   70.5890 O.2   255  THR255     -0.2866
     64  CB        64.7500   16.8530   69.6220 C.3   255  THR255      0.1770
     65  OG1       63.7740   16.8110   68.5700 O.3   255  THR255     -0.2211
     66  CG2       66.0510   16.2380   69.1270 C.3   255  THR255      0.0375
     67  N         65.2450    9.1900   63.7400 N.3   341  ILE341     -0.1245
     68  CA        64.1340   10.0690   64.1020 C.3   341  ILE341      0.1561
     69  C         62.8360    9.6190   63.4190 C.2   341  ILE341      0.2260
     70  O         62.7580    9.5600   62.1940 O.2   341  ILE341     -0.2867
     71  CB        64.4550   11.5500   63.7840 C.3   341  ILE341      0.0252
     72  CG1       65.9200   11.8540   64.1230 C.3   341  ILE341      0.0019
     73  CG2       63.5260   12.4810   64.5500 C.3   341  ILE341      0.0019
     74  CD1       66.3540   13.2890   63.8510 C.3   341  ILE341      0.0001
     75  N         59.8350   10.5820   62.4840 N.3   343  ASP343     -0.1239
     76  CA        59.1620   11.2690   61.3850 C.3   343  ASP343      0.1674
     77  C         59.8320   11.0260   60.0320 C.2   343  ASP343      0.2266
     78  O         59.1680   11.0180   59.0020 O.2   343  ASP343     -0.2867
     79  CB        59.0440   12.7690   61.6640 C.3   343  ASP343      0.1410
     80  CG        60.3890   13.4310   61.8680 C.2   343  ASP343      0.3668
     81  OD1       61.2890   12.7750   62.4340 O.co2 343  ASP343     -0.2456
     82  OD2       60.5510   14.6060   61.4630 O.co2 343  ASP343     -0.2456
     83  N         55.1180   20.9040   71.0570 N.3   413  TYR413     -0.1241
     84  CA        56.3060   21.6930   70.7230 C.3   413  TYR413      0.1605
     85  C         56.5900   22.8260   71.7150 C.2   413  TYR413      0.2264
     86  O         57.7160   23.3210   71.7980 O.2   413  TYR413     -0.2867
     87  CB        56.2200   22.2320   69.2900 C.3   413  TYR413      0.0534
     88  CG        56.4400   21.1660   68.2430 C.ar  413  TYR413     -0.0201
     89  CD1       55.4160   20.2960   67.8880 C.ar  413  TYR413     -0.0009
     90  CD2       57.6730   21.0190   67.6150 C.ar  413  TYR413     -0.0009
     91  CE1       55.6070   19.3130   66.9350 C.ar  413  TYR413      0.0417
     92  CE2       57.8740   20.0340   66.6610 C.ar  413  TYR413      0.0417
     93  CZ        56.8350   19.1850   66.3240 C.ar  413  TYR413      0.1957
     94  OH        57.0180   18.2000   65.3760 O.3   413  TYR413     -0.2866
     95  N         51.3680   17.1170   61.6340 N.3   541  ARG541     -0.1231
     96  CA        51.9290   17.9120   60.5510 C.3   541  ARG541      0.1694
     97  C         53.3110   17.3640   60.2290 C.2   541  ARG541      0.2592
     98  O         53.5780   16.9740   59.0830 O.2   541  ARG541     -0.2718
     99  CB        52.0080   19.3850   60.9430 C.3   541  ARG541      0.0321
    100  CG        52.8890   20.2280   60.0370 C.3   541  ARG541      0.0489
    101  CD        53.3950   21.4650   60.7700 C.3   541  ARG541      0.2205
    102  NE        54.1450   21.0880   61.9610 N.pl3 541  ARG541     -0.0865
    103  CZ        55.4280   20.7400   61.9500 C.cat 541  ARG541      0.5346
    104  NH1       56.1080   20.7290   60.8080 N.pl3 541  ARG541      0.1354
    105  NH2       56.0380   20.4010   63.0790 N.pl3 541  ARG541      0.1354
    106  N         54.1710   17.2880   61.2460 N.am  542  ASP542     -0.1974
    107  CA        55.5070   16.7140   61.0400 C.3   542  ASP542      0.1709
    108  C         55.4900   15.3270   60.3580 C.2   542  ASP542      0.2293
    109  O         56.0760   15.1390   59.2650 O.2   542  ASP542     -0.2864
    110  CB        56.2610   16.6440   62.3690 C.3   542  ASP542      0.1436
    111  CG        57.7390   16.3290   62.1900 C.2   542  ASP542      0.3671
    112  OD1       58.3810   16.9200   61.2910 O.co2 542  ASP542     -0.2456
    113  OD2       58.2660   15.4960   62.9580 O.co2 542  ASP542     -0.2456
@<TRIPOS>BOND
     1    42    43    2
     2    42    41    1
     3    41    40    1
     4    41    44    1
     5    44    45    1
     6    45    46    1
     7    46    47    1
     8    47    48    2
     9    48    50    1
    10    48    49    1
    11    78    77    2
    12    98    97    2
    13   109   108    2
    14     1     2    1
    15    77    76    1
    16   100   101    1
    17   100    99    1
    18    97    96    1
    19    97   106   am
    20   108   107    1
    21    96    99    1
    22    96    95    1
    23   101   102    1
    24   104   103    1
    25     2     5    1
    26     2     3    1
    27   107   106    1
    28   107   110    1
    29    39    37    1
    30   112   111   ar
    31    76    79    1
    32    76    75    1
    33    82    80   ar
    34    79    80    1
    35     5     6    1
    36     3     4    2
    37    80    81   ar
    38   103   102    2
    39   103   105    1
    40    36    37    2
    41    36    35    1
    42    37    38    1
    43   111   110    1
    44   111   113   ar
    45    70    69    2
    46    27    26    2
    47     7     6    2
    48     6     8   am
    49    34    35    1
    50    34    33    1
    51    26    28   am
    52    26    25    1
    53    69    68    1
    54    30    33    1
    55    30    29    1
    56    30    31    1
    57    67    68    1
    58    71    68    1
    59    71    72    1
    60    71    73    1
    61    74    72    1
    62    31    32    2
    63    25    22    1
    64    59    58    1
    65    22    21    1
    66    22    23    1
    67     9    10    1
    68    24    23    2
    69    94    93    1
    70    14    13    1
    71    58    57    1
    72    93    92   ar
    73    93    91   ar
    74    10    13    1
    75    10    11    1
    76    92    90   ar
    77    57    56    1
    78    91    89   ar
    79    11    12    2
    80    56    55    1
    81    20    19    1
    82    90    88   ar
    83    89    88   ar
    84    55    52    1
    85    88    87    1
    86    19    16    1
    87    52    51    1
    88    52    53    1
    89    65    64    1
    90    16    17    1
    91    16    15    1
    92    66    64    1
    93    87    84    1
    94    17    18    2
    95    64    61    1
    96    53    54    2
    97    63    62    2
    98    60    61    1
    99    84    83    1
   100    84    85    1
   101    61    62    1
   102    85    86    2
