@<TRIPOS>MOLECULE
tmp/5kvvA01.pdb
 122 111 0 0 0
SMALL
GASTEIGER

@<TRIPOS>ATOM
      1  N        -12.6080   12.6710    9.3060 N.3    91  ARG91      -0.1245
      2  CA       -12.5560   14.0370    9.8140 C.3    91  ARG91       0.1563
      3  C        -12.9260   15.0220    8.7030 C.2    91  ARG91       0.2260
      4  O        -12.7900   14.7140    7.5210 O.2    91  ARG91      -0.2867
      5  CB       -11.1710   14.3620   10.3640 C.3    91  ARG91       0.0307
      6  CG       -10.1530   14.7190    9.3020 C.3    91  ARG91       0.0489
      7  CD        -8.8060   15.0230    9.9410 C.3    91  ARG91       0.2205
      8  NE        -8.4050   13.9560   10.8570 N.pl3  91  ARG91      -0.0865
      9  CZ        -7.4050   14.0440   11.7300 C.cat  91  ARG91       0.5346
     10  NH1       -6.6900   15.1540   11.8200 N.pl3  91  ARG91       0.1354
     11  NH2       -7.1220   13.0220   12.5240 N.pl3  91  ARG91       0.1354
     12  N        -10.9550   15.1690   14.4340 N.3    97  ARG97      -0.1245
     13  CA       -10.7130   13.7790   14.8030 C.3    97  ARG97       0.1563
     14  C        -11.3520   13.3910   16.1530 C.2    97  ARG97       0.2260
     15  O        -11.9550   12.3260   16.2720 O.2    97  ARG97      -0.2867
     16  CB        -9.2090   13.4900   14.8010 C.3    97  ARG97       0.0307
     17  CG        -8.8450   12.0840   15.2550 C.3    97  ARG97       0.0489
     18  CD        -7.4440   12.0640   15.8420 C.3    97  ARG97       0.2205
     19  NE        -7.0850   13.3740   16.3890 N.pl3  97  ARG97      -0.0865
     20  CZ        -5.9630   13.6260   17.0530 C.cat  97  ARG97       0.5346
     21  NH1       -5.0910   12.6510   17.2630 N.pl3  97  ARG97       0.1354
     22  NH2       -5.7180   14.8500   17.5090 N.pl3  97  ARG97       0.1354
     23  N        -12.0270    5.3940   11.7910 N.3   130  ASN130     -0.1240
     24  CA       -11.5890    6.0990   13.0140 C.3   130  ASN130      0.1653
     25  C        -12.6770    6.4410   14.0420 C.2   130  ASN130      0.2266
     26  O        -13.8440    6.6460   13.6780 O.2   130  ASN130     -0.2867
     27  CB       -10.8350    7.3730   12.6360 C.3   130  ASN130      0.1155
     28  CG        -9.3980    7.1080   12.3040 C.2   130  ASN130      0.2627
     29  OD1       -8.7070    6.3940   13.0300 O.2   130  ASN130     -0.2716
     30  ND2       -8.9310    7.6770   11.2020 N.am  130  ASN130     -0.0877
     31  N         -0.7310    2.1690    8.6070 N.3   157  LEU157     -0.1231
     32  CA        -0.4460    3.3650    7.8100 C.3   157  LEU157      0.1693
     33  C          0.6180    4.2040    8.4990 C.2   157  LEU157      0.2592
     34  O          1.5430    4.6950    7.8500 O.2   157  LEU157     -0.2718
     35  CB        -1.7110    4.1870    7.5520 C.3   157  LEU157      0.0284
     36  CG        -1.5100    5.4340    6.6990 C.3   157  LEU157      0.0019
     37  CD1       -0.8390    5.0510    5.3820 C.3   157  LEU157      0.0001
     38  CD2       -2.8640    6.1090    6.4480 C.3   157  LEU157      0.0001
     39  N          0.4840    4.3620    9.8150 N.am  158  ASP158     -0.1974
     40  CA         1.5000    5.0500   10.6060 C.3   158  ASP158      0.1709
     41  C          2.8410    4.3530   10.4120 C.2   158  ASP158      0.2293
     42  O          3.8750    4.9890   10.2210 O.2   158  ASP158     -0.2864
     43  CB         1.1340    4.9850   12.0940 C.3   158  ASP158      0.1436
     44  CG        -0.2420    5.5460   12.3840 C.2   158  ASP158      0.3671
     45  OD1       -0.5140    6.6950   11.9790 O.co2 158  ASP158     -0.2456
     46  OD2       -1.0570    4.8390   13.0200 O.co2 158  ASP158     -0.2456
     47  N          4.2800    4.9200    6.9400 N.3   161  ARG161     -0.1245
     48  CA         4.6990    6.3250    6.8780 C.3   161  ARG161      0.1563
     49  C          6.0330    6.5460    7.5940 C.2   161  ARG161      0.2260
     50  O          6.9080    7.2980    7.1170 O.2   161  ARG161     -0.2867
     51  CB         3.6350    7.2210    7.5210 C.3   161  ARG161      0.0307
     52  CG         2.4320    7.5080    6.6420 C.3   161  ARG161      0.0489
     53  CD         1.2970    8.1150    7.4550 C.3   161  ARG161      0.2205
     54  NE         0.2610    8.6440    6.5740 N.pl3 161  ARG161     -0.0865
     55  CZ        -0.9330    9.0610    6.9740 C.cat 161  ARG161      0.5346
     56  NH1       -1.2680    9.0010    8.2540 N.pl3 161  ARG161      0.1354
     57  NH2       -1.8000    9.5300    6.0860 N.pl3 161  ARG161      0.1354
     58  N         -3.6480    4.9320   17.1640 N.3   186  HIS186     -0.1226
     59  CA        -3.6170    5.5820   15.8540 C.3   186  HIS186      0.1752
     60  C         -4.1440    7.0000   16.0360 C.2   186  HIS186      0.2596
     61  O         -5.3300    7.2660   15.8430 O.2   186  HIS186     -0.2718
     62  CB        -4.4870    4.8600   14.8290 C.3   186  HIS186      0.0759
     63  CG        -4.5590    5.5570   13.5060 C.ar  186  HIS186      0.0818
     64  ND1       -3.4780    5.6350   12.6440 N.ar  186  HIS186     -0.2268
     65  CD2       -5.5630    6.2310   12.8990 C.ar  186  HIS186      0.1154
     66  CE1       -3.8260    6.3100   11.5670 C.ar  186  HIS186      0.1986
     67  NE2       -5.0860    6.6900   11.6940 N.ar  186  HIS186     -0.2212
     68  N         -3.2580    7.9070   16.4200 N.am  187  SER187     -0.1952
     69  CA        -3.6530    9.2740   16.7000 C.3   187  SER187      0.1924
     70  C         -2.3890   10.0810   16.8300 C.2   187  SER187      0.2314
     71  O         -1.2870    9.5660   16.6460 O.2   187  SER187     -0.2863
     72  CB        -4.4060    9.3400   18.0320 C.3   187  SER187      0.2116
     73  OG        -3.4920    9.2110   19.1100 O.3   187  SER187     -0.2180
     74  N          0.5490    8.6360   19.0010 N.3   190  GLN190     -0.1245
     75  CA         1.3060    7.4720   18.5460 C.3   190  GLN190      0.1566
     76  C          2.8170    7.6270   18.7300 C.2   190  GLN190      0.2260
     77  O          3.3730    8.7260   18.5910 O.2   190  GLN190     -0.2867
     78  CB         1.0340    7.2390   17.0710 C.3   190  GLN190      0.0367
     79  CG         1.5720    8.3470   16.2080 C.3   190  GLN190      0.0905
     80  CD         1.5920    7.9570   14.7830 C.2   190  GLN190      0.2608
     81  OE1        2.4890    7.2330   14.3410 O.2   190  GLN190     -0.2717
     82  NE2        0.5940    8.4150   14.0330 N.am  190  GLN190     -0.0878
     83  N          5.4400   12.0310   11.0750 N.3   222  VAL222     -0.1231
     84  CA         4.6040   10.8350   10.9740 C.3   222  VAL222      0.1692
     85  C          3.1740   11.1020   11.4720 C.2   222  VAL222      0.2591
     86  O          2.1990   10.6970   10.8280 O.2   222  VAL222     -0.2718
     87  CB         5.2220    9.6590   11.7500 C.3   222  VAL222      0.0266
     88  CG1        4.2980    8.4540   11.7200 C.3   222  VAL222      0.0020
     89  CG2        6.5980    9.3030   11.1640 C.3   222  VAL222      0.0020
     90  N          3.0600   11.7970   12.6050 N.am  223  ALA223     -0.1980
     91  CA         1.7580   12.0970   13.2210 C.3   223  ALA223      0.1597
     92  C          0.8400   12.9710   12.3650 C.2   223  ALA223      0.2287
     93  O         -0.3820   12.8040   12.3820 O.2   223  ALA223     -0.2864
     94  CB         1.9570   12.7450   14.5810 C.3   223  ALA223      0.0319
     95  N         -1.2770   12.8390    7.5120 N.3   226  GLY226     -0.1210
     96  CA        -2.5980   12.9110    6.8960 C.3   226  GLY226      0.1956
     97  C         -2.9550   14.3180    6.4360 C.2   226  GLY226      0.2611
     98  O         -3.4030   14.5430    5.2950 O.2   226  GLY226     -0.2717
     99  N         -2.7320   15.2780    7.3270 N.am  227  ALA227     -0.1979
    100  CA        -2.9760   16.6810    7.0090 C.3   227  ALA227      0.1597
    101  C         -2.0580   17.1690    5.8880 C.2   227  ALA227      0.2287
    102  O         -2.4600   17.9770    5.0480 O.2   227  ALA227     -0.2864
    103  CB        -2.8050   17.5350    8.2500 C.3   227  ALA227      0.0319
    104  N         -3.5100   15.9740    2.6510 N.3   230  ILE230     -0.1245
    105  CA        -4.6560   16.8270    2.3030 C.3   230  ILE230      0.1561
    106  C         -4.2340   18.1980    1.7680 C.2   230  ILE230      0.2260
    107  O         -4.7540   18.6680    0.7490 O.2   230  ILE230     -0.2867
    108  CB        -5.6020   17.0130    3.5030 C.3   230  ILE230      0.0252
    109  CG1       -6.3840   15.7190    3.7560 C.3   230  ILE230      0.0019
    110  CG2       -6.5580   18.1620    3.2490 C.3   230  ILE230      0.0019
    111  CD1       -7.0810   15.6660    5.1110 C.3   230  ILE230      0.0001
    112  N         -5.8430   10.8220    2.1440 N.3   237  SER237     -0.1217
    113  CA        -4.9070    9.7670    1.7570 C.3   237  SER237      0.1889
    114  C         -5.5590    8.3980    1.5340 C.2   237  SER237      0.2288
    115  O         -5.1480    7.4050    2.1390 O.2   237  SER237     -0.2866
    116  CB        -3.8100    9.6290    2.8220 C.3   237  SER237      0.2089
    117  OG        -4.3430    9.1110    4.0290 O.3   237  SER237     -0.2183
    118  N         -3.9200    4.6830    2.6170 N.3   241  ALA241     -0.1245
    119  CA        -4.7010    4.0340    3.6710 C.3   241  ALA241      0.1562
    120  C         -5.2270    2.6690    3.2180 C.2   241  ALA241      0.2260
    121  O         -5.2140    1.6860    3.9780 O.2   241  ALA241     -0.2867
    122  CB        -5.8580    4.9410    4.1090 C.3   241  ALA241      0.0290
@<TRIPOS>BOND
     1   107   106    2
     2   114   113    1
     3   114   115    2
     4   113   112    1
     5   113   116    1
     6   106   105    1
     7   105   104    1
     8   105   108    1
     9   118   119    1
    10   116   117    1
    11   120   119    1
    12   120   121    2
    13   110   108    1
    14   108   109    1
    15   119   122    1
    16   109   111    1
    17   102   101    2
    18    98    97    2
    19    37    36    1
    20   101   100    1
    21    57    55    1
    22    97    96    1
    23    97    99   am
    24    38    36    1
    25    54    55    2
    26    54    53    1
    27    52    53    1
    28    52    51    1
    29    36    35    1
    30    48    47    1
    31    48    51    1
    32    48    49    1
    33    96    95    1
    34    55    56    1
    35   100    99    1
    36   100   103    1
    37    50    49    2
    38     4     3    2
    39    35    32    1
    40    32    33    1
    41    32    31    1
    42    34    33    2
    43    33    39   am
    44     3     2    1
    45     6     7    1
    46     6     5    1
    47     1     2    1
    48     2     5    1
    49    39    40    1
    50     7     8    1
    51    42    41    2
    52    41    40    1
    53    40    43    1
    54    86    85    2
    55     8     9    2
    56    84    83    1
    57    84    85    1
    58    84    87    1
    59    89    87    1
    60    30    28   am
    61    85    90   am
    62    66    67   ar
    63    66    64   ar
    64    67    65   ar
    65    88    87    1
    66     9    10    1
    67     9    11    1
    68    23    24    1
    69    45    44   ar
    70    43    44    1
    71    28    27    1
    72    28    29    2
    73    92    93    2
    74    92    91    1
    75    44    46   ar
    76    90    91    1
    77    27    24    1
    78    64    63   ar
    79    65    63   ar
    80    24    25    1
    81    91    94    1
    82    63    62    1
    83    26    25    2
    84    82    80   am
    85    81    80    2
    86    12    13    1
    87    80    79    1
    88    16    13    1
    89    16    17    1
    90    13    14    1
    91    62    59    1
    92    17    18    1
    93    18    19    1
    94    61    60    2
    95    59    60    1
    96    59    58    1
    97    60    68   am
    98    14    15    2
    99    79    78    1
   100    19    20    2
   101    68    69    1
   102    71    70    2
   103    69    70    1
   104    69    72    1
   105    20    21    1
   106    20    22    1
   107    78    75    1
   108    72    73    1
   109    75    76    1
   110    75    74    1
   111    77    76    2
