@<TRIPOS>MOLECULE
tmp/5kvyA00.pdb
 116 112 0 0 0
SMALL
GASTEIGER

@<TRIPOS>ATOM
      1  N        -13.2870   13.5470  -18.5250 N.3    13  ILE13      -0.1245
      2  CA       -12.3270   13.3830  -17.4300 C.3    13  ILE13       0.1561
      3  C        -12.7290   14.2560  -16.2580 C.2    13  ILE13       0.2260
      4  O        -12.6030   13.8690  -15.0970 O.2    13  ILE13      -0.2867
      5  CB       -10.8930   13.8110  -17.8500 C.3    13  ILE13       0.0252
      6  CG1      -10.2540   12.7230  -18.7050 C.3    13  ILE13       0.0019
      7  CG2      -10.0410   14.1040  -16.6100 C.3    13  ILE13       0.0019
      8  CD1      -10.1630   11.3810  -18.0140 C.3    13  ILE13       0.0001
      9  N        -15.2800   12.9020  -13.6020 N.3    16  ARG16      -0.1245
     10  CA       -14.9630   11.7690  -12.7320 C.3    16  ARG16       0.1563
     11  C        -14.0510   12.1460  -11.5630 C.2    16  ARG16       0.2260
     12  O        -13.1900   13.0120  -11.6890 O.2    16  ARG16      -0.2867
     13  CB       -14.2910   10.6620  -13.5450 C.3    16  ARG16       0.0307
     14  CG       -15.1580   10.0860  -14.6700 C.3    16  ARG16       0.0489
     15  CD       -14.2950    9.3200  -15.6590 C.3    16  ARG16       0.2205
     16  NE       -15.0030    8.9850  -16.8920 N.pl3  16  ARG16      -0.0865
     17  CZ       -14.4480    9.0180  -18.1020 C.cat  16  ARG16       0.5346
     18  NH1      -13.1760    9.3780  -18.2430 N.pl3  16  ARG16       0.1354
     19  NH2      -15.1560    8.6810  -19.1710 N.pl3  16  ARG16       0.1354
     20  N        -11.6280   10.4320   -8.3110 N.3    18  TYR18      -0.1241
     21  CA       -11.0060    9.2500   -7.7410 C.3    18  TYR18       0.1605
     22  C        -11.4530    9.2240   -6.2800 C.2    18  TYR18       0.2264
     23  O        -11.5100   10.2720   -5.6250 O.2    18  TYR18      -0.2867
     24  CB        -9.4770    9.3610   -7.8050 C.3    18  TYR18       0.0534
     25  CG        -8.7500    8.4660   -6.8170 C.ar   18  TYR18      -0.0201
     26  CD1       -8.4790    7.1300   -7.1100 C.ar   18  TYR18      -0.0009
     27  CD2       -8.3470    8.9600   -5.5770 C.ar   18  TYR18      -0.0009
     28  CE1       -7.8210    6.3090   -6.1890 C.ar   18  TYR18       0.0417
     29  CE2       -7.6990    8.1530   -4.6560 C.ar   18  TYR18       0.0417
     30  CZ        -7.4390    6.8330   -4.9660 C.ar   18  TYR18       0.1957
     31  OH        -6.8030    6.0510   -4.0350 O.3    18  TYR18      -0.2866
     32  N         -9.1240    4.8300   -0.2900 N.3    21  SER21      -0.1217
     33  CA        -9.1950    4.4660    1.1190 C.3    21  SER21       0.1889
     34  C        -10.6180    4.0420    1.4940 C.2    21  SER21       0.2288
     35  O        -11.1500    4.4230    2.5410 O.2    21  SER21      -0.2866
     36  CB        -8.7330    5.6380    1.9880 C.3    21  SER21       0.2089
     37  OG        -8.3370    5.1850    3.2640 O.3    21  SER21      -0.2183
     38  N        -16.6670    2.9290  -11.4210 N.3    45  ASP45      -0.1239
     39  CA       -15.6920    1.9110  -11.7880 C.3    45  ASP45       0.1674
     40  C        -14.9710    1.5350  -10.5000 C.2    45  ASP45       0.2266
     41  O        -14.1160    2.2750  -10.0150 O.2    45  ASP45      -0.2867
     42  CB       -14.7000    2.4650  -12.8140 C.3    45  ASP45       0.1410
     43  CG       -15.2640    2.4890  -14.2290 C.2    45  ASP45       0.3668
     44  OD1      -16.4910    2.6640  -14.3920 O.co2  45  ASP45      -0.2456
     45  OD2      -14.4700    2.3450  -15.1850 O.co2  45  ASP45      -0.2456
     46  N         -9.9570   -3.1920   -4.4790 N.3    56  LYS56      -0.1231
     47  CA        -8.6410   -2.7020   -4.0900 C.3    56  LYS56       0.1693
     48  C         -8.6220   -1.4250   -3.2430 C.2    56  LYS56       0.2593
     49  O         -7.5830   -0.7900   -3.1030 O.2    56  LYS56      -0.2718
     50  CB        -7.7830   -2.5050   -5.3510 C.3    56  LYS56       0.0285
     51  CG        -7.5380   -3.7920   -6.1560 C.3    56  LYS56       0.0035
     52  CD        -6.7500   -3.5090   -7.4360 C.3    56  LYS56       0.0206
     53  CE        -6.4610   -4.7870   -8.2150 C.3    56  LYS56       0.1093
     54  NZ        -5.5910   -5.7170   -7.4320 N.3    56  LYS56      -0.1314
     55  N         -9.7650   -1.0460   -2.6820 N.am   57  GLY57      -0.1942
     56  CA        -9.8070    0.1420   -1.8420 C.3    57  GLY57       0.2014
     57  C        -10.0110    1.4740   -2.5450 C.2    57  GLY57       0.2638
     58  O         -9.9250    2.5230   -1.9090 O.2    57  GLY57      -0.2714
     59  N        -10.2730    1.4520   -3.8470 N.am   58  PHE58      -0.1973
     60  CA       -10.4930    2.6940   -4.5770 C.3    58  PHE58       0.1639
     61  C        -11.5140    2.5360   -5.6860 C.2    58  PHE58       0.2290
     62  O        -11.7960    1.4260   -6.1320 O.2    58  PHE58      -0.2864
     63  CB        -9.1720    3.2220   -5.1520 C.3    58  PHE58       0.0560
     64  CG        -8.6220    2.4060   -6.2910 C.ar   58  PHE58      -0.0200
     65  CD1       -8.9350    2.7280   -7.6100 C.ar   58  PHE58      -0.0042
     66  CD2       -7.7730    1.3270   -6.0490 C.ar   58  PHE58      -0.0042
     67  CE1       -8.4110    1.9910   -8.6740 C.ar   58  PHE58      -0.0003
     68  CE2       -7.2420    0.5820   -7.1080 C.ar   58  PHE58      -0.0003
     69  CZ        -7.5610    0.9150   -8.4210 C.ar   58  PHE58      -0.0000
     70  N        -13.7310    4.9870   -9.0750 N.3    60  PHE60      -0.1241
     71  CA       -13.8720    6.2180   -9.8330 C.3    60  PHE60       0.1605
     72  C        -15.3560    6.4400  -10.0450 C.2    60  PHE60       0.2264
     73  O        -16.0350    5.6320  -10.6780 O.2    60  PHE60      -0.2867
     74  CB       -13.1390    6.1430  -11.1690 C.3    60  PHE60       0.0534
     75  CG       -11.6490    6.1810  -11.0360 C.ar   60  PHE60      -0.0203
     76  CD1      -10.9050    5.0040  -11.0220 C.ar   60  PHE60      -0.0042
     77  CD2      -10.9870    7.3960  -10.8830 C.ar   60  PHE60      -0.0042
     78  CE1       -9.5220    5.0370  -10.8620 C.ar   60  PHE60      -0.0003
     79  CE2       -9.5970    7.4400  -10.7210 C.ar   60  PHE60      -0.0003
     80  CZ        -8.8660    6.2560  -10.7100 C.ar   60  PHE60      -0.0000
     81  N         -9.9910   12.7410   -5.1770 N.3    89  GLY89      -0.1210
     82  CA        -9.0930   13.5050   -6.0180 C.3    89  GLY89       0.1956
     83  C         -9.5000   13.4540   -7.4720 C.2    89  GLY89       0.2612
     84  O        -10.4890   12.8070   -7.8350 O.2    89  GLY89      -0.2717
     85  N         -8.7420   14.1500   -8.3080 N.am   90  ARG90      -0.1966
     86  CA        -9.0160   14.1680   -9.7330 C.3    90  ARG90       0.1714
     87  C         -8.2710   12.9780  -10.3290 C.2    90  ARG90       0.2458
     88  O         -7.2690   12.5320   -9.7680 O.2    90  ARG90      -0.2730
     89  CB        -8.4830   15.4540  -10.3720 C.3    90  ARG90       0.0347
     90  CG        -8.8090   16.7230   -9.6170 C.3    90  ARG90       0.0492
     91  CD        -8.5490   17.9580  -10.4680 C.3    90  ARG90       0.2205
     92  NE        -8.7910   19.1850   -9.7130 N.pl3  90  ARG90      -0.0865
     93  CZ        -7.9790   19.6590   -8.7730 C.cat  90  ARG90       0.5346
     94  NH1       -6.8600   19.0170   -8.4740 N.pl3  90  ARG90       0.1354
     95  NH2       -8.2990   20.7640   -8.1150 N.pl3  90  ARG90       0.1354
     96  N         -8.7600   12.4350  -11.4570 N.am   91  PRO91      -0.2716
     97  CA        -8.0940   11.2980  -12.0960 C.3    91  PRO91       0.1536
     98  C         -6.6570   11.6970  -12.4470 C.2    91  PRO91       0.2599
     99  O         -6.4180   12.8030  -12.9310 O.2    91  PRO91      -0.2715
    100  CB        -8.9490   11.0550  -13.3310 C.3    91  PRO91       0.0310
    101  CG       -10.3200   11.4300  -12.8600 C.3    91  PRO91       0.0237
    102  CD       -10.0570   12.7160  -12.1020 C.3    91  PRO91       0.0939
    103  N         -5.7060   10.7970  -12.2140 N.am   92  SER92      -0.1936
    104  CA        -4.2980   11.0870  -12.4930 C.3    92  SER92       0.2055
    105  C         -3.8930   10.9180  -13.9560 C.2    92  SER92       0.2643
    106  O         -2.8060   11.3320  -14.3580 O.2    92  SER92      -0.2714
    107  CB        -3.4010   10.2210  -11.6110 C.3    92  SER92       0.2130
    108  OG        -3.6180   10.5110  -10.2390 O.3    92  SER92      -0.2179
    109  N         -4.7700   10.3120  -14.7470 N.am   93  ASN93      -0.1971
    110  CA        -4.5160   10.1050  -16.1710 C.3    93  ASN93       0.1688
    111  C         -4.3810   11.4320  -16.9260 C.2    93  ASN93       0.2292
    112  O         -3.2860   11.9790  -17.0260 O.2    93  ASN93      -0.2864
    113  CB        -5.6480    9.2660  -16.7680 C.3    93  ASN93       0.1181
    114  CG        -5.8160    9.4790  -18.2490 C.2    93  ASN93       0.2629
    115  OD1       -4.8450    9.4520  -19.0020 O.2    93  ASN93      -0.2716
    116  ND2       -7.0560    9.6860  -18.6830 N.am   93  ASN93      -0.0877
@<TRIPOS>BOND
     1    19    17    1
     2   115   114    2
     3     6     8    1
     4     6     5    1
     5   116   114   am
     6     1     2    1
     7   114   113    1
     8    18    17    1
     9    17    16    2
    10     5     2    1
    11     5     7    1
    12     2     3    1
    13   112   111    2
    14   111   110    1
    15    16    15    1
    16   113   110    1
    17     3     4    2
    18   110   109    1
    19    15    14    1
    20    45    43   ar
    21   109   105   am
    22    14    13    1
    23    44    43   ar
    24   106   105    2
    25    43    42    1
    26   105   104    1
    27     9    10    1
    28    13    10    1
    29   100   101    1
    30   100    97    1
    31    99    98    2
    32   101   102    1
    33    42    39    1
    34    10    11    1
    35   104   103    1
    36   104   107    1
    37    98   103   am
    38    98    97    1
    39   102    96    1
    40    97    96    1
    41    39    38    1
    42    39    40    1
    43    12    11    2
    44   107   108    1
    45    96    87   am
    46    74    75    1
    47    74    71    1
    48    75    76   ar
    49    75    77   ar
    50    76    78   ar
    51    77    79   ar
    52    78    80   ar
    53    79    80   ar
    54    73    72    2
    55    40    41    2
    56    91    92    1
    57    91    90    1
    58    89    86    1
    59    89    90    1
    60    87    88    2
    61    87    86    1
    62    72    71    1
    63    71    70    1
    64    86    85    1
    65    92    93    2
    66    93    94    1
    67    93    95    1
    68    67    69   ar
    69    67    65   ar
    70    69    68   ar
    71    20    21    1
    72    85    83   am
    73    53    52    1
    74    53    54    1
    75    84    83    2
    76    24    21    1
    77    24    25    1
    78    21    22    1
    79    65    64   ar
    80    83    82    1
    81    52    51    1
    82    26    25   ar
    83    26    28   ar
    84    68    66   ar
    85    25    27   ar
    86    64    66   ar
    87    64    63    1
    88    22    23    2
    89    28    30   ar
    90    51    50    1
    91    62    61    2
    92    82    81    1
    93    61    60    1
    94    27    29   ar
    95    50    47    1
    96    63    60    1
    97    30    29   ar
    98    30    31    1
    99    60    59    1
   100    46    47    1
   101    47    48    1
   102    59    57   am
   103    48    49    2
   104    48    55   am
   105    55    56    1
   106    57    58    2
   107    57    56    1
   108    32    33    1
   109    33    34    1
   110    33    36    1
   111    34    35    2
   112    36    37    1
