@<TRIPOS>MOLECULE
tmp/5kw2A00.pdb
 200 191 0 0 0
SMALL
GASTEIGER

@<TRIPOS>ATOM
      1  N         27.2810   27.0860   19.0310 N.3    32  PRO32      -0.2116
      2  CA        26.8850   27.4500   20.4010 C.3    32  PRO32       0.1372
      3  C         26.9430   26.3080   21.4140 C.2    32  PRO32       0.2244
      4  O         27.2720   26.5460   22.5750 O.2    32  PRO32      -0.2868
      5  CB        25.4390   27.9310   20.2320 C.3    32  PRO32       0.0268
      6  CG        25.3620   28.3740   18.8220 C.3    32  PRO32       0.0207
      7  CD        26.2120   27.4020   18.0670 C.3    32  PRO32       0.0892
      8  N         28.7010   26.2540   25.3570 N.3    36  TYR36      -0.1241
      9  CA        27.9710   25.9040   26.5680 C.3    36  TYR36       0.1605
     10  C         28.5440   24.6670   27.2550 C.2    36  TYR36       0.2264
     11  O         28.6250   24.6180   28.4850 O.2    36  TYR36      -0.2867
     12  CB        26.4750   25.7690   26.2800 C.3    36  TYR36       0.0534
     13  CG        25.8300   27.0930   25.9250 C.ar   36  TYR36      -0.0201
     14  CD1       25.8990   28.1770   26.8000 C.ar   36  TYR36      -0.0009
     15  CD2       25.1520   27.2640   24.7190 C.ar   36  TYR36      -0.0009
     16  CE1       25.3180   29.3980   26.4830 C.ar   36  TYR36       0.0417
     17  CE2       24.5610   28.4800   24.3950 C.ar   36  TYR36       0.0417
     18  CZ        24.6480   29.5430   25.2830 C.ar   36  TYR36       0.1957
     19  OH        24.0710   30.7560   24.9830 O.3    36  TYR36      -0.2866
     20  N         25.2550   25.8340   40.7710 N.3    83  TYR83      -0.1241
     21  CA        24.1390   26.5620   40.1700 C.3    83  TYR83       0.1605
     22  C         24.4330   26.9510   38.7300 C.2    83  TYR83       0.2264
     23  O         23.5550   26.8580   37.8690 O.2    83  TYR83      -0.2867
     24  CB        23.7740   27.8070   40.9870 C.3    83  TYR83       0.0534
     25  CG        22.9530   27.5240   42.2240 C.ar   83  TYR83      -0.0201
     26  CD1       21.6790   26.9580   42.1280 C.ar   83  TYR83      -0.0009
     27  CD2       23.4410   27.8390   43.4930 C.ar   83  TYR83      -0.0009
     28  CE1       20.9190   26.6980   43.2680 C.ar   83  TYR83       0.0417
     29  CE2       22.6870   27.5880   44.6410 C.ar   83  TYR83       0.0417
     30  CZ        21.4290   27.0180   44.5210 C.ar   83  TYR83       0.1957
     31  OH        20.6840   26.7700   45.6510 O.3    83  TYR83      -0.2866
     32  N         22.3420   26.4420   34.9760 N.3    87  GLY87      -0.1225
     33  CA        22.0770   27.4950   33.9970 C.3    87  GLY87       0.1811
     34  C         22.6460   27.2240   32.6200 C.2    87  GLY87       0.2280
     35  O         22.0090   27.5370   31.6120 O.2    87  GLY87      -0.2866
     36  N         20.4600   24.9010   31.0450 N.3    90  ALA90      -0.1231
     37  CA        19.3030   25.6720   30.6000 C.3    90  ALA90       0.1694
     38  C         19.6180   26.4860   29.3450 C.2    90  ALA90       0.2591
     39  O         18.7790   26.6030   28.4510 O.2    90  ALA90      -0.2718
     40  CB        18.8010   26.5810   31.7200 C.3    90  ALA90       0.0304
     41  N         20.8230   27.0450   29.2840 N.am   91  ALA91      -0.1980
     42  CA        21.2540   27.8030   28.1150 C.3    91  ALA91       0.1597
     43  C         21.4340   26.8760   26.9090 C.2    91  ALA91       0.2287
     44  O         20.9940   27.1960   25.7970 O.2    91  ALA91      -0.2864
     45  CB        22.5360   28.5610   28.4180 C.3    91  ALA91       0.0319
     46  N         18.2070   25.7380   25.5140 N.3    94  ALA94      -0.1231
     47  CA        17.6190   26.8580   24.7800 C.3    94  ALA94       0.1694
     48  C         18.1960   26.9360   23.3710 C.2    94  ALA94       0.2591
     49  O         17.4520   27.0980   22.4000 O.2    94  ALA94      -0.2718
     50  CB        17.8390   28.1680   25.5240 C.3    94  ALA94       0.0304
     51  N         19.5180   26.8090   23.2710 N.am   95  ALA95      -0.1980
     52  CA        20.2020   26.8140   21.9820 C.3    95  ALA95       0.1597
     53  C         19.7330   25.6440   21.1240 C.2    95  ALA95       0.2287
     54  O         19.5140   25.7980   19.9180 O.2    95  ALA95      -0.2864
     55  CB        21.7060   26.7680   22.1760 C.3    95  ALA95       0.0319
     56  N         15.9210   26.4490   20.0960 N.3    98  LEU98      -0.1245
     57  CA        15.9020   27.4560   19.0300 C.3    98  LEU98       0.1561
     58  C         16.4000   26.8960   17.6990 C.2    98  LEU98       0.2260
     59  O         15.8480   27.2060   16.6430 O.2    98  LEU98      -0.2867
     60  CB        16.7190   28.6890   19.4200 C.3    98  LEU98       0.0270
     61  CG        16.1520   29.6640   20.4550 C.3    98  LEU98       0.0019
     62  CD1       17.2300   30.6580   20.8640 C.3    98  LEU98       0.0001
     63  CD2       14.9110   30.3910   19.9420 C.3    98  LEU98       0.0001
     64  N         16.8260   31.3920   13.8210 N.3   106  TYR106     -0.1241
     65  CA        17.8940   31.2670   14.8020 C.3   106  TYR106      0.1605
     66  C         19.2500   31.5400   14.1580 C.2   106  TYR106      0.2264
     67  O         19.9920   32.4010   14.6280 O.2   106  TYR106     -0.2867
     68  CB        17.8500   29.8750   15.4420 C.3   106  TYR106      0.0534
     69  CG        18.9880   29.5260   16.3800 C.ar  106  TYR106     -0.0201
     70  CD1       19.2880   30.3220   17.4840 C.ar  106  TYR106     -0.0009
     71  CD2       19.7410   28.3690   16.1780 C.ar  106  TYR106     -0.0009
     72  CE1       20.3230   29.9850   18.3490 C.ar  106  TYR106      0.0417
     73  CE2       20.7750   28.0250   17.0350 C.ar  106  TYR106      0.0417
     74  CZ        21.0600   28.8350   18.1180 C.ar  106  TYR106      0.1957
     75  OH        22.0850   28.4930   18.9670 O.3   106  TYR106     -0.2866
     76  N         19.7920   35.2150   13.3400 N.3   109  PHE109     -0.1227
     77  CA        19.9240   36.0800   14.5120 C.3   109  PHE109      0.1736
     78  C         21.1690   35.7780   15.3520 C.2   109  PHE109      0.2595
     79  O         21.7250   36.6690   15.9930 O.2   109  PHE109     -0.2718
     80  CB        18.6560   35.9910   15.3720 C.3   109  PHE109      0.0547
     81  CG        18.7590   36.7020   16.6940 C.ar  109  PHE109     -0.0202
     82  CD1       18.8000   35.9770   17.8850 C.ar  109  PHE109     -0.0042
     83  CD2       18.8250   38.0950   16.7520 C.ar  109  PHE109     -0.0042
     84  CE1       18.8980   36.6250   19.1180 C.ar  109  PHE109     -0.0003
     85  CE2       18.9240   38.7560   17.9790 C.ar  109  PHE109     -0.0003
     86  CZ        18.9600   38.0180   19.1650 C.ar  109  PHE109     -0.0000
     87  N         21.5960   34.5200   15.3260 N.am  110  ARG110     -0.1966
     88  CA        22.6800   34.0000   16.1650 C.3   110  ARG110      0.1729
     89  C         24.0510   34.6210   15.8770 C.2   110  ARG110      0.2616
     90  O         24.4440   34.7610   14.7200 O.2   110  ARG110     -0.2715
     91  CB        22.7390   32.4790   15.9850 C.3   110  ARG110      0.0348
     92  CG        23.9200   31.7740   16.6140 C.3   110  ARG110      0.0492
     93  CD        24.0240   30.3570   16.0840 C.3   110  ARG110      0.2205
     94  NE        24.4690   30.3140   14.6920 N.pl3 110  ARG110     -0.0865
     95  CZ        24.5350   29.2060   13.9570 C.cat 110  ARG110      0.5346
     96  NH1       24.1780   28.0340   14.4730 N.pl3 110  ARG110      0.1354
     97  NH2       24.9560   29.2710   12.6990 N.pl3 110  ARG110      0.1354
     98  N         24.7630   34.9970   16.9420 N.am  111  ARG111     -0.1977
     99  CA        26.1760   35.4080   16.8660 C.3   111  ARG111      0.1597
    100  C         26.9760   34.7120   17.9790 C.2   111  ARG111      0.2287
    101  O         26.4790   34.5840   19.1000 O.2   111  ARG111     -0.2864
    102  CB        26.3340   36.9350   16.9850 C.3   111  ARG111      0.0334
    103  CG        25.4830   37.7710   16.0240 C.3   111  ARG111      0.0492
    104  CD        26.0310   37.7850   14.5990 C.3   111  ARG111      0.2205
    105  NE        24.9770   38.0560   13.6170 N.pl3 111  ARG111     -0.0865
    106  CZ        24.5850   39.2700   13.2300 C.cat 111  ARG111      0.5346
    107  NH1       25.1540   40.3630   13.7320 N.pl3 111  ARG111      0.1354
    108  NH2       23.6170   39.3930   12.3320 N.pl3 111  ARG111      0.1354
    109  N         27.1660   36.1330   21.5590 N.3   114  TYR114     -0.1227
    110  CA        25.9700   36.0330   22.4020 C.3   114  TYR114      0.1736
    111  C         26.0820   34.8580   23.3630 C.2   114  TYR114      0.2596
    112  O         25.7210   34.9740   24.5360 O.2   114  TYR114     -0.2718
    113  CB        24.6930   35.8870   21.5690 C.3   114  TYR114      0.0548
    114  CG        24.3440   37.0790   20.7090 C.ar  114  TYR114     -0.0200
    115  CD1       24.6440   38.3810   21.1180 C.ar  114  TYR114     -0.0009
    116  CD2       23.6830   36.9060   19.4940 C.ar  114  TYR114     -0.0009
    117  CE1       24.3140   39.4760   20.3260 C.ar  114  TYR114      0.0417
    118  CE2       23.3470   37.9940   18.6990 C.ar  114  TYR114      0.0417
    119  CZ        23.6680   39.2730   19.1180 C.ar  114  TYR114      0.1957
    120  OH        23.3390   40.3490   18.3300 O.3   114  TYR114     -0.2866
    121  N         26.5860   33.7350   22.8530 N.am  115  SER115     -0.1952
    122  CA        26.7690   32.5220   23.6460 C.3   115  SER115      0.1924
    123  C         27.6650   32.7910   24.8500 C.2   115  SER115      0.2314
    124  O         27.3130   32.4500   25.9810 O.2   115  SER115     -0.2863
    125  CB        27.3460   31.3970   22.7840 C.3   115  SER115      0.2116
    126  OG        26.5280   31.1490   21.6540 O.3   115  SER115     -0.2180
    127  N         25.8250   35.2300   27.2810 N.3   118  VAL118     -0.1245
    128  CA        24.9070   34.4560   28.1160 C.3   118  VAL118      0.1561
    129  C         25.6570   33.7480   29.2470 C.2   118  VAL118      0.2260
    130  O         25.2540   33.8310   30.4100 O.2   118  VAL118     -0.2867
    131  CB        24.1060   33.4350   27.2660 C.3   118  VAL118      0.0252
    132  CG1       23.4080   32.4040   28.1470 C.3   118  VAL118      0.0019
    133  CG2       23.0910   34.1520   26.3880 C.3   118  VAL118      0.0019
    134  N         26.8720   36.2620   31.8410 N.3   121  ALA121     -0.1231
    135  CA        25.7300   36.6750   32.6550 C.3   121  ALA121      0.1694
    136  C         25.3750   35.6280   33.7140 C.2   121  ALA121      0.2591
    137  O         24.9870   35.9810   34.8290 O.2   121  ALA121     -0.2718
    138  CB        24.5220   36.9750   31.7710 C.3   121  ALA121      0.0304
    139  N         25.5130   34.3500   33.3580 N.am  122  ILE122     -0.1980
    140  CA        25.2650   33.2500   34.2910 C.3   122  ILE122      0.1595
    141  C         26.2780   33.2630   35.4400 C.2   122  ILE122      0.2287
    142  O         25.8900   33.2730   36.6080 O.2   122  ILE122     -0.2864
    143  CB        25.2270   31.8710   33.5790 C.3   122  ILE122      0.0276
    144  CG1       23.9570   31.7490   32.7300 C.3   122  ILE122      0.0022
    145  CG2       25.2810   30.7250   34.5920 C.3   122  ILE122      0.0022
    146  CD1       23.9450   30.5650   31.7780 C.3   122  ILE122      0.0001
    147  N         25.5310   36.5070   37.5350 N.3   125  LEU125     -0.1231
    148  CA        24.3280   36.3950   38.3590 C.3   125  LEU125      0.1693
    149  C         24.5260   35.4560   39.5490 C.2   125  LEU125      0.2591
    150  O         24.1670   35.7990   40.6770 O.2   125  LEU125     -0.2718
    151  CB        23.1280   35.9490   37.5160 C.3   125  LEU125      0.0284
    152  CG        21.7810   35.7570   38.2220 C.3   125  LEU125      0.0019
    153  CD1       21.2770   37.0620   38.8440 C.3   125  LEU125      0.0001
    154  CD2       20.7520   35.1860   37.2570 C.3   125  LEU125      0.0001
    155  N         25.1070   34.2860   39.2870 N.am  126  VAL126     -0.1980
    156  CA        25.3240   33.2610   40.3090 C.3   126  VAL126      0.1595
    157  C         26.2270   33.7660   41.4400 C.2   126  VAL126      0.2287
    158  O         25.8400   33.7300   42.6120 O.2   126  VAL126     -0.2864
    159  CB        25.8790   31.9450   39.6840 C.3   126  VAL126      0.0276
    160  CG1       26.4740   31.0320   40.7350 C.3   126  VAL126      0.0022
    161  CG2       24.7840   31.2160   38.9280 C.3   126  VAL126      0.0022
    162  N         15.3390   31.8650   41.9570 N.3   160  LEU160     -0.1231
    163  CA        16.0000   32.4850   40.8100 C.3   160  LEU160      0.1693
    164  C         17.0490   31.6030   40.1400 C.2   160  LEU160      0.2591
    165  O         17.1010   31.5390   38.9120 O.2   160  LEU160     -0.2718
    166  CB        16.6130   33.8340   41.2100 C.3   160  LEU160      0.0284
    167  CG        17.3330   34.7050   40.1700 C.3   160  LEU160      0.0019
    168  CD1       16.4620   34.9850   38.9410 C.3   160  LEU160      0.0001
    169  CD2       17.7860   36.0110   40.8110 C.3   160  LEU160      0.0001
    170  N         17.8730   30.9300   40.9400 N.am  161  LEU161     -0.1980
    171  CA        19.0440   30.2110   40.4250 C.3   161  LEU161      0.1596
    172  C         18.8070   28.7300   40.1000 C.2   161  LEU161      0.2287
    173  O         19.6800   28.0730   39.5240 O.2   161  LEU161     -0.2864
    174  CB        20.2340   30.3700   41.3800 C.3   161  LEU161      0.0297
    175  CG        20.7280   31.7920   41.6630 C.3   161  LEU161      0.0022
    176  CD1       21.6710   31.7980   42.8470 C.3   161  LEU161      0.0001
    177  CD2       21.4060   32.4010   40.4390 C.3   161  LEU161      0.0001
    178  N         13.7630   28.7450   38.1520 N.3   164  LEU164     -0.1231
    179  CA        13.5940   29.4880   36.9080 C.3   164  LEU164      0.1678
    180  C         14.3000   28.7990   35.7280 C.2   164  LEU164      0.2434
    181  O         13.6650   28.5670   34.6980 O.2   164  LEU164     -0.2733
    182  CB        14.0240   30.9530   37.0720 C.3   164  LEU164      0.0284
    183  CG        13.5460   31.9820   36.0380 C.3   164  LEU164      0.0019
    184  CD1       12.0270   31.9550   35.8410 C.3   164  LEU164      0.0001
    185  CD2       14.0040   33.3780   36.4360 C.3   164  LEU164      0.0001
    186  N         15.6040   28.4660   35.8680 N.am  165  PRO165     -0.2729
    187  CA        16.2590   27.6440   34.8530 C.3   165  PRO165      0.1401
    188  C         15.5170   26.3420   34.5730 C.2   165  PRO165      0.2269
    189  O         15.3840   25.9590   33.4110 O.2   165  PRO165     -0.2865
    190  CB        17.6160   27.3380   35.4800 C.3   165  PRO165      0.0296
    191  CG        17.9000   28.4940   36.3080 C.3   165  PRO165      0.0237
    192  CD        16.5860   28.9980   36.8320 C.3   165  PRO165      0.0939
    193  N         12.3330   26.9580   32.4990 N.3   168  ILE168     -0.1245
    194  CA        12.7830   27.2970   31.1480 C.3   168  ILE168      0.1561
    195  C         13.2750   26.0580   30.3820 C.2   168  ILE168      0.2260
    196  O         12.9440   25.8740   29.2050 O.2   168  ILE168     -0.2867
    197  CB        13.8420   28.4360   31.1740 C.3   168  ILE168      0.0252
    198  CG1       13.1610   29.7680   31.5240 C.3   168  ILE168      0.0019
    199  CG2       14.5800   28.5410   29.8380 C.3   168  ILE168      0.0019
    200  CD1       14.1070   30.8860   31.9390 C.3   168  ILE168      0.0001
@<TRIPOS>BOND
     1   108   106    1
     2    97    95    1
     3   106   105    2
     4   106   107    1
     5    76    77    1
     6   105   104    1
     7    64    65    1
     8    95    96    1
     9    95    94    2
    10    66    67    2
    11    66    65    1
    12    77    78    1
    13    77    80    1
    14   104   103    1
    15    94    93    1
    16    90    89    2
    17    65    68    1
    18    87    78   am
    19    87    88    1
    20    78    79    2
    21    80    81    1
    22    68    69    1
    23    89    88    1
    24    89    98   am
    25    91    88    1
    26    91    92    1
    27   103   102    1
    28    93    92    1
    29    71    69   ar
    30    71    73   ar
    31    69    70   ar
    32    59    58    2
    33    81    83   ar
    34    81    82   ar
    35    83    85   ar
    36    99    98    1
    37    99   102    1
    38    99   100    1
    39    73    74   ar
    40    70    72   ar
    41    58    57    1
    42    82    84   ar
    43    85    86   ar
    44   100   101    2
    45     7     6    1
    46     7     1    1
    47    74    72   ar
    48    74    75    1
    49   120   119    1
    50   118   119   ar
    51   118   116   ar
    52     6     5    1
    53    57    60    1
    54    57    56    1
    55     1     2    1
    56    84    86   ar
    57   119   117   ar
    58    60    61    1
    59   116   114   ar
    60    54    53    2
    61    63    61    1
    62     5     2    1
    63   117   115   ar
    64     2     3    1
    65    61    62    1
    66   114   115   ar
    67   114   113    1
    68    53    52    1
    69     3     4    2
    70   109   110    1
    71   113   110    1
    72   126   125    1
    73    52    55    1
    74    52    51    1
    75    49    48    2
    76   110   111    1
    77   125   122    1
    78   121   111   am
    79   121   122    1
    80    51    48   am
    81   111   112    2
    82    48    47    1
    83   122   123    1
    84    17    15   ar
    85    17    18   ar
    86    15    13   ar
    87    47    46    1
    88    47    50    1
    89   123   124    2
    90    19    18    1
    91    18    16   ar
    92     8     9    1
    93    44    43    2
    94    13    12    1
    95    13    14   ar
    96    12     9    1
    97   133   131    1
    98    16    14   ar
    99     9    10    1
   100    43    42    1
   101    10    11    2
   102   131   128    1
   103   131   132    1
   104   127   128    1
   105    42    45    1
   106    42    41    1
   107   128   129    1
   108    39    38    2
   109   196   195    2
   110   129   130    2
   111    41    38   am
   112    38    37    1
   113   199   197    1
   114   195   194    1
   115    37    36    1
   116    37    40    1
   117   194   197    1
   118   194   193    1
   119   197   198    1
   120   198   200    1
   121    35    34    2
   122   138   135    1
   123   146   144    1
   124   134   135    1
   125    34    33    1
   126   135   136    1
   127   144   143    1
   128   139   136   am
   129   139   140    1
   130   189   188    2
   131   143   140    1
   132   143   145    1
   133   136   137    2
   134    33    32    1
   135   140   141    1
   136   188   187    1
   137   181   180    2
   138   187   190    1
   139   187   186    1
   140   141   142    2
   141   190   191    1
   142   180   186   am
   143   180   179    1
   144   184   183    1
   145   186   192    1
   146   183   185    1
   147   183   182    1
   148   191   192    1
   149   179   182    1
   150   179   178    1
   151   154   152    1
   152   151   152    1
   153   151   148    1
   154   147   148    1
   155    23    22    2
   156   152   153    1
   157   148   149    1
   158    22    21    1
   159   165   164    2
   160   161   159    1
   161   168   167    1
   162   155   149   am
   163   155   156    1
   164   173   172    2
   165   149   150    2
   166   159   156    1
   167   159   160    1
   168   172   171    1
   169   164   163    1
   170   164   170   am
   171   167   169    1
   172   167   166    1
   173    21    20    1
   174    21    24    1
   175   156   157    1
   176   171   170    1
   177   171   174    1
   178   177   175    1
   179   163   166    1
   180   163   162    1
   181    24    25    1
   182   174   175    1
   183   157   158    2
   184   175   176    1
   185    26    25   ar
   186    26    28   ar
   187    25    27   ar
   188    28    30   ar
   189    27    29   ar
   190    30    29   ar
   191    30    31    1
