@<TRIPOS>MOLECULE
tmp/5kw6A00.pdb
 101 99 0 0 0
SMALL
GASTEIGER

@<TRIPOS>ATOM
      1  N         16.4090   22.9850    8.3780 N.3    19  TYR19      -0.1241
      2  CA        17.7410   23.0300    7.8120 C.3    19  TYR19       0.1605
      3  C         17.5480   23.4110    6.3530 C.2    19  TYR19       0.2264
      4  O         16.6200   22.9230    5.6930 O.2    19  TYR19      -0.2867
      5  CB        18.4040   21.6530    7.8930 C.3    19  TYR19       0.0534
      6  CG        19.5280   21.4640    6.8970 C.ar   19  TYR19      -0.0201
      7  CD1       20.8160   21.9220    7.1680 C.ar   19  TYR19      -0.0009
      8  CD2       19.2940   20.8450    5.6700 C.ar   19  TYR19      -0.0009
      9  CE1       21.8460   21.7640    6.2400 C.ar   19  TYR19       0.0417
     10  CE2       20.3120   20.6860    4.7370 C.ar   19  TYR19       0.0417
     11  CZ        21.5840   21.1470    5.0290 C.ar   19  TYR19       0.1957
     12  OH        22.5880   20.9910    4.1010 O.3    19  TYR19      -0.2866
     13  N         19.8680   23.7050    2.8690 N.3    21  GLY21      -0.1210
     14  CA        21.1660   23.4210    2.2860 C.3    21  GLY21       0.1956
     15  C         21.2560   23.6930    0.8040 C.2    21  GLY21       0.2612
     16  O         20.2550   23.9920    0.1450 O.2    21  GLY21      -0.2717
     17  N         22.4700   23.5710    0.2810 N.am   22  SER22      -0.1952
     18  CA        22.7500   23.8170   -1.1270 C.3    22  SER22       0.1924
     19  C         22.4160   25.2670   -1.5000 C.2    22  SER22       0.2314
     20  O         21.8290   25.5430   -2.5470 O.2    22  SER22      -0.2863
     21  CB        21.9700   22.8250   -1.9980 C.3    22  SER22       0.2116
     22  OG        22.5410   22.7330   -3.2880 O.3    22  SER22      -0.2180
     23  N         20.4210   31.0740   11.4370 N.3    46  ASP46      -0.1239
     24  CA        21.7930   30.7460   11.8130 C.3    46  ASP46       0.1674
     25  C         22.4750   30.3090   10.5210 C.2    46  ASP46       0.2266
     26  O         22.2340   29.2100   10.0180 O.2    46  ASP46      -0.2867
     27  CB        21.8090   29.6130   12.8450 C.3    46  ASP46       0.1410
     28  CG        21.4860   30.0950   14.2600 C.2    46  ASP46       0.3668
     29  OD1       20.9340   31.2100   14.4240 O.co2  46  ASP46      -0.2456
     30  OD2       21.7790   29.3510   15.2180 O.co2  46  ASP46      -0.2456
     31  N         29.0510   28.3250    4.4730 N.3    57  LYS57      -0.1231
     32  CA        29.2840   26.9400    4.0800 C.3    57  LYS57       0.1693
     33  C         28.1810   26.2870    3.2480 C.2    57  LYS57       0.2593
     34  O         28.1670   25.0690    3.0940 O.2    57  LYS57      -0.2718
     35  CB        29.5560   26.0980    5.3330 C.3    57  LYS57       0.0285
     36  CG        30.7930   26.5320    6.1150 C.3    57  LYS57       0.0035
     37  CD        30.9590   25.7100    7.3860 C.3    57  LYS57       0.0206
     38  CE        32.2170   26.1050    8.1430 C.3    57  LYS57       0.1093
     39  NZ        33.4500   25.8080    7.3530 N.3    57  LYS57      -0.1314
     40  N         27.2610   27.0850    2.7130 N.am   58  GLY58      -0.1942
     41  CA        26.2020   26.5250    1.8840 C.3    58  GLY58       0.2014
     42  C         24.9430   26.0360    2.5850 C.2    58  GLY58       0.2638
     43  O         24.0630   25.4510    1.9470 O.2    58  GLY58      -0.2714
     44  N         24.8430   26.2620    3.8900 N.am   59  PHE59      -0.1973
     45  CA        23.6590   25.8370    4.6230 C.3    59  PHE59       0.1639
     46  C         23.3280   26.7970    5.7450 C.2    59  PHE59       0.2290
     47  O         24.1780   27.5820    6.1800 O.2    59  PHE59      -0.2864
     48  CB        23.8480   24.4190    5.1670 C.3    59  PHE59       0.0560
     49  CG        24.8600   24.3130    6.2700 C.ar   59  PHE59      -0.0200
     50  CD1       24.4700   24.4140    7.6000 C.ar   59  PHE59      -0.0042
     51  CD2       26.2060   24.0980    5.9790 C.ar   59  PHE59      -0.0042
     52  CE1       25.4010   24.3020    8.6300 C.ar   59  PHE59      -0.0003
     53  CE2       27.1500   23.9860    7.0050 C.ar   59  PHE59      -0.0003
     54  CZ        26.7470   24.0870    8.3310 C.ar   59  PHE59      -0.0000
     55  N         20.0860   27.5040    9.1400 N.3    61  PHE61      -0.1241
     56  CA        18.9310   27.0160    9.8750 C.3    61  PHE61       0.1605
     57  C         17.9990   28.1970   10.0710 C.2    61  PHE61       0.2264
     58  O         18.3720   29.2130   10.6610 O.2    61  PHE61      -0.2867
     59  CB        19.3350   26.4190   11.2180 C.3    61  PHE61       0.0534
     60  CG        20.0770   25.1230   11.0940 C.ar   61  PHE61      -0.0203
     61  CD1       21.4650   25.1040   11.0280 C.ar   61  PHE61      -0.0042
     62  CD2       19.3820   23.9220   10.9940 C.ar   61  PHE61      -0.0042
     63  CE1       22.1550   23.9040   10.8650 C.ar   61  PHE61      -0.0003
     64  CE2       20.0640   22.7100   10.8290 C.ar   61  PHE61      -0.0003
     65  CZ        21.4550   22.7050   10.7650 C.ar   61  PHE61      -0.0000
     66  N         15.2280   20.3560    5.2410 N.3    90  GLY90      -0.1210
     67  CA        15.0190   19.1980    6.0880 C.3    90  GLY90       0.1956
     68  C         14.8700   19.5820    7.5420 C.2    90  GLY90       0.2612
     69  O         14.9740   20.7600    7.9090 O.2    90  GLY90      -0.2717
     70  N         14.6120   18.5860    8.3780 N.am   91  ARG91      -0.1966
     71  CA        14.4690   18.8230    9.7990 C.3    91  ARG91       0.1714
     72  C         15.8710   18.8040   10.3880 C.2    91  ARG91       0.2458
     73  O         16.7770   18.1880    9.8240 O.2    91  ARG91      -0.2730
     74  CB        13.6360   17.7170   10.4500 C.3    91  ARG91       0.0347
     75  CG        12.3190   17.4430    9.7670 C.3    91  ARG91       0.0492
     76  CD        11.3990   16.6010   10.6420 C.3    91  ARG91       0.2205
     77  NE        10.2240   16.1630    9.8940 N.pl3  91  ARG91      -0.0865
     78  CZ        10.2420   15.2210    8.9530 C.cat  91  ARG91       0.5346
     79  NH1       11.3730   14.6030    8.6450 N.pl3  91  ARG91       0.1354
     80  NH2        9.1310   14.9140    8.2990 N.pl3  91  ARG91       0.1354
     81  N         16.0790   19.5020   11.5140 N.am   92  PRO92      -0.2716
     82  CA        17.4130   19.5020   12.1200 C.3    92  PRO92       0.1536
     83  C         17.8240   18.0610   12.4370 C.2    92  PRO92       0.2599
     84  O         17.0180   17.2770   12.9460 O.2    92  PRO92      -0.2715
     85  CB        17.2180   20.3480   13.3730 C.3    92  PRO92       0.0310
     86  CG        16.1790   21.3560   12.9260 C.3    92  PRO92       0.0237
     87  CD        15.1910   20.4740   12.1830 C.3    92  PRO92       0.0939
     88  N         19.0700   17.7160   12.1210 N.am   93  SER93      -0.1936
     89  CA        19.5730   16.3670   12.3650 C.3    93  SER93       0.2055
     90  C         19.7880   16.1130   13.8500 C.2    93  SER93       0.2643
     91  O         19.9290   14.9660   14.2840 O.2    93  SER93      -0.2714
     92  CB        20.8700   16.1340   11.5920 C.3    93  SER93       0.2130
     93  OG        20.6130   16.1260   10.2010 O.3    93  SER93      -0.2179
     94  N         19.8210   17.1910   14.6250 N.am   94  ASN94      -0.1971
     95  CA        19.9660   17.0830   16.0670 C.3    94  ASN94       0.1688
     96  C         18.5820   17.0650   16.6890 C.2    94  ASN94       0.2292
     97  O         17.7750   17.9660   16.4610 O.2    94  ASN94      -0.2864
     98  CB        20.7160   18.2720   16.6530 C.3    94  ASN94       0.1181
     99  CG        20.4350   18.4470   18.1360 C.2    94  ASN94       0.2629
    100  OD1       19.8660   19.4550   18.5630 O.2    94  ASN94      -0.2716
    101  ND2       20.8190   17.4520   18.9280 N.am   94  ASN94      -0.0877
@<TRIPOS>BOND
     1    22    21    1
     2    20    19    2
     3    21    18    1
     4    19    18    1
     5    18    17    1
     6    16    15    2
     7    17    15   am
     8    15    14    1
     9    41    42    1
    10    41    40    1
    11    43    42    2
    12    14    13    1
    13    42    44   am
    14    40    33   am
    15    34    33    2
    16    33    32    1
    17    44    45    1
    18    32    31    1
    19    32    35    1
    20    12    11    1
    21    45    48    1
    22    45    46    1
    23    10    11   ar
    24    10     8   ar
    25    11     9   ar
    26    48    49    1
    27    66    67    1
    28    35    36    1
    29     8     6   ar
    30     4     3    2
    31    46    47    2
    32    51    49   ar
    33    51    53   ar
    34    67    68    1
    35    36    37    1
    36     9     7   ar
    37    49    50   ar
    38     3     2    1
    39     6     7   ar
    40     6     5    1
    41    53    54   ar
    42    39    38    1
    43    37    38    1
    44    68    69    2
    45    68    70   am
    46    50    52   ar
    47     2     5    1
    48     2     1    1
    49    80    78    1
    50    54    52   ar
    51    70    71    1
    52    79    78    1
    53    78    77    2
    54    55    56    1
    55    75    74    1
    56    75    76    1
    57    71    72    1
    58    71    74    1
    59    73    72    2
    60    56    57    1
    61    56    59    1
    62    77    76    1
    63    26    25    2
    64    57    58    2
    65    93    92    1
    66    72    81   am
    67    25    24    1
    68    65    64   ar
    69    65    63   ar
    70    64    62   ar
    71    63    61   ar
    72    62    60   ar
    73    61    60   ar
    74    60    59    1
    75    23    24    1
    76    81    82    1
    77    81    87    1
    78    92    89    1
    79    24    27    1
    80    82    83    1
    81    82    85    1
    82    88    89    1
    83    88    83   am
    84    87    86    1
    85    89    90    1
    86    83    84    2
    87    27    28    1
    88    86    85    1
    89    90    91    2
    90    90    94   am
    91    28    29   ar
    92    28    30   ar
    93    94    95    1
    94    95    98    1
    95    95    96    1
    96    97    96    2
    97    98    99    1
    98    99   100    2
    99    99   101   am
