@<TRIPOS>MOLECULE
tmp/5kwaB00.pdb
 145 138 0 0 0
SMALL
GASTEIGER

@<TRIPOS>ATOM
      1  N        158.6040   63.0800   68.1260 N.3   140  ASP140     -0.1225
      2  CA       157.8330   64.3170   68.2770 C.3   140  ASP140      0.1805
      3  C        156.7720   64.2050   69.3740 C.2   140  ASP140      0.2598
      4  O        156.2300   65.2330   69.7920 O.2   140  ASP140     -0.2718
      5  CB       157.1420   64.7140   66.9620 C.3   140  ASP140      0.1424
      6  CG       158.1150   64.9040   65.7970 C.2   140  ASP140      0.3668
      7  OD1      159.2930   65.2620   66.0250 O.co2 140  ASP140     -0.2456
      8  OD2      157.6850   64.6950   64.6400 O.co2 140  ASP140     -0.2456
      9  N        156.4590   62.9810   69.8210 N.am  141  ILE141     -0.1966
     10  CA       155.4040   62.7430   70.8230 C.3   141  ILE141      0.1727
     11  C        156.0130   62.5720   72.1990 C.2   141  ILE141      0.2616
     12  O        156.9040   61.7520   72.3680 O.2   141  ILE141     -0.2715
     13  CB       154.5800   61.4750   70.5070 C.3   141  ILE141      0.0290
     14  CG1      154.0660   61.5150   69.0640 C.3   141  ILE141      0.0022
     15  CG2      153.4120   61.3460   71.4830 C.3   141  ILE141      0.0023
     16  CD1      153.2080   60.3310   68.6770 C.3   141  ILE141      0.0001
     17  N        155.5010   63.3190   73.1750 N.am  142  GLY142     -0.1955
     18  CA       155.9590   63.2470   74.5620 C.3   142  GLY142      0.1869
     19  C        154.9630   62.5760   75.5020 C.2   142  GLY142      0.2309
     20  O        153.7550   62.7800   75.3920 O.2   142  GLY142     -0.2863
     21  N        154.0260   59.3700   76.1660 N.3   144  LEU144     -0.1245
     22  CA       153.1550   58.2640   75.7630 C.3   144  LEU144      0.1561
     23  C        153.9590   57.0370   75.3280 C.2   144  LEU144      0.2260
     24  O        153.6310   56.3940   74.3340 O.2   144  LEU144     -0.2867
     25  CB       152.2040   58.7280   74.6480 C.3   144  LEU144      0.0270
     26  CG       151.2150   59.8570   74.9800 C.3   144  LEU144      0.0019
     27  CD1      150.5270   60.3870   73.7260 C.3   144  LEU144      0.0001
     28  CD2      150.1770   59.3970   75.9970 C.3   144  LEU144      0.0001
     29  N        140.6070   65.3660   74.6830 N.3   182  PRO182     -0.2102
     30  CA       141.1980   66.0240   73.5260 C.3   182  PRO182      0.1504
     31  C        142.5260   66.7160   73.8020 C.2   182  PRO182      0.2576
     32  O        142.9040   66.9440   74.9540 O.2   182  PRO182     -0.2718
     33  CB       140.1250   67.0160   73.0850 C.3   182  PRO182      0.0282
     34  CG       139.3000   67.2650   74.2800 C.3   182  PRO182      0.0208
     35  CD       139.4030   66.0610   75.1640 C.3   182  PRO182      0.0893
     36  N        143.2140   67.0330   72.7100 N.am  183  GLY183     -0.1943
     37  CA       144.5430   67.6260   72.7250 C.3   183  GLY183      0.2014
     38  C        145.6290   66.8060   73.3880 C.2   183  GLY183      0.2639
     39  O        146.6140   67.3810   73.8540 O.2   183  GLY183     -0.2714
     40  N        145.4780   65.4780   73.4160 N.am  184  CYS184     -0.1953
     41  CA       146.4050   64.6220   74.1700 C.3   184  CYS184      0.1843
     42  C        147.3500   63.7290   73.3530 C.2   184  CYS184      0.2626
     43  O        148.3240   63.2180   73.9150 O.2   184  CYS184     -0.2714
     44  CB       145.6310   63.8180   75.2080 C.3   184  CYS184      0.0997
     45  SG       145.0700   64.8650   76.5780 S.3   184  CYS184     -0.0797
     46  N        147.0980   63.5580   72.0530 N.am  185  GLY185     -0.1940
     47  CA       148.0650   62.8850   71.1650 C.3   185  GLY185      0.2014
     48  C        147.5930   61.8600   70.1470 C.2   185  GLY185      0.2639
     49  O        148.4210   61.1960   69.5270 O.2   185  GLY185     -0.2714
     50  N        146.2900   61.7210   69.9460 N.am  186  LYS186     -0.1963
     51  CA       145.7700   60.6390   69.1230 C.3   186  LYS186      0.1728
     52  C        146.0730   60.8420   67.6480 C.2   186  LYS186      0.2617
     53  O        146.3260   59.8750   66.9350 O.2   186  LYS186     -0.2715
     54  CB       144.2700   60.4800   69.3010 C.3   186  LYS186      0.0311
     55  CG       143.8430   60.1640   70.7180 C.3   186  LYS186      0.0038
     56  CD       142.3340   59.9610   70.7880 C.3   186  LYS186      0.0206
     57  CE       141.5830   61.2810   70.8130 C.3   186  LYS186      0.1093
     58  NZ       141.7120   61.9530   72.1310 N.3   186  LYS186     -0.1314
     59  N        146.0290   62.0820   67.1700 N.am  187  THR187     -0.1937
     60  CA       146.3910   62.3340   65.7830 C.3   187  THR187      0.2028
     61  C        147.8750   62.0640   65.6310 C.2   187  THR187      0.2642
     62  O        148.2770   61.3670   64.7130 O.2   187  THR187     -0.2714
     63  CB       146.0860   63.7680   65.3280 C.3   187  THR187      0.1808
     64  OG1      144.7520   64.1390   65.7140 O.3   187  THR187     -0.2208
     65  CG2      146.2440   63.8970   63.8140 C.3   187  THR187      0.0379
     66  N        148.6740   62.5940   66.5550 N.am  188  LEU188     -0.1977
     67  CA       150.1220   62.3980   66.5300 C.3   188  LEU188      0.1596
     68  C        150.5200   60.9190   66.5160 C.2   188  LEU188      0.2287
     69  O        151.3120   60.4980   65.6630 O.2   188  LEU188     -0.2864
     70  CB       150.7810   63.0740   67.7340 C.3   188  LEU188      0.0297
     71  CG       150.7770   64.5970   67.8570 C.3   188  LEU188      0.0022
     72  CD1      151.5470   64.9930   69.1150 C.3   188  LEU188      0.0001
     73  CD2      151.3520   65.2730   66.6160 C.3   188  LEU188      0.0001
     74  N        140.1970   60.1530   61.6780 N.3   245  ASP245     -0.1225
     75  CA       140.4200   61.1010   62.7620 C.3   245  ASP245      0.1805
     76  C        139.1270   61.8570   63.0380 C.2   245  ASP245      0.2597
     77  O        138.2620   61.9390   62.1720 O.2   245  ASP245     -0.2718
     78  CB       141.5230   62.0810   62.3420 C.3   245  ASP245      0.1424
     79  CG       142.2610   62.6990   63.5160 C.2   245  ASP245      0.3668
     80  OD1      141.8590   62.5280   64.6840 O.co2 245  ASP245     -0.2456
     81  OD2      143.2740   63.3740   63.2530 O.co2 245  ASP245     -0.2456
     82  N        139.0020   62.4120   64.2390 N.am  246  GLU246     -0.1979
     83  CA       137.8200   63.1920   64.6450 C.3   246  GLU246      0.1602
     84  C        136.4990   62.4520   64.3610 C.2   246  GLU246      0.2287
     85  O        135.5220   63.0430   63.8870 O.2   246  GLU246     -0.2864
     86  CB       137.8060   64.5760   63.9700 C.3   246  GLU246      0.0415
     87  CG       139.0930   65.3950   64.0580 C.3   246  GLU246      0.1163
     88  CD       138.9660   66.7950   63.4330 C.2   246  GLU246      0.3649
     89  OE1      137.8330   67.2570   63.1420 O.co2 246  GLU246     -0.2457
     90  OE2      140.0120   67.4540   63.2330 O.co2 246  GLU246     -0.2457
     91  N        137.3130   61.5310   70.7930 N.3   276  ASN276     -0.1240
     92  CA       137.3290   62.2220   72.0880 C.3   276  ASN276      0.1653
     93  C        136.2560   61.7200   73.0570 C.2   276  ASN276      0.2266
     94  O        136.4130   61.8550   74.2730 O.2   276  ASN276     -0.2867
     95  CB       137.1770   63.7390   71.8950 C.3   276  ASN276      0.1155
     96  CG       138.3460   64.3550   71.1440 C.2   276  ASN276      0.2627
     97  OD1      138.1660   65.1350   70.2150 O.2   276  ASN276     -0.2716
     98  ND2      139.5500   64.0070   71.5440 N.am  276  ASN276     -0.0877
     99  N        156.7450   66.4670   77.1750 N.3   308  ILE308     -0.1245
    100  CA       156.0110   67.2550   76.1560 C.3   308  ILE308      0.1561
    101  C        156.6110   68.6590   75.9770 C.2   308  ILE308      0.2260
    102  O        156.7700   69.1200   74.8440 O.2   308  ILE308     -0.2867
    103  CB       154.4920   67.3730   76.4720 C.3   308  ILE308      0.0252
    104  CG1      153.8130   66.0000   76.4230 C.3   308  ILE308      0.0019
    105  CG2      153.7850   68.2870   75.4710 C.3   308  ILE308      0.0019
    106  CD1      152.4560   65.9580   77.0990 C.3   308  ILE308      0.0001
    107  N        159.6750   69.0520   73.7370 N.3   311  LYS311     -0.1231
    108  CA       159.4590   69.0930   72.3000 C.3   311  LYS311      0.1693
    109  C        159.3270   70.5120   71.7830 C.2   311  LYS311      0.2592
    110  O        159.5690   70.7460   70.6090 O.2   311  LYS311     -0.2718
    111  CB       158.2260   68.2650   71.9060 C.3   311  LYS311      0.0285
    112  CG       158.4910   66.7670   71.8070 C.3   311  LYS311      0.0035
    113  CD       159.1760   66.2020   73.0430 C.3   311  LYS311      0.0206
    114  CE       159.2370   64.6870   73.0580 C.3   311  LYS311      0.1093
    115  NZ       160.3210   64.2000   72.1750 N.3   311  LYS311     -0.1314
    116  N        158.9460   71.4520   72.6460 N.am  312  TYR312     -0.1976
    117  CA       158.6460   72.8310   72.2270 C.3   312  TYR312      0.1639
    118  C        159.6010   73.8900   72.7860 C.2   312  TYR312      0.2290
    119  O        159.8440   74.8930   72.1170 O.2   312  TYR312     -0.2864
    120  CB       157.1780   73.1530   72.5520 C.3   312  TYR312      0.0560
    121  CG       156.2420   72.1410   71.9260 C.ar  312  TYR312     -0.0198
    122  CD1      156.1260   72.0470   70.5440 C.ar  312  TYR312     -0.0009
    123  CD2      155.5130   71.2470   72.7100 C.ar  312  TYR312     -0.0009
    124  CE1      155.3000   71.1060   69.9520 C.ar  312  TYR312      0.0417
    125  CE2      154.6770   70.2990   72.1280 C.ar  312  TYR312      0.0417
    126  CZ       154.5750   70.2310   70.7460 C.ar  312  TYR312      0.1957
    127  OH       153.7510   69.3060   70.1500 O.3   312  TYR312     -0.2866
    128  N        148.5320   67.9090   76.0030 N.3   376  GLY376     -0.1210
    129  CA       149.6970   68.2370   75.1980 C.3   376  GLY376      0.1956
    130  C        149.4550   69.4750   74.3590 C.2   376  GLY376      0.2611
    131  O        150.3660   70.2690   74.1610 O.2   376  GLY376     -0.2717
    132  N        148.2190   69.6400   73.8840 N.am  377  ALA377     -0.1979
    133  CA       147.8100   70.8280   73.1330 C.3   377  ALA377      0.1597
    134  C        147.8390   72.0870   73.9800 C.2   377  ALA377      0.2287
    135  O        148.0690   73.1760   73.4540 O.2   377  ALA377     -0.2864
    136  CB       146.4240   70.6280   72.5330 C.3   377  ALA377      0.0319
    137  N        151.7390   72.9760   74.5810 N.3   380  GLN380     -0.1245
    138  CA       152.2250   73.6650   73.3960 C.3   380  GLN380      0.1566
    139  C        151.6780   75.0810   73.3130 C.2   380  GLN380      0.2260
    140  O        152.4220   76.0050   72.9920 O.2   380  GLN380     -0.2867
    141  CB       151.8680   72.9110   72.1210 C.3   380  GLN380      0.0367
    142  CG       152.6520   73.3960   70.9120 C.3   380  GLN380      0.0905
    143  CD       151.7710   73.7910   69.7650 C.2   380  GLN380      0.2608
    144  OE1      150.7910   74.5200   69.9440 O.2   380  GLN380     -0.2717
    145  NE2      152.1180   73.3280   68.5680 N.am  380  GLN380     -0.0878
@<TRIPOS>BOND
     1    74    75    1
     2    77    76    2
     3    78    75    1
     4    78    79    1
     5    75    76    1
     6    76    82   am
     7    89    88   ar
     8    90    88   ar
     9    81    79   ar
    10    88    87    1
    11    79    80   ar
    12    65    63    1
    13    85    84    2
    14    86    87    1
    15    86    83    1
    16    82    83    1
    17    84    83    1
    18     8     6   ar
    19    62    61    2
    20    63    64    1
    21    63    60    1
    22    61    60    1
    23    61    66   am
    24    69    68    2
    25    60    59    1
    26     6     7   ar
    27     6     5    1
    28    68    67    1
    29    67    66    1
    30    67    70    1
    31    73    71    1
    32    53    52    2
    33     5     2    1
    34    59    52   am
    35    52    51    1
    36    70    71    1
    37    71    72    1
    38     1     2    1
    39     2     3    1
    40   145   143   am
    41    16    14    1
    42    14    13    1
    43    51    54    1
    44    51    50    1
    45    54    55    1
    46     3     4    2
    47     3     9   am
    48    49    48    2
    49   143   144    2
    50   143   142    1
    51     9    10    1
    52    50    48   am
    53   124   122   ar
    54   124   126   ar
    55    48    47    1
    56   127   126    1
    57    97    96    2
    58    13    10    1
    59    13    15    1
    60   122   121   ar
    61   110   109    2
    62    55    56    1
    63   126   125   ar
    64    56    57    1
    65    91    92    1
    66    57    58    1
    67    10    11    1
    68   142   141    1
    69    96    98   am
    70    96    95    1
    71    47    46    1
    72   109   108    1
    73   109   116   am
    74   112   111    1
    75   112   113    1
    76    95    92    1
    77   111   108    1
    78   121   120    1
    79   121   123   ar
    80    46    42   am
    81    92    93    1
    82   119   118    2
    83   141   138    1
    84   125   123   ar
    85   115   114    1
    86    11    12    2
    87    11    17   am
    88   117   120    1
    89   117   116    1
    90   117   118    1
    91   108   107    1
    92   136   133    1
    93    36    37    1
    94    36    31   am
    95    37    38    1
    96   140   139    2
    97   113   114    1
    98    93    94    2
    99    33    30    1
   100    33    34    1
   101   133   132    1
   102   133   134    1
   103    17    18    1
   104   139   138    1
   105    42    43    2
   106    42    41    1
   107    38    40   am
   108    38    39    2
   109   138   137    1
   110    40    41    1
   111   135   134    2
   112    30    31    1
   113    30    29    1
   114    27    26    1
   115    31    32    2
   116   132   130   am
   117   131   130    2
   118    41    44    1
   119    34    35    1
   120    24    23    2
   121   130   129    1
   122    18    19    1
   123    25    26    1
   124    25    22    1
   125    29    35    1
   126   102   101    2
   127    26    28    1
   128   129   128    1
   129    44    45    1
   130    23    22    1
   131    20    19    2
   132   105   103    1
   133    22    21    1
   134   101   100    1
   135   100   103    1
   136   100    99    1
   137   104   103    1
   138   104   106    1
