@<TRIPOS>MOLECULE
tmp/5kwhA00.pdb
 170 162 0 0 0
SMALL
GASTEIGER

@<TRIPOS>ATOM
      1  N        -13.3910  -78.0020   30.2130 N.3    42  ARG42      -0.1245
      2  CA       -12.9310  -77.0860   29.1540 C.3    42  ARG42       0.1563
      3  C        -12.7970  -75.6630   29.6810 C.2    42  ARG42       0.2260
      4  O        -13.3760  -75.3360   30.7270 O.2    42  ARG42      -0.2867
      5  CB       -13.9090  -77.1150   27.9490 C.3    42  ARG42       0.0307
      6  CG       -15.3550  -76.6850   28.2650 C.3    42  ARG42       0.0489
      7  CD       -16.3080  -77.1570   27.1790 C.3    42  ARG42       0.2205
      8  NE       -17.6890  -76.7130   27.3940 N.pl3  42  ARG42      -0.0865
      9  CZ       -18.1870  -75.5550   26.9660 C.cat  42  ARG42       0.5346
     10  NH1      -17.4190  -74.6950   26.3070 N.pl3  42  ARG42       0.1354
     11  NH2      -19.4520  -75.2410   27.2080 N.pl3  42  ARG42       0.1354
     12  N        -13.5780  -71.6630   29.6550 N.3    44  LEU44      -0.1231
     13  CA       -14.7030  -70.7850   29.3560 C.3    44  LEU44       0.1693
     14  C        -14.2330  -69.3740   29.0040 C.2    44  LEU44       0.2593
     15  O        -14.8790  -68.6900   28.2070 O.2    44  LEU44      -0.2718
     16  CB       -15.6970  -70.7510   30.5310 C.3    44  LEU44       0.0284
     17  CG       -16.3790  -72.0910   30.8730 C.3    44  LEU44       0.0019
     18  CD1      -17.2220  -71.9720   32.1400 C.3    44  LEU44       0.0001
     19  CD2      -17.2230  -72.6160   29.6830 C.3    44  LEU44       0.0001
     20  N        -13.1200  -68.9600   29.5940 N.am   45  GLY45      -0.1942
     21  CA       -12.5570  -67.6350   29.3660 C.3    45  GLY45       0.2014
     22  C        -11.5310  -67.2180   30.3950 C.2    45  GLY45       0.2639
     23  O        -10.9910  -68.0510   31.1360 O.2    45  GLY45      -0.2714
     24  N        -11.2580  -65.9070   30.4370 N.am   46  ARG46      -0.1963
     25  CA       -10.2920  -65.3120   31.3650 C.3    46  ARG46       0.1729
     26  C        -10.7610  -63.9660   31.9220 C.2    46  ARG46       0.2616
     27  O        -11.7360  -63.3820   31.4390 O.2    46  ARG46      -0.2715
     28  CB        -8.8650  -65.2260   30.7640 C.3    46  ARG46       0.0348
     29  CG        -8.7610  -64.9860   29.2580 C.3    46  ARG46       0.0492
     30  CD        -8.5520  -66.2810   28.4890 C.3    46  ARG46       0.2205
     31  NE        -7.2180  -66.3770   27.8920 N.pl3  46  ARG46      -0.0865
     32  CZ        -6.9210  -66.0300   26.6400 C.cat  46  ARG46       0.5346
     33  NH1       -7.8600  -65.5420   25.8370 N.pl3  46  ARG46       0.1354
     34  NH2       -5.6830  -66.1710   26.1820 N.pl3  46  ARG46       0.1354
     35  N        -10.0940  -63.5340   32.9800 N.am   47  GLY47      -0.1955
     36  CA       -10.3510  -62.2680   33.6560 C.3    47  GLY47       0.1869
     37  C         -9.0440  -61.5940   34.0050 C.2    47  GLY47       0.2309
     38  O         -7.9750  -62.1070   33.6480 O.2    47  GLY47      -0.2863
     39  N         -7.8790  -64.0760   36.8230 N.3    50  SER50      -0.1217
     40  CA        -8.2480  -65.5000   36.7550 C.3    50  SER50       0.1889
     41  C         -8.3610  -66.1370   35.3590 C.2    50  SER50       0.2288
     42  O         -8.3410  -65.4410   34.3480 O.2    50  SER50      -0.2866
     43  CB        -9.5700  -65.7290   37.4970 C.3    50  SER50       0.2089
     44  OG       -10.6750  -65.1280   36.8430 O.3    50  SER50      -0.2183
     45  N        -11.0490  -69.2170   33.8610 N.3    52  VAL52      -0.1245
     46  CA       -12.2610  -69.8920   34.3090 C.3    52  VAL52       0.1561
     47  C        -12.6030  -71.0600   33.3680 C.2    52  VAL52       0.2260
     48  O        -12.4390  -71.0040   32.1510 O.2    52  VAL52      -0.2867
     49  CB       -13.4650  -68.9430   34.6680 C.3    52  VAL52       0.0252
     50  CG1      -13.0720  -67.4710   34.6780 C.3    52  VAL52       0.0019
     51  CG2      -14.7470  -69.1940   33.8950 C.3    52  VAL52       0.0019
     52  N        -18.5580  -74.2560   37.6790 N.3    65  VAL65      -0.1245
     53  CA       -17.6760  -73.2890   37.0360 C.3    65  VAL65       0.1561
     54  C        -16.5200  -73.0960   38.0240 C.2    65  VAL65       0.2260
     55  O        -16.7560  -72.8350   39.2080 O.2    65  VAL65      -0.2867
     56  CB       -18.4030  -71.9640   36.6460 C.3    65  VAL65       0.0252
     57  CG1      -17.4130  -70.8630   36.2460 C.3    65  VAL65       0.0019
     58  CG2      -19.3970  -72.2000   35.5190 C.3    65  VAL65       0.0019
     59  N        -13.0580  -70.9980   38.8710 N.3    67  LYS67      -0.1245
     60  CA       -12.3160  -69.7480   38.6810 C.3    67  LYS67       0.1561
     61  C        -10.9750  -69.9210   39.3780 C.2    67  LYS67       0.2260
     62  O        -10.9010  -69.8100   40.6060 O.2    67  LYS67      -0.2867
     63  CB       -13.1020  -68.5860   39.3080 C.3    67  LYS67       0.0271
     64  CG       -12.5080  -67.2020   39.0830 C.3    67  LYS67       0.0035
     65  CD       -13.0690  -66.2340   40.1370 C.3    67  LYS67       0.0206
     66  CE       -13.1170  -64.8200   39.6490 C.3    67  LYS67       0.1093
     67  NZ       -13.7070  -63.9290   40.6730 N.3    67  LYS67      -0.1314
     68  N        -24.9520  -65.3400   42.6630 N.3    94  ILE94      -0.1245
     69  CA       -24.2380  -66.5770   42.3110 C.3    94  ILE94       0.1561
     70  C        -23.8550  -67.3290   43.6030 C.2    94  ILE94       0.2260
     71  O        -23.4620  -66.7000   44.5800 O.2    94  ILE94      -0.2867
     72  CB       -22.9950  -66.3250   41.3870 C.3    94  ILE94       0.0252
     73  CG1      -22.4640  -67.6510   40.7530 C.3    94  ILE94       0.0019
     74  CG2      -21.8610  -65.5520   42.1110 C.3    94  ILE94       0.0019
     75  CD1      -23.3520  -68.2790   39.6360 C.3    94  ILE94       0.0001
     76  N        -18.0630  -72.4060   41.5450 N.3   112  PHE112     -0.1227
     77  CA       -19.3890  -71.8080   41.5290 C.3   112  PHE112      0.1736
     78  C        -20.4180  -72.6750   40.8810 C.2   112  PHE112      0.2598
     79  O        -20.0990  -73.5510   40.0700 O.2   112  PHE112     -0.2717
     80  CB       -19.3710  -70.4700   40.7830 C.3   112  PHE112      0.0547
     81  CG       -18.4810  -69.4130   41.3870 C.ar  112  PHE112     -0.0202
     82  CD1      -18.9780  -68.5230   42.3340 C.ar  112  PHE112     -0.0042
     83  CD2      -17.1510  -69.2930   40.9950 C.ar  112  PHE112     -0.0042
     84  CE1      -18.1610  -67.5290   42.8740 C.ar  112  PHE112     -0.0003
     85  CE2      -16.3290  -68.3100   41.5460 C.ar  112  PHE112     -0.0003
     86  CZ       -16.8390  -67.4260   42.4690 C.ar  112  PHE112     -0.0000
     87  N        -21.6860  -72.3890   41.2260 N.am  113  GLU113     -0.1920
     88  CA       -22.8870  -72.9440   40.6020 C.3   113  GLU113      0.1949
     89  C        -22.7790  -72.5850   39.0840 C.2   113  GLU113      0.2659
     90  O        -22.3390  -71.4770   38.7310 O.2   113  GLU113     -0.2711
     91  CB       -24.1240  -72.2720   41.2520 C.2   113  GLU113      0.0111
     92  CG       -25.1520  -71.6850   40.2980 C.2   113  GLU113      0.0838
     93  CD       -26.1730  -70.7250   40.8750 C.2   113  GLU113      0.3877
     94  OE1      -27.3460  -70.7900   40.4410 O.co2 113  GLU113     -0.2406
     95  OE2      -25.7960  -69.8660   41.7030 O.co2 113  GLU113     -0.2406
     96  N        -23.1320  -73.5200   38.2090 N.am  114  HIS114     -0.1956
     97  CA       -23.0770  -73.2710   36.7700 C.3   114  HIS114      0.1787
     98  C        -24.3630  -72.6000   36.2940 C.2   114  HIS114      0.2620
     99  O        -25.4440  -73.0270   36.6770 O.2   114  HIS114     -0.2715
    100  CB       -22.8730  -74.5890   35.9970 C.3   114  HIS114      0.0785
    101  CG       -22.7860  -74.4010   34.5080 C.ar  114  HIS114      0.0821
    102  ND1      -23.9180  -74.4400   33.7050 N.ar  114  HIS114     -0.2267
    103  CD2      -21.7020  -74.1770   33.7250 C.ar  114  HIS114      0.1154
    104  CE1      -23.4890  -74.2370   32.4690 C.ar  114  HIS114      0.1986
    105  NE2      -22.1620  -74.0740   32.4300 N.ar  114  HIS114     -0.2212
    106  N        -24.2470  -71.5940   35.4170 N.am  115  VAL115     -0.1963
    107  CA       -25.4000  -70.9270   34.8010 C.3   115  VAL115      0.1727
    108  C        -25.2860  -71.1350   33.2880 C.2   115  VAL115      0.2616
    109  O        -24.2690  -70.7550   32.7050 O.2   115  VAL115     -0.2715
    110  CB       -25.5440  -69.4120   35.1730 C.3   115  VAL115      0.0290
    111  CG1      -26.7730  -68.7920   34.4920 C.3   115  VAL115      0.0023
    112  CG2      -25.6070  -69.2180   36.6830 C.3   115  VAL115      0.0023
    113  N        -26.3240  -71.7280   32.6540 N.am  116  ASN116     -0.1958
    114  CA       -26.3160  -71.9590   31.2010 C.3   116  ASN116      0.1819
    115  C        -26.6110  -70.6380   30.4930 C.2   116  ASN116      0.2621
    116  O        -27.7410  -70.3830   30.0780 O.2   116  ASN116     -0.2715
    117  CB       -27.2910  -73.0880   30.8010 C.3   116  ASN116      0.1195
    118  CG       -27.1850  -73.5240   29.3530 C.2   116  ASN116      0.2630
    119  OD1      -26.0950  -73.5950   28.7720 O.2   116  ASN116     -0.2716
    120  ND2      -28.3190  -73.8530   28.7420 N.am  116  ASN116     -0.0877
    121  N        -25.5920  -69.7730   30.4220 N.am  117  ASN117     -0.1972
    122  CA       -25.6880  -68.4280   29.8640 C.3   117  ASN117      0.1688
    123  C        -25.9220  -68.3900   28.3590 C.2   117  ASN117      0.2292
    124  O        -25.3440  -69.1740   27.6050 O.2   117  ASN117     -0.2864
    125  CB       -24.4440  -67.6020   30.2150 C.3   117  ASN117      0.1181
    126  CG       -24.5140  -66.1280   29.8620 C.2   117  ASN117      0.2629
    127  OD1      -25.4210  -65.3780   30.2750 O.2   117  ASN117     -0.2716
    128  ND2      -23.4970  -65.6520   29.1740 N.am  117  ASN117     -0.0877
    129  N        -21.4690  -58.3520   31.2470 N.3   159  HIS159     -0.1226
    130  CA       -20.6350  -59.5510   31.4240 C.3   159  HIS159      0.1752
    131  C        -20.7170  -60.1840   32.8330 C.2   159  HIS159      0.2596
    132  O        -20.4000  -61.3660   32.9780 O.2   159  HIS159     -0.2718
    133  CB       -19.1800  -59.2570   31.0310 C.3   159  HIS159      0.0759
    134  CG       -18.9640  -59.2580   29.5410 C.ar  159  HIS159      0.0818
    135  ND1      -17.6990  -59.4480   28.9900 N.ar  159  HIS159     -0.2268
    136  CD2      -19.8650  -59.1550   28.5320 C.ar  159  HIS159      0.1154
    137  CE1      -17.8730  -59.4220   27.6780 C.ar  159  HIS159      0.1986
    138  NE2      -19.1600  -59.2500   27.3550 N.ar  159  HIS159     -0.2212
    139  N        -21.1650  -59.4180   33.8550 N.am  160  ASN160     -0.1974
    140  CA       -21.2940  -59.9350   35.2200 C.3   160  ASN160      0.1688
    141  C        -22.7250  -60.3240   35.5470 C.2   160  ASN160      0.2292
    142  O        -23.0460  -60.5870   36.6890 O.2   160  ASN160     -0.2864
    143  CB       -20.6830  -58.9810   36.2530 C.3   160  ASN160      0.1181
    144  CG       -19.1800  -59.0100   36.1830 C.2   160  ASN160      0.2629
    145  OD1      -18.5760  -59.9760   35.7090 O.2   160  ASN160     -0.2716
    146  ND2      -18.5350  -57.9660   36.6490 N.am  160  ASN160     -0.0877
    147  N        -25.2690  -63.1890   34.3530 N.3   162  MET162     -0.1245
    148  CA       -25.4670  -64.4570   33.6560 C.3   162  MET162      0.1570
    149  C        -26.9530  -64.6920   33.5570 C.2   162  MET162      0.2261
    150  O        -27.6580  -64.7030   34.5770 O.2   162  MET162     -0.2867
    151  CB       -24.8000  -65.6220   34.4160 C.3   162  MET162      0.0387
    152  CG       -23.2800  -65.5720   34.4230 C.3   162  MET162      0.0595
    153  SD       -22.5760  -65.9140   32.7950 S.3   162  MET162     -0.1393
    154  CE       -21.5180  -64.5610   32.6030 C.3   162  MET162      0.0692
    155  N        -22.8140  -62.1820   39.0690 N.3   173  ILE173     -0.1231
    156  CA       -21.5520  -62.8790   39.3410 C.3   173  ILE173      0.1692
    157  C        -20.3940  -61.9340   39.5640 C.2   173  ILE173      0.2592
    158  O        -20.5490  -60.6950   39.5200 O.2   173  ILE173     -0.2718
    159  CB       -21.2410  -63.9300   38.2120 C.3   173  ILE173      0.0266
    160  CG1      -20.7790  -63.2670   36.8890 C.3   173  ILE173      0.0019
    161  CG2      -22.4420  -64.8740   37.9760 C.3   173  ILE173      0.0020
    162  CD1      -19.8140  -64.1620   35.9760 C.3   173  ILE173      0.0001
    163  N        -19.2150  -62.5490   39.7710 N.am  174  ASP174     -0.1974
    164  CA       -17.9000  -61.9330   39.9370 C.3   174  ASP174      0.1709
    165  C        -17.8760  -60.7960   40.9370 C.2   174  ASP174      0.2293
    166  O        -17.8350  -59.6090   40.5880 O.2   174  ASP174     -0.2864
    167  CB       -17.2630  -61.5110   38.6010 C.3   174  ASP174      0.1436
    168  CG       -15.7400  -61.5250   38.6920 C.2   174  ASP174      0.3671
    169  OD1      -15.1990  -61.4250   39.8420 O.co2 174  ASP174     -0.2456
    170  OD2      -15.0870  -61.7480   37.6500 O.co2 174  ASP174     -0.2456
@<TRIPOS>BOND
     1    33    32    1
     2    34    32    1
     3    10     9    1
     4    32    31    2
     5     9    11    1
     6     9     8    2
     7     7     8    1
     8     7     6    1
     9   138   137   ar
    10   138   136   ar
    11   124   123    2
    12   137   135   ar
    13    31    30    1
    14     5     6    1
    15     5     2    1
    16    15    14    2
    17   123   122    1
    18    30    29    1
    19   136   134   ar
    20   120   118   am
    21   119   118    2
    22   135   134   ar
    23    14    13    1
    24    14    20   am
    25     2     3    1
    26     2     1    1
    27   128   126   am
    28    29    28    1
    29   118   117    1
    30    13    12    1
    31    13    16    1
    32    21    20    1
    33    21    22    1
    34   134   133    1
    35     3     4    2
    36    19    17    1
    37   126   125    1
    38   126   127    2
    39   122   125    1
    40   122   121    1
    41   116   115    2
    42    22    24   am
    43    22    23    2
    44   121   115   am
    45    24    25    1
    46   115   114    1
    47    16    17    1
    48    28    25    1
    49   117   114    1
    50    17    18    1
    51   133   130    1
    52   114   113    1
    53   129   130    1
    54    25    26    1
    55   130   131    1
    56    27    26    2
    57    26    35   am
    58    48    47    2
    59   105   104   ar
    60   105   103   ar
    61   104   102   ar
    62   154   153    1
    63   113   108   am
    64   109   108    2
    65   153   152    1
    66   131   132    2
    67   131   139   am
    68    35    36    1
    69   108   107    1
    70    47    46    1
    71   149   148    1
    72   149   150    2
    73    38    37    2
    74    36    37    1
    75   148   147    1
    76   148   151    1
    77   102   101   ar
    78   103   101   ar
    79   139   140    1
    80    45    46    1
    81    51    49    1
    82    46    49    1
    83    42    41    2
    84   151   152    1
    85   111   110    1
    86   101   100    1
    87    49    50    1
    88   107   110    1
    89   107   106    1
    90   110   112    1
    91   140   141    1
    92   140   143    1
    93    41    40    1
    94   106    98   am
    95    58    56    1
    96   141   142    2
    97   145   144    2
    98   162   160    1
    99   100    97    1
   100   144   143    1
   101   144   146   am
   102    57    56    1
   103    98    99    2
   104    98    97    1
   105    56    53    1
   106    40    39    1
   107    40    43    1
   108    97    96    1
   109    44    43    1
   110   160   159    1
   111    53    52    1
   112    53    54    1
   113   170   168   ar
   114   161   159    1
   115    54    55    2
   116    96    89   am
   117   159   156    1
   118   167   168    1
   119   167   164    1
   120    60    59    1
   121    60    63    1
   122    60    61    1
   123   168   169   ar
   124    90    89    2
   125   155   156    1
   126    64    63    1
   127    64    65    1
   128    89    88    1
   129   156   157    1
   130    61    62    2
   131   158   157    2
   132   157   163   am
   133    75    73    1
   134    66    65    1
   135    66    67    1
   136   163   164    1
   137   164   165    1
   138    79    78    2
   139    92    93    1
   140    92    91    2
   141    94    93   ar
   142   166   165    2
   143    88    87    1
   144    88    91    1
   145    73    72    1
   146    80    81    1
   147    80    77    1
   148    93    95   ar
   149    78    87   am
   150    78    77    1
   151    83    81   ar
   152    83    85   ar
   153    72    74    1
   154    72    69    1
   155    81    82   ar
   156    77    76    1
   157    85    86   ar
   158    69    68    1
   159    69    70    1
   160    82    84   ar
   161    86    84   ar
   162    70    71    2
