@<TRIPOS>MOLECULE
tmp/5kwyC02.pdb
 209 204 0 0 0
SMALL
GASTEIGER

@<TRIPOS>ATOM
      1  N        -17.9890   16.2960   57.9510 N.3    20  VAL20      -0.1245
      2  CA       -17.5910   17.4940   57.2190 C.3    20  VAL20       0.1561
      3  C        -18.8480   18.1800   56.7050 C.2    20  VAL20       0.2260
      4  O        -19.7600   17.5210   56.1930 O.2    20  VAL20      -0.2867
      5  CB       -16.6340   17.1520   56.0590 C.3    20  VAL20       0.0252
      6  CG1      -16.2020   18.4150   55.3230 C.3    20  VAL20       0.0019
      7  CG2      -15.4230   16.3860   56.5740 C.3    20  VAL20       0.0019
      8  N        -14.8080   21.5610   47.5520 N.3    30  LEU30      -0.1245
      9  CA       -14.5540   22.7860   48.2990 C.3    30  LEU30       0.1561
     10  C        -14.5300   23.9560   47.3240 C.2    30  LEU30       0.2260
     11  O        -13.6330   24.0480   46.4770 O.2    30  LEU30      -0.2867
     12  CB       -13.2410   22.6830   49.0700 C.3    30  LEU30       0.0270
     13  CG       -13.0770   21.4460   49.9540 C.3    30  LEU30       0.0019
     14  CD1      -11.8280   21.5690   50.8070 C.3    30  LEU30       0.0001
     15  CD2      -14.3090   21.2290   50.8210 C.3    30  LEU30       0.0001
     16  N        -15.6640   25.5420   55.6750 N.3    36  TYR36      -0.1227
     17  CA       -16.1460   24.2000   55.9540 C.3    36  TYR36       0.1736
     18  C        -15.7670   23.8220   57.3780 C.2    36  TYR36       0.2596
     19  O        -14.7010   24.2040   57.8690 O.2    36  TYR36      -0.2718
     20  CB       -15.5740   23.1860   54.9490 C.3    36  TYR36       0.0548
     21  CG       -15.9960   23.4570   53.5180 C.ar   36  TYR36      -0.0200
     22  CD1      -15.3410   24.4100   52.7480 C.ar   36  TYR36      -0.0009
     23  CD2      -17.0540   22.7650   52.9390 C.ar   36  TYR36      -0.0009
     24  CE1      -15.7300   24.6690   51.4450 C.ar   36  TYR36       0.0417
     25  CE2      -17.4470   23.0160   51.6350 C.ar   36  TYR36       0.0417
     26  CZ       -16.7800   23.9670   50.8930 C.ar   36  TYR36       0.1957
     27  OH       -17.1640   24.2200   49.5960 O.3    36  TYR36      -0.2866
     28  N        -16.6530   23.0870   58.0410 N.am   37  SER37      -0.1938
     29  CA       -16.4480   22.6620   59.4160 C.3    37  SER37       0.2055
     30  C        -16.2150   21.1590   59.4650 C.2    37  SER37       0.2642
     31  O        -16.8040   20.3990   58.6860 O.2    37  SER37      -0.2714
     32  CB       -17.6430   23.0310   60.3000 C.3    37  SER37       0.2130
     33  OG       -18.7200   22.1330   60.0980 O.3    37  SER37      -0.2179
     34  N        -15.3480   20.7460   60.3840 N.am   38  VAL38      -0.1977
     35  CA       -15.0320   19.3460   60.6220 C.3    38  VAL38       0.1596
     36  C        -15.3230   19.0310   62.0840 C.2    38  VAL38       0.2287
     37  O        -15.0930   19.8600   62.9750 O.2    38  VAL38      -0.2864
     38  CB       -13.5660   19.0210   60.2520 C.3    38  VAL38       0.0276
     39  CG1      -12.5920   19.7610   61.1590 C.3    38  VAL38       0.0022
     40  CG2      -13.3170   17.5180   60.2860 C.3    38  VAL38       0.0022
     41  N         -2.1930   18.5740   60.4150 N.3    55  VAL55      -0.1231
     42  CA        -2.8970   18.4350   59.1450 C.3    55  VAL55       0.1692
     43  C         -1.8760   18.3990   58.0170 C.2    55  VAL55       0.2592
     44  O         -0.9510   19.2190   57.9790 O.2    55  VAL55      -0.2718
     45  CB        -3.9030   19.5800   58.9290 C.3    55  VAL55       0.0266
     46  CG1       -4.6690   19.3800   57.6260 C.3    55  VAL55       0.0020
     47  CG2       -4.8570   19.6770   60.1070 C.3    55  VAL55       0.0020
     48  N         -2.0470   17.4510   57.1010 N.am   56  HIS56      -0.1962
     49  CA        -1.2340   17.3600   55.8990 C.3    56  HIS56       0.1787
     50  C         -2.1360   17.2770   54.6780 C.2    56  HIS56       0.2620
     51  O         -3.2370   16.7220   54.7320 O.2    56  HIS56      -0.2715
     52  CB        -0.3060   16.1410   55.9200 C.3    56  HIS56       0.0785
     53  CG         0.7790   16.2230   56.9440 C.ar   56  HIS56       0.0821
     54  ND1        1.9700   16.8790   56.7140 N.ar   56  HIS56      -0.2267
     55  CD2        0.8580   15.7300   58.2020 C.ar   56  HIS56       0.1154
     56  CE1        2.7340   16.7880   57.7880 C.ar   56  HIS56       0.1986
     57  NE2        2.0830   16.0940   58.7050 N.ar   56  HIS56      -0.2212
     58  N         -1.6570   17.8470   53.5800 N.am   57  GLY57      -0.1954
     59  CA        -2.2720   17.6580   52.2870 C.3    57  GLY57       0.1869
     60  C         -1.4350   16.7080   51.4590 C.2    57  GLY57       0.2309
     61  O         -0.2990   17.0230   51.0970 O.2    57  GLY57      -0.2863
     62  N         -0.5240   15.0540   48.1970 N.3    59  LEU59      -0.1245
     63  CA        -0.5800   15.2760   46.7570 C.3    59  LEU59       0.1561
     64  C          0.3860   14.3080   46.0920 C.2    59  LEU59       0.2260
     65  O          1.5860   14.3280   46.3920 O.2    59  LEU59      -0.2867
     66  CB        -0.2070   16.7160   46.3950 C.3    59  LEU59       0.0270
     67  CG        -1.1040   17.8880   46.7990 C.3    59  LEU59       0.0019
     68  CD1       -0.9560   18.2360   48.2690 C.3    59  LEU59       0.0001
     69  CD2       -0.7880   19.0960   45.9340 C.3    59  LEU59       0.0001
     70  N          2.1600   17.2140   52.5620 N.3    64  VAL64      -0.1231
     71  CA         2.6240   18.5930   52.6190 C.3    64  VAL64       0.1678
     72  C          2.0090   19.2330   53.8570 C.2    64  VAL64       0.2434
     73  O          0.7830   19.2880   53.9780 O.2    64  VAL64      -0.2733
     74  CB         2.2490   19.3790   51.3500 C.3    64  VAL64       0.0265
     75  CG1        2.5970   20.8470   51.5050 C.3    64  VAL64       0.0020
     76  CG2        2.9550   18.7880   50.1350 C.3    64  VAL64       0.0020
     77  N          2.8050   19.7220   54.8060 N.am   65  PRO65      -0.2718
     78  CA         2.2260   20.2420   56.0510 C.3    65  PRO65       0.1535
     79  C          1.3880   21.4870   55.8030 C.2    65  PRO65       0.2598
     80  O          1.7250   22.3320   54.9700 O.2    65  PRO65      -0.2715
     81  CB         3.4540   20.5530   56.9150 C.3    65  PRO65       0.0310
     82  CG         4.5710   20.7440   55.9340 C.3    65  PRO65       0.0237
     83  CD         4.2750   19.8180   54.7870 C.3    65  PRO65       0.0939
     84  N          0.2810   21.5850   56.5340 N.am   66  PHE66      -0.1974
     85  CA        -0.6480   22.7070   56.4190 C.3    66  PHE66       0.1639
     86  C         -0.8760   23.3080   57.7990 C.2    66  PHE66       0.2290
     87  O         -1.6240   22.7370   58.6120 O.2    66  PHE66      -0.2864
     88  CB        -1.9670   22.2670   55.7970 C.3    66  PHE66       0.0560
     89  CG        -2.9900   23.3630   55.7070 C.ar   66  PHE66      -0.0200
     90  CD1       -2.8760   24.3590   54.7500 C.ar   66  PHE66      -0.0042
     91  CD2       -4.0710   23.3950   56.5750 C.ar   66  PHE66      -0.0042
     92  CE1       -3.8180   25.3690   54.6640 C.ar   66  PHE66      -0.0003
     93  CE2       -5.0160   24.4020   56.4930 C.ar   66  PHE66      -0.0003
     94  CZ        -4.8890   25.3910   55.5360 C.ar   66  PHE66      -0.0000
     95  N        -12.4460   25.8000   58.7750 N.3    94  LEU94      -0.1231
     96  CA       -11.4090   26.4290   57.9780 C.3    94  LEU94       0.1678
     97  C        -12.0020   27.0000   56.7010 C.2    94  LEU94       0.2434
     98  O        -12.9360   26.4280   56.1300 O.2    94  LEU94      -0.2733
     99  CB       -10.3000   25.4290   57.6220 C.3    94  LEU94       0.0284
    100  CG        -9.4170   24.9920   58.7890 C.3    94  LEU94       0.0019
    101  CD1       -8.4760   23.8800   58.3580 C.3    94  LEU94       0.0001
    102  CD2       -8.6380   26.1800   59.3330 C.3    94  LEU94       0.0001
    103  N        -11.4870   28.1390   56.2400 N.am   95  PRO95      -0.2718
    104  CA       -11.9490   28.6980   54.9680 C.3    95  PRO95       0.1535
    105  C        -11.1380   28.1900   53.7870 C.2    95  PRO95       0.2598
    106  O         -9.9110   28.0780   53.8360 O.2    95  PRO95      -0.2715
    107  CB       -11.7390   30.2040   55.1670 C.3    95  PRO95       0.0310
    108  CG       -10.5340   30.2760   56.0500 C.3    95  PRO95       0.0237
    109  CD       -10.5840   29.0600   56.9530 C.3    95  PRO95       0.0939
    110  N        -11.8500   27.8610   52.7130 N.am   96  VAL96      -0.1978
    111  CA       -11.2210   27.6070   51.4230 C.3    96  VAL96       0.1596
    112  C        -11.0080   28.9600   50.7560 C.2    96  VAL96       0.2287
    113  O        -11.9710   29.6580   50.4210 O.2    96  VAL96      -0.2864
    114  CB       -12.0680   26.6780   50.5490 C.3    96  VAL96       0.0276
    115  CG1      -11.4000   26.4730   49.1960 C.3    96  VAL96       0.0022
    116  CG2      -12.2720   25.3490   51.2490 C.3    96  VAL96       0.0022
    117  N         -5.7610   29.3860   47.0100 N.3   100  TYR100     -0.1228
    118  CA        -5.4770   27.9590   47.0140 C.3   100  TYR100      0.1721
    119  C         -5.6620   27.4010   45.6040 C.2   100  TYR100      0.2437
    120  O         -6.5790   27.8140   44.8890 O.2   100  TYR100     -0.2733
    121  CB        -6.3990   27.2200   47.9850 C.3   100  TYR100      0.0547
    122  CG        -6.1100   27.4580   49.4510 C.ar  100  TYR100     -0.0200
    123  CD1       -4.8660   27.9050   49.8750 C.ar  100  TYR100     -0.0009
    124  CD2       -7.0850   27.2250   50.4140 C.ar  100  TYR100     -0.0009
    125  CE1       -4.6030   28.1190   51.2190 C.ar  100  TYR100      0.0417
    126  CE2       -6.8320   27.4350   51.7570 C.ar  100  TYR100      0.0417
    127  CZ        -5.5900   27.8820   52.1550 C.ar  100  TYR100      0.1957
    128  OH        -5.3360   28.0920   53.4920 O.3   100  TYR100     -0.2866
    129  N         -4.8140   26.4700   45.1740 N.am  101  PRO101     -0.2729
    130  CA        -4.9750   25.9080   43.8290 C.3   101  PRO101      0.1401
    131  C         -6.1650   24.9650   43.7640 C.2   101  PRO101      0.2269
    132  O         -6.4250   24.1960   44.6930 O.2   101  PRO101     -0.2865
    133  CB        -3.6560   25.1620   43.5980 C.3   101  PRO101      0.0296
    134  CG        -3.2290   24.7610   44.9710 C.3   101  PRO101      0.0237
    135  CD        -3.6680   25.8800   45.8880 C.3   101  PRO101      0.0939
    136  N         -7.4940   21.7790   42.8680 N.3   103  ILE103     -0.1245
    137  CA        -6.7730   20.5250   42.6780 C.3   103  ILE103      0.1561
    138  C         -7.4530   19.4450   43.5060 C.2   103  ILE103      0.2260
    139  O         -8.1430   19.7340   44.4860 O.2   103  ILE103     -0.2867
    140  CB        -5.2810   20.6940   43.0680 C.3   103  ILE103      0.0252
    141  CG1       -4.4520   19.4820   42.6400 C.3   103  ILE103      0.0019
    142  CG2       -5.1420   20.9510   44.5630 C.3   103  ILE103      0.0019
    143  CD1       -2.9780   19.6120   42.9560 C.3   103  ILE103      0.0001
    144  N         -6.8380   16.3820   46.0590 N.3   105  LEU105     -0.1245
    145  CA        -5.8240   15.9210   46.9960 C.3   105  LEU105      0.1561
    146  C         -6.4970   15.1170   48.0990 C.2   105  LEU105      0.2260
    147  O         -7.7260   15.0330   48.1750 O.2   105  LEU105     -0.2867
    148  CB        -5.0330   17.0880   47.5970 C.3   105  LEU105      0.0270
    149  CG        -5.7680   17.9410   48.6340 C.3   105  LEU105      0.0019
    150  CD1       -4.7750   18.5890   49.5760 C.3   105  LEU105      0.0001
    151  CD2       -6.6250   19.0020   47.9630 C.3   105  LEU105      0.0001
    152  N         -6.8590   14.8550   52.1950 N.3   107  VAL107     -0.1245
    153  CA        -6.6700   15.6100   53.4290 C.3   107  VAL107      0.1561
    154  C         -6.4260   14.6250   54.5650 C.2   107  VAL107      0.2260
    155  O         -7.3050   13.8250   54.8950 O.2   107  VAL107     -0.2867
    156  CB        -7.8810   16.5060   53.7240 C.3   107  VAL107      0.0252
    157  CG1       -7.7390   17.1510   55.0930 C.3   107  VAL107      0.0019
    158  CG2       -8.0270   17.5660   52.6450 C.3   107  VAL107      0.0019
    159  N         -5.6820   14.1630   58.5510 N.3   109  TRP109     -0.1241
    160  CA        -5.8730   14.8690   59.8120 C.3   109  TRP109      0.1605
    161  C         -5.5700   13.9320   60.9720 C.2   109  TRP109      0.2264
    162  O         -6.1400   12.8400   61.0550 O.2   109  TRP109     -0.2867
    163  CB        -7.3060   15.3950   59.9240 C.3   109  TRP109      0.0550
    164  CG        -7.4450   16.6490   60.7270 C.ar  109  TRP109      0.0003
    165  CD1       -7.0790   16.8390   62.0290 C.ar  109  TRP109      0.0946
    166  CD2       -8.0130   17.8890   60.2850 C.ar  109  TRP109      0.0152
    167  NE1       -7.3730   18.1240   62.4200 N.ar  109  TRP109     -0.2442
    168  CE2       -7.9490   18.7880   61.3690 C.ar  109  TRP109      0.0810
    169  CE3       -8.5660   18.3260   59.0770 C.ar  109  TRP109      0.0012
    170  CZ2       -8.4160   20.0990   61.2800 C.ar  109  TRP109      0.0191
    171  CZ3       -9.0290   19.6270   58.9910 C.ar  109  TRP109      0.0001
    172  CH2       -8.9510   20.4980   60.0860 C.ar  109  TRP109      0.0015
    173  N         -7.1610   10.1140   60.2840 N.3   122  TRP122     -0.1241
    174  CA        -8.0320    9.8150   59.1580 C.3   122  TRP122      0.1605
    175  C         -7.6490   10.6690   57.9600 C.2   122  TRP122      0.2264
    176  O         -6.9280   11.6640   58.0790 O.2   122  TRP122     -0.2867
    177  CB        -9.5130   10.0240   59.5030 C.3   122  TRP122      0.0550
    178  CG        -9.8430   11.3600   60.0910 C.ar  122  TRP122      0.0003
    179  CD1       -9.9940   11.6530   61.4130 C.ar  122  TRP122      0.0946
    180  CD2      -10.0890   12.5800   59.3800 C.ar  122  TRP122      0.0152
    181  NE1      -10.3090   12.9800   61.5720 N.ar  122  TRP122     -0.2442
    182  CE2      -10.3740   13.5720   60.3390 C.ar  122  TRP122      0.0810
    183  CE3      -10.0910   12.9310   58.0260 C.ar  122  TRP122      0.0012
    184  CZ2      -10.6620   14.8900   59.9890 C.ar  122  TRP122      0.0191
    185  CZ3      -10.3730   14.2400   57.6810 C.ar  122  TRP122      0.0001
    186  CH2      -10.6540   15.2040   58.6590 C.ar  122  TRP122      0.0015
    187  N         -9.5560   11.9180   54.0410 N.3   124  ILE124     -0.1245
    188  CA       -10.7140   11.9170   53.1490 C.3   124  ILE124      0.1561
    189  C        -10.3130   12.5700   51.8310 C.2   124  ILE124      0.2260
    190  O         -9.3750   13.3810   51.7800 O.2   124  ILE124     -0.2867
    191  CB       -11.9240   12.6510   53.7730 C.3   124  ILE124      0.0252
    192  CG1      -11.6380   14.1480   53.8930 C.3   124  ILE124      0.0019
    193  CG2      -12.2740   12.0570   55.1280 C.3   124  ILE124      0.0019
    194  CD1      -12.8650   14.9830   54.1810 C.3   124  ILE124      0.0001
    195  N        -10.7300   15.1800   48.7640 N.3   126  VAL126     -0.1245
    196  CA       -11.1760   16.5640   48.6900 C.3   126  VAL126      0.1561
    197  C        -10.7870   17.1170   47.3260 C.2   126  VAL126      0.2260
    198  O         -9.7490   16.7450   46.7680 O.2   126  VAL126     -0.2867
    199  CB       -10.5700   17.3910   49.8480 C.3   126  VAL126      0.0252
    200  CG1      -10.1200   18.7680   49.3880 C.3   126  VAL126      0.0019
    201  CG2      -11.5650   17.4970   50.9940 C.3   126  VAL126      0.0019
    202  N        -10.6380   20.9550   45.6550 N.3   128  ILE128     -0.1245
    203  CA       -10.8360   22.3950   45.5560 C.3   128  ILE128      0.1561
    204  C        -11.2180   22.7180   44.1190 C.2   128  ILE128      0.2260
    205  O        -10.4850   22.3890   43.1800 O.2   128  ILE128     -0.2867
    206  CB        -9.5780   23.1580   45.9860 C.3   128  ILE128      0.0252
    207  CG1       -9.1940   22.7940   47.4210 C.3   128  ILE128      0.0019
    208  CG2       -9.7960   24.6590   45.8530 C.3   128  ILE128      0.0019
    209  CD1       -7.9530   23.5050   47.9130 C.3   128  ILE128      0.0001
@<TRIPOS>BOND
     1   141   143    1
     2   141   140    1
     3   137   136    1
     4   137   140    1
     5   137   138    1
     6   140   142    1
     7   205   204    2
     8   138   139    2
     9   133   130    1
    10   133   134    1
    11   131   130    1
    12   131   132    2
    13   130   129    1
    14   204   203    1
    15   120   119    2
    16   134   135    1
    17   129   119   am
    18   129   135    1
    19   203   202    1
    20   203   206    1
    21   119   118    1
    22   208   206    1
    23    69    67    1
    24   206   207    1
    25   144   145    1
    26    64    65    2
    27    64    63    1
    28    66    63    1
    29    66    67    1
    30    11    10    2
    31    63    62    1
    32   198   197    2
    33    67    68    1
    34   145   148    1
    35   145   146    1
    36   117   118    1
    37   118   121    1
    38    10     9    1
    39   197   196    1
    40   207   209    1
    41     8     9    1
    42   148   149    1
    43   151   149    1
    44   121   122    1
    45   146   147    2
    46     9    12    1
    47   149   150    1
    48   196   195    1
    49   196   199    1
    50    12    13    1
    51   115   114    1
    52   200   199    1
    53   122   123   ar
    54   122   124   ar
    55    27    26    1
    56   199   201    1
    57   123   125   ar
    58    13    14    1
    59    13    15    1
    60    76    74    1
    61   124   126   ar
    62   113   112    2
    63   114   116    1
    64   114   111    1
    65   112   111    1
    66    26    24   ar
    67    26    25   ar
    68    61    60    2
    69   125   127   ar
    70    74    75    1
    71    74    71    1
    72   111   110    1
    73    24    22   ar
    74    60    59    1
    75    25    23   ar
    76   126   127   ar
    77   190   189    2
    78   189   188    1
    79   127   128    1
    80   152   153    1
    81    59    58    1
    82    70    71    1
    83    71    72    1
    84   158   156    1
    85   110   105   am
    86    22    21   ar
    87    23    21   ar
    88   188   191    1
    89   188   187    1
    90   153   156    1
    91   153   154    1
    92    21    20    1
    93    58    50   am
    94   156   157    1
    95   191   192    1
    96   191   193    1
    97   105   106    2
    98   105   104    1
    99    72    73    2
   100    72    77   am
   101   192   194    1
   102   154   155    2
   103    92    90   ar
   104    92    94   ar
   105    50    51    2
   106    50    49    1
   107    90    89   ar
   108    83    77    1
   109    83    82    1
   110    77    78    1
   111    20    17    1
   112   104   107    1
   113   104   103    1
   114    80    79    2
   115   107   108    1
   116     6     5    1
   117    94    93   ar
   118    16    17    1
   119    89    88    1
   120    89    91   ar
   121    88    85    1
   122    79    78    1
   123    79    84   am
   124    49    52    1
   125    49    48    1
   126    52    53    1
   127    82    81    1
   128    17    18    1
   129   108   109    1
   130    78    81    1
   131     5     7    1
   132     5     2    1
   133    98    97    2
   134     4     3    2
   135   103    97   am
   136   103   109    1
   137    85    84    1
   138    85    86    1
   139    93    91   ar
   140    97    96    1
   141     3     2    1
   142    54    53   ar
   143    54    56   ar
   144    53    55   ar
   145    48    43   am
   146     2     1    1
   147    18    19    2
   148    18    28   am
   149    99    96    1
   150    99   100    1
   151    46    45    1
   152   185   183   ar
   153   185   186   ar
   154    56    57   ar
   155    86    87    2
   156   175   176    2
   157   175   174    1
   158    96    95    1
   159    44    43    2
   160    43    42    1
   161   183   180   ar
   162    28    29    1
   163    55    57   ar
   164   101   100    1
   165   159   160    1
   166   186   184   ar
   167    31    30    2
   168   100   102    1
   169    45    42    1
   170    45    47    1
   171   171   169   ar
   172   171   172   ar
   173   169   166   ar
   174    42    41    1
   175   174   177    1
   176   174   173    1
   177   180   178   ar
   178   180   182   ar
   179    29    30    1
   180    29    32    1
   181    30    34   am
   182   177   178    1
   183   160   163    1
   184   160   161    1
   185   163   164    1
   186   184   182   ar
   187   172   170   ar
   188   178   179   ar
   189    33    32    1
   190    38    40    1
   191    38    35    1
   192    38    39    1
   193   166   164   ar
   194   166   168   ar
   195   182   181   ar
   196    34    35    1
   197    35    36    1
   198   164   165   ar
   199   161   162    2
   200   170   168   ar
   201   168   167   ar
   202   179   181   ar
   203   165   167   ar
   204    36    37    2
