@<TRIPOS>MOLECULE
tmp/5kx5B01.pdb
 140 135 0 0 0
SMALL
GASTEIGER

@<TRIPOS>ATOM
      1  N         17.0600   52.7820   15.4530 N.3    11  GLN11      -0.1231
      2  CA        15.6600   53.0970   15.1790 C.3    11  GLN11       0.1698
      3  C         14.8970   53.6010   16.4170 C.2    11  GLN11       0.2592
      4  O         14.3750   54.7140   16.3730 O.2    11  GLN11      -0.2718
      5  CB        14.9180   51.9390   14.4910 C.3    11  GLN11       0.0381
      6  CG        13.4810   52.3260   14.1090 C.3    11  GLN11       0.0905
      7  CD        12.6010   51.1710   13.7570 C.2    11  GLN11       0.2608
      8  OE1       11.8120   51.2520   12.8100 O.2    11  GLN11      -0.2717
      9  NE2       12.6870   50.0880   14.5300 N.am   11  GLN11      -0.0878
     10  N         14.8400   52.8120   17.5060 N.am   12  CYS12      -0.1970
     11  CA        14.1590   53.2370   18.7330 C.3    12  CYS12       0.1712
     12  C         14.7400   54.5570   19.2940 C.2    12  CYS12       0.2296
     13  O         13.9890   55.4810   19.5560 O.2    12  CYS12      -0.2864
     14  CB        14.2070   52.1320   19.7710 C.3    12  CYS12       0.0983
     15  SG        13.3840   52.5280   21.3330 S.3    12  CYS12      -0.0798
     16  N         13.8010   57.6350   17.2800 N.3    15  GLN15      -0.1245
     17  CA        12.3690   57.8700   17.2870 C.3    15  GLN15       0.1566
     18  C         11.9190   58.5580   18.5710 C.2    15  GLN15       0.2260
     19  O         11.1210   59.5090   18.5340 O.2    15  GLN15      -0.2867
     20  CB        11.6240   56.5380   17.0700 C.3    15  GLN15       0.0367
     21  CG        10.2770   56.7370   16.4240 C.3    15  GLN15       0.0905
     22  CD        10.3120   57.3390   15.0290 C.2    15  GLN15       0.2608
     23  OE1        9.7700   58.4350   14.8030 O.2    15  GLN15      -0.2717
     24  NE2       10.8890   56.6160   14.0610 N.am   15  GLN15      -0.0878
     25  N         11.0890   62.5380   19.4370 N.3    19  LYS19      -0.1245
     26  CA         9.9060   62.9220   20.2000 C.3    19  LYS19       0.1561
     27  C         10.2490   63.7650   21.4350 C.2    19  LYS19       0.2260
     28  O          9.4820   64.6610   21.7880 O.2    19  LYS19      -0.2867
     29  CB         9.0390   61.7040   20.5510 C.3    19  LYS19       0.0271
     30  CG         8.3250   61.1080   19.3370 C.3    19  LYS19       0.0035
     31  CD         7.1100   61.9330   18.8920 C.3    19  LYS19       0.0206
     32  CE         6.6630   61.5950   17.4880 C.3    19  LYS19       0.1093
     33  NZ         5.3250   62.1730   17.1680 N.3    19  LYS19      -0.1314
     34  N          8.3220   40.4790   24.4290 N.3   173  PRO173     -0.2102
     35  CA         7.7580   39.6190   23.3570 C.3   173  PRO173      0.1504
     36  C          6.3330   39.9900   22.9190 C.2   173  PRO173      0.2576
     37  O          5.7830   39.3470   22.0060 O.2   173  PRO173     -0.2718
     38  CB         7.8180   38.2110   23.9580 C.3   173  PRO173      0.0282
     39  CG         8.6910   38.3470   25.2200 C.3   173  PRO173      0.0208
     40  CD         8.4460   39.7300   25.6980 C.3   173  PRO173      0.0893
     41  N          5.7750   41.0650   23.5330 N.am  174  LYS174     -0.1966
     42  CA         4.4500   41.6640   23.3160 C.3   174  LYS174      0.1728
     43  C          4.5420   42.7680   22.2780 C.2   174  LYS174      0.2616
     44  O          3.5130   43.2180   21.7320 O.2   174  LYS174     -0.2715
     45  CB         3.9550   42.3200   24.6200 C.3   174  LYS174      0.0311
     46  CG         3.5260   41.3800   25.7390 C.3   174  LYS174      0.0038
     47  CD         2.9590   42.1840   26.9210 C.3   174  LYS174      0.0206
     48  CE         2.7500   41.2910   28.1280 C.3   174  LYS174      0.1093
     49  NZ         1.5770   41.6910   28.9570 N.3   174  LYS174     -0.1314
     50  N          5.7800   43.2500   22.0490 N.am  175  VAL175     -0.1977
     51  CA         6.0760   44.3440   21.1410 C.3   175  VAL175      0.1596
     52  C          6.9220   43.8600   19.9720 C.2   175  VAL175      0.2287
     53  O          6.6990   44.2760   18.8300 O.2   175  VAL175     -0.2864
     54  CB         6.6790   45.5570   21.9100 C.3   175  VAL175      0.0276
     55  CG1        7.1040   46.6790   20.9600 C.3   175  VAL175      0.0022
     56  CG2        5.6770   46.0920   22.9250 C.3   175  VAL175      0.0022
     57  N          9.1760   40.3950   18.0270 N.3   177  ASP177     -0.1239
     58  CA         9.2790   38.9750   17.6680 C.3   177  ASP177      0.1674
     59  C         10.6780   38.5810   17.1860 C.2   177  ASP177      0.2266
     60  O         10.8360   37.4950   16.6070 O.2   177  ASP177     -0.2867
     61  CB         8.2710   38.6870   16.5610 C.3   177  ASP177      0.1410
     62  CG         6.8600   38.9780   16.9620 C.2   177  ASP177      0.3668
     63  OD1        6.3660   38.3040   17.8760 O.co2 177  ASP177     -0.2456
     64  OD2        6.2250   39.8480   16.3170 O.co2 177  ASP177     -0.2456
     65  N          3.3890   48.7330   26.6360 N.3   208  TYR208     -0.1241
     66  CA         2.3450   47.9970   25.9200 C.3   208  TYR208      0.1605
     67  C          1.1420   47.8290   26.8340 C.2   208  TYR208      0.2264
     68  O          0.0490   48.2210   26.4460 O.2   208  TYR208     -0.2867
     69  CB         2.8230   46.6170   25.3850 C.3   208  TYR208      0.0534
     70  CG         1.7310   45.9410   24.5850 C.ar  208  TYR208     -0.0201
     71  CD1        1.4710   46.3210   23.2640 C.ar  208  TYR208     -0.0009
     72  CD2        0.8420   45.0450   25.1940 C.ar  208  TYR208     -0.0009
     73  CE1        0.3880   45.7940   22.5570 C.ar  208  TYR208      0.0417
     74  CE2       -0.2500   44.5240   24.5020 C.ar  208  TYR208      0.0417
     75  CZ        -0.4690   44.8960   23.1800 C.ar  208  TYR208      0.1957
     76  OH        -1.5250   44.3750   22.4780 O.3   208  TYR208     -0.2866
     77  N         -5.1010   48.1470   19.4240 N.3   219  THR219     -0.1204
     78  CA        -3.9250   47.9050   18.6000 C.3   219  THR219      0.1979
     79  C         -2.9260   49.0770   18.7910 C.2   219  THR219      0.2460
     80  O         -2.8600   49.9960   17.9670 O.2   219  THR219     -0.2732
     81  CB        -4.3320   47.5630   17.1500 C.3   219  THR219      0.1783
     82  OG1       -5.0600   46.3270   17.1830 O.3   219  THR219     -0.2211
     83  CG2       -3.1440   47.3870   16.2410 C.3   219  THR219      0.0376
     84  N         -2.1650   49.0710   19.9060 N.am  220  PRO220     -0.2717
     85  CA        -1.2010   50.1650   20.1260 C.3   220  PRO220      0.1536
     86  C         -0.0880   50.1580   19.0740 C.2   220  PRO220      0.2599
     87  O          0.3040   49.0930   18.5900 O.2   220  PRO220     -0.2715
     88  CB        -0.6590   49.9010   21.5480 C.3   220  PRO220      0.0310
     89  CG        -1.6060   48.9020   22.1720 C.3   220  PRO220      0.0237
     90  CD        -2.1230   48.0880   21.0110 C.3   220  PRO220      0.0939
     91  N          0.3610   51.3500   18.6840 N.am  221  THR221     -0.1937
     92  CA         1.4320   51.5710   17.7310 C.3   221  THR221      0.2028
     93  C          2.7180   52.0210   18.4690 C.2   221  THR221      0.2642
     94  O          2.6750   52.3000   19.6630 O.2   221  THR221     -0.2714
     95  CB         1.0110   52.6470   16.7210 C.3   221  THR221      0.1808
     96  OG1        0.8830   53.9100   17.3770 O.3   221  THR221     -0.2208
     97  CG2       -0.2320   52.2810   15.9510 C.3   221  THR221      0.0379
     98  N          3.8410   52.1300   17.7650 N.am  222  TYR222     -0.1959
     99  CA         5.0620   52.6130   18.3780 C.3   222  TYR222      0.1771
    100  C          4.8670   54.0510   18.8950 C.2   222  TYR222      0.2620
    101  O          5.2690   54.3460   20.0160 O.2   222  TYR222     -0.2715
    102  CB         6.2720   52.4770   17.4190 C.3   222  TYR222      0.0574
    103  CG         6.8660   51.0820   17.3910 C.ar  222  TYR222     -0.0198
    104  CD1        7.1480   50.4000   18.5690 C.ar  222  TYR222     -0.0009
    105  CD2        7.1440   50.4430   16.1880 C.ar  222  TYR222     -0.0009
    106  CE1        7.6630   49.1060   18.5530 C.ar  222  TYR222      0.0417
    107  CE2        7.6840   49.1560   16.1610 C.ar  222  TYR222      0.0417
    108  CZ         7.9470   48.4940   17.3490 C.ar  222  TYR222      0.1957
    109  OH         8.4670   47.2170   17.3700 O.3   222  TYR222     -0.2866
    110  N          4.1880   54.8950   18.1080 N.am  223  GLY223     -0.1954
    111  CA         3.8600   56.2740   18.4600 C.3   223  GLY223      0.1869
    112  C          3.0290   56.3780   19.7240 C.2   223  GLY223      0.2309
    113  O          3.1150   57.3770   20.4400 O.2   223  GLY223     -0.2863
    114  N          3.2950   54.2090   22.3580 N.3   225  LEU225     -0.1231
    115  CA         4.2820   53.8330   23.3630 C.3   225  LEU225      0.1693
    116  C          5.2000   55.0340   23.5910 C.2   225  LEU225      0.2592
    117  O          5.4110   55.4480   24.7290 O.2   225  LEU225     -0.2718
    118  CB         5.0790   52.6430   22.7910 C.3   225  LEU225      0.0284
    119  CG         4.6180   51.2260   23.1230 C.3   225  LEU225      0.0019
    120  CD1        3.1730   50.9870   22.7910 C.3   225  LEU225      0.0001
    121  CD2        5.4770   50.2080   22.4140 C.3   225  LEU225      0.0001
    122  N          5.6700   55.6350   22.4870 N.am  226  ASN226     -0.1974
    123  CA         6.5780   56.7830   22.4440 C.3   226  ASN226      0.1688
    124  C          5.9890   58.0210   23.0930 C.2   226  ASN226      0.2292
    125  O          6.7140   58.7570   23.7460 O.2   226  ASN226     -0.2864
    126  CB         7.0790   57.0400   21.0130 C.3   226  ASN226      0.1181
    127  CG         7.9970   55.9340   20.4970 C.2   226  ASN226      0.2629
    128  OD1        8.3010   54.9670   21.1970 O.2   226  ASN226     -0.2716
    129  ND2        8.4790   56.0560   19.2780 N.am  226  ASN226     -0.0877
    130  N         -2.7390   60.2100   22.9390 N.3   276  ARG276     -0.1245
    131  CA        -2.6490   61.4190   22.0790 C.3   276  ARG276      0.1563
    132  C         -3.9910   62.1490   21.6780 C.2   276  ARG276      0.2260
    133  O         -3.9430   63.2060   21.0450 O.2   276  ARG276     -0.2867
    134  CB        -1.8510   61.0830   20.8180 C.3   276  ARG276      0.0307
    135  CG        -0.4860   60.5220   21.1460 C.3   276  ARG276      0.0489
    136  CD         0.3370   60.2150   19.9300 C.3   276  ARG276      0.2205
    137  NE         0.0090   58.8880   19.4320 N.pl3 276  ARG276     -0.0865
    138  CZ         0.4750   58.3900   18.3010 C.cat 276  ARG276      0.5346
    139  NH1        0.1270   57.1700   17.9150 N.pl3 276  ARG276      0.1354
    140  NH2        1.3010   59.1020   17.5490 N.pl3 276  ARG276      0.1354
@<TRIPOS>BOND
     1     8     7    2
     2     7     6    1
     3     7     9   am
     4    24    22   am
     5     6     5    1
     6     5     2    1
     7    23    22    2
     8    22    21    1
     9     2     1    1
    10     2     3    1
    11    97    95    1
    12   107   105   ar
    13   107   108   ar
    14   105   103   ar
    15    83    81    1
    16    64    62   ar
    17     4     3    2
    18     3    10   am
    19    21    20    1
    20    61    62    1
    21    61    58    1
    22    60    59    2
    23    95    96    1
    24    95    92    1
    25    62    63   ar
    26    20    17    1
    27    81    82    1
    28    81    78    1
    29    33    32    1
    30    59    58    1
    31    16    17    1
    32    17    18    1
    33   108   109    1
    34   108   106   ar
    35   103   102    1
    36   103   104   ar
    37   102    99    1
    38    32    31    1
    39    10    11    1
    40   140   138    1
    41    58    57    1
    42    92    93    1
    43    92    91    1
    44    98    99    1
    45    98    93   am
    46   139   138    1
    47    80    79    2
    48   110   111    1
    49   110   100   am
    50   138   137    2
    51    99   100    1
    52   111   112    1
    53    93    94    2
    54    19    18    2
    55   106   104   ar
    56    87    86    2
    57    78    79    1
    58    78    77    1
    59    91    86   am
    60    11    12    1
    61    11    14    1
    62    79    84   am
    63    53    52    2
    64    31    30    1
    65   100   101    2
    66    86    85    1
    67   129   127   am
    68    12    13    2
    69    30    29    1
    70   137   136    1
    71    25    26    1
    72   112   113    2
    73    14    15    1
    74    84    85    1
    75    84    90    1
    76   136   135    1
    77    52    51    1
    78    85    88    1
    79    26    29    1
    80    26    27    1
    81   127   126    1
    82   127   128    2
    83   134   135    1
    84   134   131    1
    85    55    54    1
    86    90    89    1
    87   126   123    1
    88   133   132    2
    89    51    54    1
    90    51    50    1
    91    27    28    2
    92    88    89    1
    93   132   131    1
    94    44    43    2
    95    54    56    1
    96    37    36    2
    97    50    43   am
    98   131   130    1
    99    43    42    1
   100   114   115    1
   101   121   119    1
   102   123   122    1
   103   123   124    1
   104    76    75    1
   105   122   116   am
   106    73    75   ar
   107    73    71   ar
   108   120   119    1
   109   118   119    1
   110   118   115    1
   111    36    35    1
   112    36    41   am
   113   124   125    2
   114    75    74   ar
   115    71    70   ar
   116    42    41    1
   117    42    45    1
   118    35    38    1
   119    35    34    1
   120   115   116    1
   121   116   117    2
   122    38    39    1
   123    34    40    1
   124    74    72   ar
   125    70    72   ar
   126    70    69    1
   127    45    46    1
   128    39    40    1
   129    69    66    1
   130    46    47    1
   131    66    65    1
   132    66    67    1
   133    68    67    2
   134    47    48    1
   135    48    49    1
