@<TRIPOS>MOLECULE
tmp/5kx5C00.pdb
 91 85 0 0 0
SMALL
GASTEIGER

@<TRIPOS>ATOM
      1  N          5.6420   50.2460    5.5340 N.3   247  ALA247     -0.1231
      2  CA         5.8250   50.4390    6.9670 C.3   247  ALA247      0.1694
      3  C          5.8680   49.1150    7.7240 C.2   247  ALA247      0.2591
      4  O          6.6140   48.9990    8.6920 O.2   247  ALA247     -0.2718
      5  CB         4.6990   51.3130    7.5090 C.3   247  ALA247      0.0304
      6  N          5.0560   48.1280    7.2900 N.am  248  LEU248     -0.1980
      7  CA         4.8900   46.8340    7.9620 C.3   248  LEU248      0.1596
      8  C          5.6930   45.7160    7.3350 C.2   248  LEU248      0.2287
      9  O          5.6450   44.5670    7.7800 O.2   248  LEU248     -0.2864
     10  CB         3.4020   46.4940    8.0220 C.3   248  LEU248      0.0297
     11  CG         2.5240   47.5520    8.6830 C.3   248  LEU248      0.0022
     12  CD1        1.0710   47.1810    8.5880 C.3   248  LEU248      0.0001
     13  CD2        2.9410   47.8110   10.1340 C.3   248  LEU248      0.0001
     14  N         -2.7840   45.3930   10.7350 N.3   325  PRO325     -0.2102
     15  CA        -2.2630   44.7490   11.9610 C.3   325  PRO325      0.1504
     16  C         -3.3180   44.2000   12.9110 C.2   325  PRO325      0.2575
     17  O         -3.1990   43.0390   13.3210 O.2   325  PRO325     -0.2718
     18  CB        -1.4290   45.8410   12.6170 C.3   325  PRO325      0.0282
     19  CG        -1.0590   46.7650   11.5130 C.3   325  PRO325      0.0208
     20  CD        -2.1490   46.7130   10.5010 C.3   325  PRO325      0.0893
     21  N         -4.3710   45.0030   13.2230 N.am  326  LYS326     -0.1980
     22  CA        -5.4590   44.6070   14.1110 C.3   326  LYS326      0.1596
     23  C         -5.9420   43.1760   13.8450 C.2   326  LYS326      0.2287
     24  O         -6.1030   42.3880   14.7880 O.2   326  LYS326     -0.2864
     25  CB        -6.6390   45.5900   13.9880 C.3   326  LYS326      0.0298
     26  CG        -7.7040   45.4320   15.0870 C.3   326  LYS326      0.0038
     27  CD        -8.9580   46.2840   14.8530 C.3   326  LYS326      0.0206
     28  CE       -10.0480   45.5540   14.0990 C.3   326  LYS326      0.1093
     29  NZ        -9.8480   45.6190   12.6250 N.3   326  LYS326     -0.1314
     30  N         -4.3730   40.7070   11.8960 N.3   328  VAL328     -0.1231
     31  CA        -3.2440   39.7710   11.9720 C.3   328  VAL328      0.1692
     32  C         -2.9910   39.4170   13.4260 C.2   328  VAL328      0.2592
     33  O         -2.8420   38.2280   13.7660 O.2   328  VAL328     -0.2718
     34  CB        -1.9870   40.3940   11.3290 C.3   328  VAL328      0.0266
     35  CG1       -0.7500   39.5490   11.5790 C.3   328  VAL328      0.0020
     36  CG2       -2.1930   40.6430    9.8440 C.3   328  VAL328      0.0020
     37  N         -2.9600   40.4570   14.2880 N.am  329  ASN329     -0.1974
     38  CA        -2.7370   40.3240   15.7330 C.3   329  ASN329      0.1688
     39  C         -3.7860   39.4280   16.3830 C.2   329  ASN329      0.2292
     40  O         -3.4420   38.5070   17.1270 O.2   329  ASN329     -0.2864
     41  CB        -2.6470   41.7020   16.4200 C.3   329  ASN329      0.1181
     42  CG        -1.4410   42.5560   16.0260 C.2   329  ASN329      0.2629
     43  OD1       -0.4040   42.0820   15.5580 O.2   329  ASN329     -0.2716
     44  ND2       -1.5490   43.8560   16.1910 N.am  329  ASN329     -0.0877
     45  N         -3.4280   35.7130   15.0680 N.3   332  ILE332     -0.1245
     46  CA        -2.3000   35.0690   15.7780 C.3   332  ILE332      0.1561
     47  C         -2.7220   34.6920   17.2090 C.2   332  ILE332      0.2260
     48  O         -2.5650   33.5310   17.6180 O.2   332  ILE332     -0.2867
     49  CB        -0.9480   35.8700   15.7190 C.3   332  ILE332      0.0252
     50  CG1       -0.3840   35.9030   14.2800 C.3   332  ILE332      0.0019
     51  CG2        0.0910   35.2760   16.6850 C.3   332  ILE332      0.0019
     52  CD1        0.4280   37.0850   13.9210 C.3   332  ILE332      0.0001
     53  N         -2.6930   30.9040   18.9730 N.3   336  LYS336     -0.1245
     54  CA        -1.9670   30.7650   20.2270 C.3   336  LYS336      0.1561
     55  C         -2.8690   30.1740   21.3300 C.2   336  LYS336      0.2260
     56  O         -2.5450   29.0990   21.8350 O.2   336  LYS336     -0.2867
     57  CB        -1.3460   32.1080   20.6590 C.3   336  LYS336      0.0271
     58  CG        -0.0040   32.4030   19.9960 C.3   336  LYS336      0.0035
     59  CD         0.7720   33.4380   20.7870 C.3   336  LYS336      0.0206
     60  CE         2.2640   33.3180   20.5930 C.3   336  LYS336      0.1093
     61  NZ         3.0110   34.1460   21.5850 N.3   336  LYS336     -0.1314
     62  N          7.0760   33.5960   19.7750 N.3   350  GLY350     -0.1210
     63  CA         6.5800   34.6730   18.9210 C.3   350  GLY350      0.1956
     64  C          6.4570   34.3190   17.4430 C.2   350  GLY350      0.2611
     65  O          7.0650   33.3450   16.9570 O.2   350  GLY350     -0.2717
     66  N          5.6240   35.1010   16.7230 N.am  351  PHE351     -0.1976
     67  CA         5.3780   34.9370   15.2860 C.3   351  PHE351      0.1639
     68  C          5.8640   36.1830   14.6380 C.2   351  PHE351      0.2290
     69  O          5.3680   37.2430   14.9700 O.2   351  PHE351     -0.2864
     70  CB         3.8880   34.7210   14.9840 C.3   351  PHE351      0.0560
     71  CG         3.3370   33.3780   15.4140 C.ar  351  PHE351     -0.0200
     72  CD1        3.3970   32.9710   16.7380 C.ar  351  PHE351     -0.0042
     73  CD2        2.6950   32.5520   14.5070 C.ar  351  PHE351     -0.0042
     74  CE1        2.8930   31.7330   17.1340 C.ar  351  PHE351     -0.0003
     75  CE2        2.1660   31.3200   14.9100 C.ar  351  PHE351     -0.0003
     76  CZ         2.2650   30.9240   16.2220 C.ar  351  PHE351     -0.0000
     77  N          5.9660   38.7790   11.8290 N.3   353  VAL353     -0.1245
     78  CA         5.0440   39.1930   10.7640 C.3   353  VAL353      0.1561
     79  C          5.5430   40.3500    9.8930 C.2   353  VAL353      0.2260
     80  O          5.9480   41.3900   10.4160 O.2   353  VAL353     -0.2867
     81  CB         3.6320   39.5360   11.3410 C.3   353  VAL353      0.0252
     82  CG1        2.6850   40.0180   10.2450 C.3   353  VAL353      0.0019
     83  CG2        3.0210   38.3610   12.1010 C.3   353  VAL353      0.0019
     84  N          4.0950   42.4940    6.1510 N.3   355  ILE355     -0.1245
     85  CA         2.9060   42.8220    5.3620 C.3   355  ILE355      0.1561
     86  C          3.3200   43.7380    4.2300 C.2   355  ILE355      0.2260
     87  O          3.9130   44.7840    4.5020 O.2   355  ILE355     -0.2867
     88  CB         1.7710   43.5420    6.1990 C.3   355  ILE355      0.0252
     89  CG1        1.1750   42.6720    7.3060 C.3   355  ILE355      0.0019
     90  CG2        0.6280   44.0850    5.2880 C.3   355  ILE355      0.0019
     91  CD1        0.2050   43.4470    8.2650 C.3   355  ILE355      0.0001
@<TRIPOS>BOND
     1    86    87    2
     2    86    85    1
     3    90    88    1
     4    85    84    1
     5    85    88    1
     6     1     2    1
     7    88    89    1
     8     2     5    1
     9     2     3    1
    10     6     3   am
    11     6     7    1
    12    89    91    1
    13     8     9    2
    14     8     7    1
    15     3     4    2
    16     7    10    1
    17    10    11    1
    18    12    11    1
    19    11    13    1
    20    36    34    1
    21    79    80    2
    22    79    78    1
    23    82    81    1
    24    20    14    1
    25    20    19    1
    26    14    15    1
    27    78    81    1
    28    78    77    1
    29    34    35    1
    30    34    31    1
    31    81    83    1
    32    19    18    1
    33    30    31    1
    34    15    18    1
    35    15    16    1
    36    31    32    1
    37    29    28    1
    38    16    21   am
    39    16    17    2
    40    21    22    1
    41    32    33    2
    42    32    37   am
    43    23    22    1
    44    23    24    2
    45    52    50    1
    46    25    22    1
    47    25    26    1
    48    28    27    1
    49    50    49    1
    50    37    38    1
    51    73    75   ar
    52    73    71   ar
    53    68    69    2
    54    68    67    1
    55    27    26    1
    56    75    76   ar
    57    70    67    1
    58    70    71    1
    59    45    46    1
    60    67    66    1
    61    71    72   ar
    62    43    42    2
    63    49    46    1
    64    49    51    1
    65    38    39    1
    66    38    41    1
    67    46    47    1
    68    42    44   am
    69    42    41    1
    70    76    74   ar
    71    39    40    2
    72    66    64   am
    73    72    74   ar
    74    65    64    2
    75    47    48    2
    76    64    63    1
    77    63    62    1
    78    53    54    1
    79    58    57    1
    80    58    59    1
    81    54    57    1
    82    54    55    1
    83    60    59    1
    84    60    61    1
    85    55    56    2
