@<TRIPOS>MOLECULE
tmp/5kx6B00.pdb
 161 154 0 0 0
SMALL
GASTEIGER

@<TRIPOS>ATOM
      1  N         18.0360    3.7430   41.9790 N.3    87  GLY87      -0.1210
      2  CA        16.8400    3.5910   42.8090 C.3    87  GLY87       0.1956
      3  C         15.8110    2.7140   42.1890 C.2    87  GLY87       0.2612
      4  O         15.8970    2.3900   41.0320 O.2    87  GLY87      -0.2717
      5  N         14.7910    2.3400   42.9500 N.am   88  LEU88      -0.1965
      6  CA        13.8760    1.3140   42.5160 C.3    88  LEU88       0.1728
      7  C         13.1310    1.6300   41.1980 C.2    88  LEU88       0.2617
      8  O         12.9260    0.7230   40.3870 O.2    88  LEU88      -0.2715
      9  CB        12.9290    0.9280   43.6320 C.3    88  LEU88       0.0311
     10  CG        11.7700    0.0140   43.2630 C.3    88  LEU88       0.0022
     11  CD1       12.2850   -1.3220   42.8070 C.3    88  LEU88       0.0001
     12  CD2       10.8450   -0.1890   44.4300 C.3    88  LEU88       0.0001
     13  N         12.6920    2.8530   40.9750 N.am   89  GLY89      -0.1940
     14  CA        12.0940    3.2670   39.6570 C.3    89  GLY89       0.2014
     15  C         13.0440    3.1170   38.4290 C.2    89  GLY89       0.2638
     16  O         12.6560    2.7200   37.3600 O.2    89  GLY89      -0.2714
     17  N         14.2980    3.4870   38.6310 N.am   90  ASN90      -0.1972
     18  CA        15.2970    3.3640   37.6700 C.3    90  ASN90       0.1688
     19  C         15.6380    1.8960   37.3530 C.2    90  ASN90       0.2292
     20  O         15.9690    1.5740   36.2120 O.2    90  ASN90      -0.2864
     21  CB        16.5490    4.1090   38.1400 C.3    90  ASN90       0.1181
     22  CG        16.3630    5.6120   38.2060 C.2    90  ASN90       0.2629
     23  OD1       15.4360    6.1860   37.6420 O.2    90  ASN90      -0.2716
     24  ND2       17.2710    6.2620   38.8990 N.am   90  ASN90      -0.0877
     25  N          0.4980   11.1570   41.7600 N.3   270  GLN270     -0.1231
     26  CA         1.8210   10.7490   42.1110 C.3   270  GLN270      0.1698
     27  C          2.6060   12.0430   42.2380 C.2   270  GLN270      0.2592
     28  O          2.8190   12.7540   41.2480 O.2   270  GLN270     -0.2718
     29  CB         2.4140    9.8200   40.9920 C.3   270  GLN270      0.0381
     30  CG         3.7960    9.2330   41.2420 C.3   270  GLN270      0.0905
     31  CD         4.8970   10.1200   40.8090 C.2   270  GLN270      0.2608
     32  OE1        4.9580   10.5100   39.6350 O.2   270  GLN270     -0.2717
     33  NE2        5.7850   10.4690   41.7280 N.am  270  GLN270     -0.0878
     34  N          3.1530   12.2610   43.4340 N.am  271  VAL271     -0.1966
     35  CA         3.7430   13.5620   43.8160 C.3   271  VAL271      0.1727
     36  C          5.1670   13.2990   44.1940 C.2   271  VAL271      0.2612
     37  O          5.5040   12.5150   45.1370 O.2   271  VAL271     -0.2715
     38  CB         3.0300   14.2280   45.0260 C.3   271  VAL271      0.0290
     39  CG1        3.6310   15.5790   45.3610 C.3   271  VAL271      0.0023
     40  CG2        1.5750   14.4190   44.6870 C.3   271  VAL271      0.0023
     41  N          5.9820   13.9990   43.4390 N.am  272  LYS272     -0.2031
     42  CA         7.3820   14.0560   43.6780 C.3   272  LYS272      0.1282
     43  C          7.7520   15.5000   43.4530 C.3   272  LYS272      0.2036
     44  O          7.3580   16.1530   42.4120 O.3   272  LYS272     -0.2185
     45  CB         8.1240   13.1690   42.6930 C.3   272  LYS272      0.0244
     46  CG         9.6160   13.4730   42.5710 C.3   272  LYS272      0.0034
     47  CD        10.5190   12.4500   43.2590 C.3   272  LYS272      0.0206
     48  CE        11.9860   12.8430   43.1130 C.3   272  LYS272      0.1093
     49  NZ        12.3430   13.8870   44.1770 N.3   272  LYS272     -0.1314
     50  N         11.1980   17.8770   43.4140 N.3   274  PHE274     -0.1241
     51  CA        12.6760   17.9650   43.3400 C.3   274  PHE274      0.1605
     52  C         13.1690   19.1920   44.0260 C.2   274  PHE274      0.2264
     53  O         13.3150   20.2220   43.3740 O.2   274  PHE274     -0.2867
     54  CB        13.1890   17.9560   41.8820 C.3   274  PHE274      0.0534
     55  CG        12.8870   16.6650   41.1480 C.ar  274  PHE274     -0.0203
     56  CD1       11.6920   16.5310   40.4820 C.ar  274  PHE274     -0.0042
     57  CD2       13.7900   15.5990   41.1460 C.ar  274  PHE274     -0.0042
     58  CE1       11.3790   15.3540   39.8150 C.ar  274  PHE274     -0.0003
     59  CE2       13.4950   14.3810   40.4790 C.ar  274  PHE274     -0.0003
     60  CZ        12.2750   14.2570   39.8060 C.ar  274  PHE274     -0.0000
     61  N          0.4280    9.7580   46.3910 N.3   315  THR315     -0.1203
     62  CA         1.6290    9.0900   46.9000 C.3   315  THR315      0.1994
     63  C          2.6500   10.1210   46.9150 C.2   315  THR315      0.2619
     64  O          2.7570   10.9580   45.9770 O.2   315  THR315     -0.2717
     65  CB         2.1520    7.8730   46.0350 C.3   315  THR315      0.1784
     66  OG1        2.3280    8.2920   44.6550 O.3   315  THR315     -0.2211
     67  CG2        1.1800    6.7260   46.1310 C.3   315  THR315      0.0376
     68  N          3.3900   10.1050   47.9920 N.am  316  SER316     -0.1937
     69  CA         4.3280   11.1400   48.2290 C.3   316  SER316      0.2055
     70  C          5.1640   10.8310   49.4130 C.2   316  SER316      0.2642
     71  O          4.8220    9.9520   50.2470 O.2   316  SER316     -0.2714
     72  CB         3.6460   12.4900   48.4860 C.3   316  SER316      0.2130
     73  OG         4.6360   13.4810   48.6900 O.3   316  SER316     -0.2179
     74  N          6.2500   11.5930   49.4920 N.am  317  LEU317     -0.1977
     75  CA         7.1530   11.4560   50.5540 C.3   317  LEU317      0.1596
     76  C          6.7260   12.3590   51.6750 C.2   317  LEU317      0.2287
     77  O          7.1730   12.1080   52.7810 O.2   317  LEU317     -0.2864
     78  CB         8.5940   11.6930   50.1070 C.3   317  LEU317      0.0297
     79  CG         9.2210   10.5300   49.3190 C.3   317  LEU317      0.0022
     80  CD1       10.4470   10.9750   48.5120 C.3   317  LEU317      0.0001
     81  CD2        9.6200    9.3540   50.2040 C.3   317  LEU317      0.0001
     82  N          1.4980    6.1190   52.7380 N.3   346  SER346     -0.1217
     83  CA         2.7470    6.2530   53.4920 C.3   346  SER346      0.1889
     84  C          3.2550    7.6790   53.4400 C.2   346  SER346      0.2288
     85  O          2.9270    8.4580   52.5350 O.2   346  SER346     -0.2866
     86  CB         3.8580    5.3370   52.9310 C.3   346  SER346      0.2089
     87  OG         4.4440    5.8780   51.7190 O.3   346  SER346     -0.2183
     88  N          7.0530    8.4840   53.9640 N.3   348  GLU348     -0.1245
     89  CA         8.4260    8.0540   54.3100 C.3   348  GLU348      0.1567
     90  C          9.3810    9.2580   54.4940 C.2   348  GLU348      0.2260
     91  O         10.0710    9.3120   55.4940 O.2   348  GLU348     -0.2867
     92  CB         8.9810    7.0380   53.2840 C.3   348  GLU348      0.0388
     93  CG         8.1460    5.7670   53.0810 C.3   348  GLU348      0.1160
     94  CD         8.4710    4.6340   54.0670 C.2   348  GLU348      0.3649
     95  OE1        9.0030    3.5730   53.6080 O.co2 348  GLU348     -0.2457
     96  OE2        8.1870    4.7990   55.2910 O.co2 348  GLU348     -0.2457
     97  N         10.7080   -1.1250   53.1710 N.3   351  HIS351     -0.1226
     98  CA        10.7270    0.2830   52.6250 C.3   351  HIS351      0.1752
     99  C         10.5610    0.3440   51.0840 C.2   351  HIS351      0.2596
    100  O          9.7030    1.0850   50.5820 O.2   351  HIS351     -0.2718
    101  CB        11.9750    1.1190   53.1100 C.3   351  HIS351      0.0759
    102  CG        13.3330    0.5550   52.7260 C.ar  351  HIS351      0.0818
    103  ND1       13.9840   -0.4230   53.4600 N.ar  351  HIS351     -0.2268
    104  CD2       14.1740    0.8750   51.7110 C.ar  351  HIS351      0.1154
    105  CE1       15.1510   -0.6930   52.9020 C.ar  351  HIS351      0.1986
    106  NE2       15.2880    0.0760   51.8350 N.ar  351  HIS351     -0.2212
    107  N         11.3690   -0.4570   50.3560 N.am  352  ASN352     -0.1974
    108  CA        11.1940   -0.6800   48.9260 C.3   352  ASN352      0.1688
    109  C          9.9120   -1.4270   48.6490 C.2   352  ASN352      0.2292
    110  O          9.2410   -1.1770   47.6240 O.2   352  ASN352     -0.2864
    111  CB        12.3740   -1.4550   48.3340 C.3   352  ASN352      0.1181
    112  CG        13.4810   -0.5520   47.7960 C.2   352  ASN352      0.2629
    113  OD1       13.2250    0.5480   47.4200 O.2   352  ASN352     -0.2716
    114  ND2       14.6950   -1.0600   47.7230 N.am  352  ASN352     -0.0877
    115  N          7.1060   -1.0520   50.1700 N.3   354  LYS354     -0.1231
    116  CA         6.0180   -0.1030   50.2030 C.3   354  LYS354      0.1693
    117  C          6.0130    0.7470   48.9360 C.2   354  LYS354      0.2591
    118  O          4.9670    1.0030   48.3550 O.2   354  LYS354     -0.2718
    119  CB         6.1860    0.7920   51.4280 C.3   354  LYS354      0.0285
    120  CG         5.6000    0.1470   52.6470 C.3   354  LYS354      0.0035
    121  CD         5.8690    0.9500   53.8920 C.3   354  LYS354      0.0206
    122  CE         5.0880    0.4060   55.0630 C.3   354  LYS354      0.1093
    123  NZ         5.5630    1.0940   56.2720 N.3   354  LYS354     -0.1314
    124  N          7.2070    1.1650   48.5190 N.am  355  ALA355     -0.1980
    125  CA         7.4040    1.9100   47.2760 C.3   355  ALA355      0.1597
    126  C          6.9550    1.1030   46.1180 C.2   355  ALA355      0.2287
    127  O          6.3100    1.6410   45.2540 O.2   355  ALA355     -0.2864
    128  CB         8.8600    2.1980   47.0870 C.3   355  ALA355      0.0319
    129  N          3.1360    1.0230   46.1340 N.3   358  GLU358     -0.1245
    130  CA         2.5540    2.2980   45.7310 C.3   358  GLU358      0.1567
    131  C          2.5880    2.5450   44.2590 C.2   358  GLU358      0.2260
    132  O          1.6540    3.1330   43.6830 O.2   358  GLU358     -0.2867
    133  CB         3.2390    3.4050   46.5000 C.3   358  GLU358      0.0388
    134  CG         2.9660    3.3350   47.9840 C.3   358  GLU358      0.1160
    135  CD         3.5410    4.5010   48.7280 C.2   358  GLU358      0.3649
    136  OE1        3.7590    5.6260   48.1430 O.co2 358  GLU358     -0.2457
    137  OE2        3.7860    4.3280   49.9230 O.co2 358  GLU358     -0.2457
    138  N          9.5880   11.9920   37.1510 N.3   374  SER374     -0.1202
    139  CA         9.5530   10.9400   38.1690 C.3   374  SER374      0.2020
    140  C          9.4510    9.5520   37.4560 C.2   374  SER374      0.2619
    141  O          8.4980    9.2650   36.7460 O.2   374  SER374     -0.2717
    142  CB         8.3550   11.1610   39.0810 C.3   374  SER374      0.2103
    143  OG         8.1380   10.0700   39.9850 O.3   374  SER374     -0.2182
    144  N         10.4100    8.6980   37.7320 N.am  375  THR375     -0.1938
    145  CA        10.3430    7.3060   37.2970 C.3   375  THR375      0.2028
    146  C          9.3480    6.4670   38.0720 C.2   375  THR375      0.2642
    147  O          8.9710    5.4370   37.6190 O.2   375  THR375     -0.2714
    148  CB        11.7020    6.6330   37.4390 C.3   375  THR375      0.1808
    149  OG1       12.1380    6.7850   38.7730 O.3   375  THR375     -0.2208
    150  CG2       12.6460    7.2440   36.5490 C.3   375  THR375      0.0379
    151  N          8.8840    6.9460   39.2050 N.am  376  PHE376     -0.1973
    152  CA         7.8360    6.3160   39.9860 C.3   376  PHE376      0.1639
    153  C          6.5430    6.4410   39.2310 C.2   376  PHE376      0.2290
    154  O          5.8060    5.4300   39.0730 O.2   376  PHE376     -0.2864
    155  CB         7.7590    7.1040   41.3160 C.3   376  PHE376      0.0560
    156  CG         7.1750    6.3650   42.4860 C.ar  376  PHE376     -0.0200
    157  CD1        5.8080    6.4170   42.7620 C.ar  376  PHE376     -0.0042
    158  CD2        7.9940    5.7780   43.3810 C.ar  376  PHE376     -0.0042
    159  CE1        5.2740    5.8120   43.8730 C.ar  376  PHE376     -0.0003
    160  CE2        7.4540    5.1220   44.5330 C.ar  376  PHE376     -0.0003
    161  CZ         6.1020    5.1340   44.7600 C.ar  376  PHE376     -0.0000
@<TRIPOS>BOND
     1    20    19    2
     2   150   148    1
     3   141   140    2
     4   138   139    1
     5   145   148    1
     6   145   144    1
     7   145   146    1
     8    19    18    1
     9    16    15    2
    10   148   149    1
    11   140   144   am
    12   140   139    1
    13   147   146    2
    14    23    22    2
    15    18    21    1
    16    18    17    1
    17   146   151   am
    18    21    22    1
    19   139   142    1
    20    22    24   am
    21    15    17   am
    22    15    14    1
    23   154   153    2
    24   142   143    1
    25   151   152    1
    26   153   152    1
    27    32    31    2
    28    14    13    1
    29    60    58   ar
    30    60    59   ar
    31    58    56   ar
    32   152   155    1
    33     8     7    2
    34    59    57   ar
    35    56    55   ar
    36    31    30    1
    37    31    33   am
    38    13     7   am
    39    29    30    1
    40    29    26    1
    41     4     3    2
    42    57    55   ar
    43    55    54    1
    44     7     6    1
    45    28    27    2
    46   155   156    1
    47    25    26    1
    48    54    51    1
    49     1     2    1
    50    26    27    1
    51     3     2    1
    52     3     5   am
    53    27    34   am
    54    44    43    1
    55   156   157   ar
    56   156   158   ar
    57     6     5    1
    58     6     9    1
    59    46    45    1
    60    46    47    1
    61    45    42    1
    62   157   159   ar
    63    11    10    1
    64    48    47    1
    65    48    49    1
    66    10     9    1
    67    10    12    1
    68    51    50    1
    69    51    52    1
    70    53    52    2
    71   158   160   ar
    72    34    35    1
    73    41    42    1
    74    41    36   am
    75    43    42    1
    76   132   131    2
    77    35    36    1
    78    35    38    1
    79   159   161   ar
    80    36    37    2
    81   131   130    1
    82   160   161   ar
    83    66    65    1
    84    40    38    1
    85    38    39    1
    86   127   126    2
    87   130   129    1
    88   130   133    1
    89    64    63    2
    90    65    67    1
    91    65    62    1
    92   126   125    1
    93    61    62    1
    94   133   134    1
    95    62    63    1
    96    63    68   am
    97   128   125    1
    98   125   124    1
    99   113   112    2
   100   110   109    2
   101   114   112   am
   102   112   111    1
   103   134   135    1
   104    68    69    1
   105   136   135   ar
   106    69    72    1
   107    69    70    1
   108   111   108    1
   109   118   117    2
   110    72    73    1
   111    80    79    1
   112   124   117   am
   113   109   108    1
   114   135   137   ar
   115   108   107    1
   116   117   116    1
   117    79    78    1
   118    79    81    1
   119    70    74   am
   120    70    71    2
   121    74    75    1
   122    78    75    1
   123   115   116    1
   124   116   119    1
   125   107    99   am
   126    75    76    1
   127   100    99    2
   128    99    98    1
   129   119   120    1
   130    76    77    2
   131   104   106   ar
   132   104   102   ar
   133    87    86    1
   134   106   105   ar
   135    85    84    2
   136    98   101    1
   137    98    97    1
   138   120   121    1
   139   102   101    1
   140   102   103   ar
   141    82    83    1
   142   105   103   ar
   143    86    83    1
   144    93    92    1
   145    93    94    1
   146    92    89    1
   147    84    83    1
   148    95    94   ar
   149   121   122    1
   150    88    89    1
   151    94    96   ar
   152    89    90    1
   153    90    91    2
   154   122   123    1
