@<TRIPOS>MOLECULE
tmp/5kx7B00.pdb
 171 164 0 0 0
SMALL
GASTEIGER

@<TRIPOS>ATOM
      1  N         39.3540   45.8290   58.9190 N.3    30  MET30      -0.1230
      2  CA        39.7320   44.4340   59.1420 C.3    30  MET30       0.1702
      3  C         39.7370   43.7010   57.8100 C.2    30  MET30       0.2593
      4  O         40.5720   42.8200   57.6220 O.2    30  MET30      -0.2718
      5  CB        38.7690   43.7250   60.1040 C.3    30  MET30       0.0401
      6  CG        38.7760   44.3070   61.4890 C.3    30  MET30       0.0596
      7  SD        37.5570   43.5350   62.5610 S.3    30  MET30      -0.1393
      8  CE        36.0520   44.1860   61.8990 C.3    30  MET30       0.0692
      9  N         38.7860   44.0420   56.9040 N.am   31  GLY31      -0.1942
     10  CA        38.6860   43.4600   55.5600 C.3    31  GLY31       0.2014
     11  C         37.7260   44.2620   54.6660 C.2    31  GLY31       0.2639
     12  O         37.2110   45.2950   55.0890 O.2    31  GLY31      -0.2714
     13  N         37.4920   43.7860   53.4320 N.am   32  GLU32      -0.1963
     14  CA        36.5710   44.4160   52.4620 C.3    32  GLU32       0.1737
     15  C         36.1690   43.3920   51.4050 C.2    32  GLU32       0.2655
     16  O         36.7550   42.3070   51.3820 O.2    32  GLU32      -0.2711
     17  CB        37.2010   45.6510   51.7910 C.3    32  GLU32       0.0429
     18  CG        38.6020   45.4200   51.2450 C.3    32  GLU32       0.1163
     19  CD        39.1340   46.5410   50.3740 C.2    32  GLU32       0.3649
     20  OE1       38.3690   47.0310   49.5110 O.co2  32  GLU32      -0.2457
     21  OE2       40.3300   46.8920   50.5140 O.co2  32  GLU32      -0.2457
     22  N         35.1840   43.7040   50.5380 N.am   33  GLY33      -0.1730
     23  CA        34.7910   42.7200   49.5230 C.2    33  GLY33       0.1340
     24  C         33.9170   43.2080   48.3670 C.2    33  GLY33       0.2521
     25  O         33.1150   42.4230   47.8510 O.2    33  GLY33      -0.2816
     26  N         34.7780   46.3610   56.2280 N.3    38  VAL38      -0.1245
     27  CA        34.4880   45.8690   57.5710 C.3    38  VAL38       0.1561
     28  C         35.4670   46.5320   58.5160 C.2    38  VAL38       0.2260
     29  O         36.6620   46.2530   58.4630 O.2    38  VAL38      -0.2867
     30  CB        34.5810   44.3310   57.6400 C.3    38  VAL38       0.0252
     31  CG1       33.9380   43.8090   58.9160 C.3    38  VAL38       0.0019
     32  CG2       33.9240   43.7000   56.4210 C.3    38  VAL38       0.0019
     33  N         32.1680   44.6630   64.8890 N.3    49  ALA49      -0.1245
     34  CA        32.5140   44.6850   63.4830 C.3    49  ALA49       0.1562
     35  C         31.4410   45.5400   62.8340 C.2    49  ALA49       0.2260
     36  O         30.2480   45.2140   62.9460 O.2    49  ALA49      -0.2867
     37  CB        32.4980   43.2780   62.9110 C.3    49  ALA49       0.0290
     38  N         30.1240   47.1390   59.2980 N.3    51  LYS51      -0.1245
     39  CA        30.2550   46.9580   57.8600 C.3    51  LYS51       0.1561
     40  C         29.5740   48.1090   57.1780 C.2    51  LYS51       0.2260
     41  O         28.3460   48.1580   57.2090 O.2    51  LYS51      -0.2867
     42  CB        29.6330   45.6200   57.4370 C.3    51  LYS51       0.0271
     43  CG        29.8900   45.1890   55.9950 C.3    51  LYS51       0.0035
     44  CD        28.7500   44.3040   55.4870 C.3    51  LYS51       0.0206
     45  CE        29.0420   43.6160   54.1730 C.3    51  LYS51       0.1093
     46  NZ        27.9500   42.6860   53.7670 N.3    51  LYS51      -0.1314
     47  N         26.8730   34.4400   61.8300 N.3    80  VAL80      -0.1245
     48  CA        27.2850   35.6710   62.5180 C.3    80  VAL80       0.1561
     49  C         26.0430   36.4130   63.0380 C.2    80  VAL80       0.2260
     50  O         24.9870   36.2910   62.4360 O.2    80  VAL80      -0.2867
     51  CB        28.1850   36.6030   61.6630 C.3    80  VAL80       0.0252
     52  CG1       29.5080   35.9330   61.3030 C.3    80  VAL80       0.0019
     53  CG2       27.4470   37.1360   60.4320 C.3    80  VAL80       0.0019
     54  N         27.8890   44.1280   63.8840 N.3    96  TYR96      -0.1227
     55  CA        27.8390   42.7340   64.3000 C.3    96  TYR96       0.1736
     56  C         28.7420   42.4340   65.4810 C.2    96  TYR96       0.2595
     57  O         29.7420   43.1140   65.7110 O.2    96  TYR96      -0.2718
     58  CB        28.3400   41.8240   63.1690 C.3    96  TYR96       0.0548
     59  CG        27.6510   41.9310   61.8320 C.ar   96  TYR96      -0.0200
     60  CD1       26.8070   40.9200   61.3850 C.ar   96  TYR96      -0.0009
     61  CD2       28.0090   42.9260   60.9220 C.ar   96  TYR96      -0.0009
     62  CE1       26.2680   40.9450   60.1060 C.ar   96  TYR96       0.0417
     63  CE2       27.4520   42.9780   59.6490 C.ar   96  TYR96       0.0417
     64  CZ        26.5570   42.0020   59.2600 C.ar   96  TYR96       0.1957
     65  OH        26.0670   42.0070   57.9880 O.3    96  TYR96      -0.2866
     66  N         28.4920   41.2890   66.0980 N.am   97  VAL97      -0.1966
     67  CA        29.3330   40.8050   67.1690 C.3    97  VAL97       0.1727
     68  C         30.6580   40.4510   66.5030 C.2    97  VAL97       0.2616
     69  O         30.6720   39.6660   65.5470 O.2    97  VAL97      -0.2715
     70  CB        28.7210   39.5710   67.8750 C.3    97  VAL97       0.0290
     71  CG1       29.7310   38.9150   68.8180 C.3    97  VAL97       0.0023
     72  CG2       27.4460   39.9410   68.6100 C.3    97  VAL97       0.0023
     73  N         31.7500   41.0530   66.9830 N.am   98  TYR98      -0.1960
     74  CA        33.1050   40.8570   66.4640 C.3    98  TYR98       0.1771
     75  C         33.5570   39.3860   66.4970 C.2    98  TYR98       0.2619
     76  O         33.1810   38.6370   67.4050 O.2    98  TYR98      -0.2715
     77  CB        34.0690   41.7070   67.2820 C.3    98  TYR98       0.0574
     78  CG        35.5380   41.5040   67.0010 C.ar   98  TYR98      -0.0198
     79  CD1       36.1220   42.0300   65.8530 C.ar   98  TYR98      -0.0009
     80  CD2       36.3830   40.9660   67.9690 C.ar   98  TYR98      -0.0009
     81  CE1       37.4930   41.9420   65.6410 C.ar   98  TYR98       0.0417
     82  CE2       37.7560   40.9200   67.7870 C.ar   98  TYR98       0.0417
     83  CZ        38.3040   41.3840   66.6090 C.ar   98  TYR98       0.1957
     84  OH        39.6490   41.2860   66.3840 O.3    98  TYR98      -0.2866
     85  N         34.3570   38.9920   65.4810 N.am   99  MET99      -0.1964
     86  CA        34.9330   37.6600   65.3340 C.3    99  MET99       0.1722
     87  C         36.4720   37.7970   65.4830 C.2    99  MET99       0.2458
     88  O         37.1680   38.2200   64.5550 O.2    99  MET99      -0.2730
     89  CB        34.5240   37.0450   64.0010 C.3    99  MET99       0.0427
     90  CG        33.0230   36.7930   63.9170 C.3    99  MET99       0.0599
     91  SD        32.4200   35.4920   65.0500 S.3    99  MET99      -0.1393
     92  CE        30.8680   36.2820   65.5850 C.3    99  MET99       0.0692
     93  N         36.9870   37.5020   66.7040 N.am  100  PRO100     -0.2716
     94  CA        38.4010   37.5820   67.0080 C.3   100  PRO100      0.1536
     95  C         39.3370   36.8790   66.0230 C.2   100  PRO100      0.2599
     96  O         40.2920   37.5050   65.5800 O.2   100  PRO100     -0.2715
     97  CB        38.4670   36.9440   68.3950 C.3   100  PRO100      0.0310
     98  CG        37.2390   37.2670   68.9960 C.3   100  PRO100      0.0237
     99  CD        36.2110   37.3570   67.9500 C.3   100  PRO100      0.0939
    100  N         39.0780   35.6020   65.6820 N.am  101  ASN101     -0.1959
    101  CA        39.9560   34.8850   64.7800 C.3   101  ASN101      0.1819
    102  C         39.7300   35.2050   63.2750 C.2   101  ASN101      0.2622
    103  O         40.3810   34.5590   62.4430 O.2   101  ASN101     -0.2715
    104  CB        39.9020   33.3820   65.0540 C.3   101  ASN101      0.1195
    105  CG        40.6820   33.0030   66.3030 C.2   101  ASN101      0.2630
    106  OD1       41.8920   33.2430   66.3970 O.2   101  ASN101     -0.2716
    107  ND2       40.0620   32.2790   67.2350 N.am  101  ASN101     -0.0877
    108  N         38.9000   36.2380   62.9160 N.am  102  GLY102     -0.1940
    109  CA        38.6680   36.6790   61.5260 C.3   102  GLY102      0.2014
    110  C         38.1380   35.5980   60.5500 C.2   102  GLY102      0.2639
    111  O         37.4030   34.6950   60.9580 O.2   102  GLY102     -0.2714
    112  N         38.4920   35.7200   59.2460 N.am  103  SER103     -0.1949
    113  CA        37.9880   34.8150   58.2060 C.3   103  SER103      0.1924
    114  C         38.7730   33.5150   58.0920 C.2   103  SER103      0.2314
    115  O         39.9350   33.5000   58.4400 O.2   103  SER103     -0.2863
    116  CB        37.8910   35.5500   56.8680 C.3   103  SER103      0.2116
    117  OG        39.1020   35.7880   56.1730 O.3   103  SER103     -0.2180
    118  N         41.8830   33.9370   55.8790 N.3   106  ASP106     -0.1225
    119  CA        43.0250   34.5060   56.5730 C.3   106  ASP106      0.1805
    120  C         43.6890   33.4910   57.5340 C.2   106  ASP106      0.2597
    121  O         44.9210   33.4610   57.5940 O.2   106  ASP106     -0.2718
    122  CB        42.6340   35.8350   57.2640 C.3   106  ASP106      0.1424
    123  CG        42.2220   36.9510   56.2910 C.2   106  ASP106      0.3668
    124  OD1       42.5080   36.8140   55.0680 O.co2 106  ASP106     -0.2456
    125  OD2       41.6270   37.9790   56.7620 O.co2 106  ASP106     -0.2456
    126  N         42.9100   32.6220   58.2050 N.am  107  ARG107     -0.1979
    127  CA        43.5190   31.6140   59.0820 C.3   107  ARG107      0.1597
    128  C         44.1530   30.4790   58.2670 C.2   107  ARG107      0.2287
    129  O         45.1760   29.9090   58.6920 O.2   107  ARG107     -0.2864
    130  CB        42.5440   31.0920   60.1450 C.3   107  ARG107      0.0334
    131  CG        42.0910   32.1570   61.1450 C.3   107  ARG107      0.0492
    132  CD        43.1500   32.7360   62.0710 C.3   107  ARG107      0.2205
    133  NE        44.1230   33.6350   61.4260 N.pl3 107  ARG107     -0.0865
    134  CZ        43.8880   34.8820   61.0030 C.cat 107  ARG107      0.5346
    135  NH1       42.6730   35.4120   61.1020 N.pl3 107  ARG107      0.1354
    136  NH2       44.8690   35.6030   60.4620 N.pl3 107  ARG107      0.1354
    137  N         36.3810   33.4090   52.7710 N.3   149  ALA149     -0.1231
    138  CA        36.3860   34.7810   53.2680 C.3   149  ALA149      0.1694
    139  C         35.0690   35.1090   54.0160 C.2   149  ALA149      0.2592
    140  O         35.0930   36.0050   54.8580 O.2   149  ALA149     -0.2718
    141  CB        36.6040   35.7610   52.1300 C.3   149  ALA149      0.0304
    142  N         33.9430   34.3740   53.7420 N.am  150  ASN150     -0.1974
    143  CA        32.6360   34.5410   54.4010 C.3   150  ASN150      0.1688
    144  C         32.3520   33.4850   55.4670 C.2   150  ASN150      0.2292
    145  O         31.1940   33.3110   55.8480 O.2   150  ASN150     -0.2864
    146  CB        31.5010   34.5570   53.3790 C.3   150  ASN150      0.1181
    147  CG        31.4890   35.7860   52.5000 C.2   150  ASN150      0.2629
    148  OD1       32.1060   36.8200   52.8040 O.2   150  ASN150     -0.2716
    149  ND2       30.7760   35.6950   51.3800 N.am  150  ASN150     -0.0877
    150  N         33.5560   33.1110   59.2210 N.3   152  LEU152     -0.1245
    151  CA        34.3210   33.7700   60.2680 C.3   152  LEU152      0.1561
    152  C         34.4820   32.8660   61.4780 C.2   152  LEU152      0.2260
    153  O         33.7460   31.8820   61.6640 O.2   152  LEU152     -0.2867
    154  CB        33.7280   35.1260   60.6190 C.3   152  LEU152      0.0270
    155  CG        33.4390   36.0420   59.4020 C.3   152  LEU152      0.0019
    156  CD1       33.1400   37.4260   59.8320 C.3   152  LEU152      0.0001
    157  CD2       34.6090   36.1150   58.4330 C.3   152  LEU152      0.0001
    158  N         28.7310   34.4180   57.1480 N.3   162  SER162     -0.1202
    159  CA        28.5040   35.8560   57.0990 C.3   162  SER162      0.2020
    160  C         28.1640   36.3220   55.6980 C.2   162  SER162      0.2618
    161  O         28.2680   35.5540   54.7450 O.2   162  SER162     -0.2717
    162  CB        29.7610   36.5960   57.5640 C.3   162  SER162      0.2103
    163  OG        30.7860   36.6550   56.5810 O.3   162  SER162     -0.2182
    164  N         27.8310   37.6140   55.5760 N.am  163  ASP163     -0.1973
    165  CA        27.5270   38.2930   54.3290 C.3   163  ASP163      0.1709
    166  C         26.3630   37.6550   53.5930 C.2   163  ASP163      0.2293
    167  O         26.5590   36.9050   52.6450 O.2   163  ASP163     -0.2864
    168  CB        28.7730   38.4300   53.4470 C.3   163  ASP163      0.1436
    169  CG        28.6600   39.4650   52.3410 C.2   163  ASP163      0.3671
    170  OD1       27.6020   40.1490   52.2580 O.co2 163  ASP163     -0.2456
    171  OD2       29.6320   39.6070   51.5660 O.co2 163  ASP163     -0.2456
@<TRIPOS>BOND
     1    25    24    2
     2    24    23    1
     3    20    19   ar
     4    23    22    2
     5    19    21   ar
     6    19    18    1
     7    22    15    1
     8    18    17    1
     9   149   147   am
    10    16    15    2
    11    15    14    1
    12   171   169   ar
    13    17    14    1
    14   141   138    1
    15   170   169   ar
    16   169   168    1
    17    14    13    1
    18   147   148    2
    19   147   146    1
    20   167   166    2
    21   137   138    1
    22   138   139    1
    23   146   143    1
    24    13    11   am
    25   168   165    1
    26   166   165    1
    27   142   139   am
    28   142   143    1
    29    46    45    1
    30   139   140    2
    31    45    44    1
    32   165   164    1
    33   143   144    1
    34    11    12    2
    35    11    10    1
    36   161   160    2
    37   124   123   ar
    38   144   145    2
    39    44    43    1
    40    10     9    1
    41   164   160   am
    42   160   159    1
    43   118   119    1
    44    43    42    1
    45   117   116    1
    46    26    27    1
    47   123   125   ar
    48   123   122    1
    49    32    30    1
    50   119   122    1
    51   119   120    1
    52   163   162    1
    53   116   113    1
    54     9     3   am
    55   159   158    1
    56   159   162    1
    57    40    41    2
    58    40    39    1
    59    42    39    1
    60   120   121    2
    61   120   126   am
    62    27    30    1
    63    27    28    1
    64     4     3    2
    65    30    31    1
    66     3     2    1
    67    39    38    1
    68    65    64    1
    69   114   113    1
    70   114   115    2
    71   126   127    1
    72   113   112    1
    73   128   129    2
    74   128   127    1
    75   157   155    1
    76    29    28    2
    77     1     2    1
    78   127   130    1
    79     2     5    1
    80   150   151    1
    81   112   110   am
    82    64    63   ar
    83    64    62   ar
    84   155   156    1
    85   155   154    1
    86    63    61   ar
    87     5     6    1
    88    62    60   ar
    89   130   131    1
    90   151   154    1
    91   151   152    1
    92    53    51    1
    93   136   134    1
    94   110   111    2
    95   110   109    1
    96    61    59   ar
    97   134   135    1
    98   134   133    2
    99   131   132    1
   100    52    51    1
   101    60    59   ar
   102   133   132    1
   103   152   153    2
   104     6     7    1
   105   109   108    1
   106    51    48    1
   107    47    48    1
   108    59    58    1
   109     8     7    1
   110    50    49    2
   111   103   102    2
   112    48    49    1
   113    35    36    2
   114    35    34    1
   115    37    34    1
   116   108   102   am
   117    58    55    1
   118   102   101    1
   119    34    33    1
   120    54    55    1
   121    90    89    1
   122    90    91    1
   123    89    86    1
   124    55    56    1
   125    88    87    2
   126   101   104    1
   127   101   100    1
   128    91    92    1
   129   104   105    1
   130    86    85    1
   131    86    87    1
   132    85    75   am
   133    56    57    2
   134    56    66   am
   135    87    93   am
   136    69    68    2
   137    96    95    2
   138    81    79   ar
   139    81    83   ar
   140   100    95   am
   141    79    78   ar
   142    95    94    1
   143    66    67    1
   144   105   106    2
   145   105   107   am
   146    84    83    1
   147    74    75    1
   148    74    73    1
   149    74    77    1
   150    75    76    2
   151    68    73   am
   152    68    67    1
   153    83    82   ar
   154    93    94    1
   155    93    99    1
   156    78    77    1
   157    78    80   ar
   158    94    97    1
   159    67    70    1
   160    82    80   ar
   161    70    72    1
   162    70    71    1
   163    99    98    1
   164    97    98    1
