@<TRIPOS>MOLECULE
tmp/5kx8D00.pdb
 171 164 0 0 0
SMALL
GASTEIGER

@<TRIPOS>ATOM
      1  N         34.4370   10.9210   32.2010 N.3    29  MET29      -0.1230
      2  CA        33.5190   10.6460   31.0890 C.3    29  MET29       0.1702
      3  C         32.8140   11.9530   30.6680 C.2    29  MET29       0.2593
      4  O         32.8070   12.2950   29.4760 O.2    29  MET29      -0.2718
      5  CB        32.4860    9.5860   31.4860 C.3    29  MET29       0.0401
      6  CG        33.0760    8.2130   31.5730 C.3    29  MET29       0.0596
      7  SD        31.8870    6.8940   31.8840 S.3    29  MET29      -0.1393
      8  CE        31.2030    7.3890   33.4680 C.3    29  MET29       0.0692
      9  N         32.2660   12.6950   31.6600 N.am   30  GLY30      -0.1942
     10  CA        31.5910   13.9660   31.4250 C.3    30  GLY30       0.2014
     11  C         31.4080   14.7850   32.7010 C.2    30  GLY30       0.2639
     12  O         31.8870   14.3980   33.7650 O.2    30  GLY30      -0.2714
     13  N         30.6960   15.9130   32.5770 N.am   31  GLU31      -0.1963
     14  CA        30.4060   16.8540   33.6640 C.3    31  GLU31       0.1733
     15  C         28.9170   16.8510   34.0430 C.2    31  GLU31       0.2616
     16  O         28.0660   16.4350   33.2430 O.2    31  GLU31      -0.2715
     17  CB        30.8400   18.2700   33.2640 C.3    31  GLU31       0.0429
     18  CG        32.3480   18.4410   33.2970 C.3    31  GLU31       0.1163
     19  CD        32.8390   19.8480   33.0290 C.2    31  GLU31       0.3649
     20  OE1       34.0640   20.0240   32.8320 O.co2  31  GLU31      -0.2457
     21  OE2       32.0020   20.7800   33.0370 O.co2  31  GLU31      -0.2457
     22  N         28.6060   17.3340   35.2580 N.am   32  GLY32      -0.1955
     23  CA        27.2280   17.3340   35.7300 C.3    32  GLY32       0.1869
     24  C         26.8920   18.3400   36.8080 C.2    32  GLY32       0.2309
     25  O         26.6810   17.9360   37.9600 O.2    32  GLY32      -0.2863
     26  N         31.9470   13.5730   36.3860 N.3    37  VAL37      -0.1245
     27  CA        31.5520   12.1500   36.3620 C.3    37  VAL37       0.1561
     28  C         32.7200   11.3330   35.8240 C.2    37  VAL37       0.2260
     29  O         33.2560   11.6550   34.7590 O.2    37  VAL37      -0.2867
     30  CB        30.2830   11.9400   35.5180 C.3    37  VAL37       0.0252
     31  CG1       29.8770   10.4560   35.4410 C.3    37  VAL37       0.0019
     32  CG2       29.1520   12.7880   36.0700 C.3    37  VAL37       0.0019
     33  N         29.4010    4.7360   37.1910 N.3    48  ALA48      -0.1245
     34  CA        29.6770    6.1360   36.9050 C.3    48  ALA48       0.1562
     35  C         29.7130    6.7980   38.2830 C.2    48  ALA48       0.2260
     36  O         28.7510    6.6510   39.0470 O.2    48  ALA48      -0.2867
     37  CB        28.5810    6.7260   36.0450 C.3    48  ALA48       0.0290
     38  N         30.1080   10.2870   40.3910 N.3    50  LYS50      -0.1245
     39  CA        30.0590   11.7400   40.2790 C.3    50  LYS50       0.1561
     40  C         30.6250   12.3140   41.5460 C.2    50  LYS50       0.2260
     41  O         30.0300   12.1010   42.6060 O.2    50  LYS50      -0.2867
     42  CB        28.6180   12.2450   40.0580 C.3    50  LYS50       0.0271
     43  CG        28.5290   13.7500   39.7570 C.3    50  LYS50       0.0035
     44  CD        27.1610   14.3580   40.0770 C.3    50  LYS50       0.0206
     45  CE        26.1650   14.2620   38.9310 C.3    50  LYS50       0.1093
     46  NZ        24.8490   14.8380   39.2930 N.3    50  LYS50      -0.1314
     47  N         18.2180    7.9270   35.4200 N.3    78  VAL78      -0.1245
     48  CA        19.4540    7.2420   35.7940 C.3    78  VAL78       0.1561
     49  C         19.2200    6.5400   37.1540 C.2    78  VAL78       0.2260
     50  O         18.2480    6.8390   37.8240 O.2    78  VAL78      -0.2867
     51  CB        20.7200    8.1630   35.8260 C.3    78  VAL78       0.0252
     52  CG1       21.1250    8.6140   34.4310 C.3    78  VAL78       0.0019
     53  CG2       20.5710    9.3360   36.7800 C.3    78  VAL78       0.0019
     54  N         26.4830    5.7670   40.2360 N.3    94  TYR94      -0.1227
     55  CA        25.3620    5.3460   39.3930 C.3    94  TYR94       0.1736
     56  C         25.6670    4.1270   38.5390 C.2    94  TYR94       0.2595
     57  O         26.8280    3.8370   38.2270 O.2    94  TYR94      -0.2718
     58  CB        24.9730    6.4660   38.4090 C.3    94  TYR94       0.0548
     59  CG        24.6130    7.7870   39.0400 C.ar   94  TYR94      -0.0200
     60  CD1       25.5970    8.7260   39.3440 C.ar   94  TYR94      -0.0009
     61  CD2       23.2850    8.1460   39.2360 C.ar   94  TYR94      -0.0009
     62  CE1       25.2730    9.9620   39.8850 C.ar   94  TYR94       0.0417
     63  CE2       22.9490    9.3790   39.7720 C.ar   94  TYR94       0.0417
     64  CZ        23.9450   10.2890   40.0860 C.ar   94  TYR94       0.1957
     65  OH        23.6430   11.5120   40.6200 O.3    94  TYR94      -0.2866
     66  N         24.5960    3.5020   38.0270 N.am   95  VAL95      -0.1966
     67  CA        24.7140    2.4020   37.0700 C.3    95  VAL95       0.1727
     68  C         25.2740    3.0610   35.8150 C.2    95  VAL95       0.2616
     69  O         24.7170    4.0620   35.3660 O.2    95  VAL95      -0.2715
     70  CB        23.3270    1.7500   36.7860 C.3    95  VAL95       0.0290
     71  CG1       23.3850    0.7930   35.6060 C.3    95  VAL95       0.0023
     72  CG2       22.7940    1.0370   38.0310 C.3    95  VAL95       0.0023
     73  N         26.3910    2.5340   35.2880 N.am   96  TYR96      -0.1960
     74  CA        27.0570    3.0160   34.0720 C.3    96  TYR96       0.1771
     75  C         26.1300    2.8940   32.8390 C.2    96  TYR96       0.2619
     76  O         25.3940    1.9270   32.7190 O.2    96  TYR96      -0.2715
     77  CB        28.3130    2.2000   33.8420 C.3    96  TYR96       0.0574
     78  CG        28.9960    2.4180   32.5170 C.ar   96  TYR96      -0.0198
     79  CD1       29.6820    3.5970   32.2500 C.ar   96  TYR96      -0.0009
     80  CD2       29.0690    1.3970   31.5770 C.ar   96  TYR96      -0.0009
     81  CE1       30.3800    3.7720   31.0540 C.ar   96  TYR96       0.0417
     82  CE2       29.7990    1.5490   30.4040 C.ar   96  TYR96       0.0417
     83  CZ        30.4800    2.7320   30.1630 C.ar   96  TYR96       0.1957
     84  OH        31.1870    2.9410   29.0090 O.3    96  TYR96      -0.2866
     85  N         26.1740    3.8950   31.9470 N.am   97  MET97      -0.1964
     86  CA        25.3490    3.9860   30.7490 C.3    97  MET97       0.1722
     87  C         26.3300    3.8990   29.5550 C.2    97  MET97       0.2458
     88  O         26.9210    4.9060   29.1610 O.2    97  MET97      -0.2730
     89  CB        24.5400    5.2880   30.7670 C.3    97  MET97       0.0427
     90  CG        23.5490    5.3710   31.9370 C.3    97  MET97       0.0599
     91  SD        22.2450    4.1000   31.8370 S.3    97  MET97      -0.1393
     92  CE        21.8210    3.9230   33.5490 C.3    97  MET97       0.0692
     93  N         26.5540    2.6650   29.0320 N.am   98  PRO98      -0.2716
     94  CA        27.5360    2.4460   27.9770 C.3    98  PRO98       0.1536
     95  C         27.5280    3.3870   26.7640 C.2    98  PRO98       0.2599
     96  O         28.6020    3.6300   26.1940 O.2    98  PRO98      -0.2715
     97  CB        27.3280    0.9820   27.5880 C.3    98  PRO98       0.0310
     98  CG        26.2540    0.4650   28.3910 C.3    98  PRO98       0.0237
     99  CD        25.5800    1.5500   29.0940 C.3    98  PRO98       0.0939
    100  N         26.3460    3.8800   26.3430 N.am   99  ASN99      -0.1959
    101  CA        26.2620    4.7870   25.2050 C.3    99  ASN99       0.1819
    102  C         26.4080    6.2670   25.5690 C.2    99  ASN99       0.2622
    103  O         26.3020    7.0980   24.6640 O.2    99  ASN99      -0.2715
    104  CB        24.9940    4.5250   24.4120 C.3    99  ASN99       0.1195
    105  CG        25.0980    3.2540   23.6430 C.2    99  ASN99       0.2630
    106  OD1       25.9820    3.1250   22.8260 O.2    99  ASN99      -0.2716
    107  ND2       24.1590    2.3340   23.7870 N.am   99  ASN99      -0.0877
    108  N         26.7460    6.6140   26.8470 N.am  100  GLY100     -0.1940
    109  CA        26.9610    7.9920   27.2880 C.3   100  GLY100      0.2014
    110  C         25.7610    8.9490   27.0480 C.2   100  GLY100      0.2639
    111  O         24.5920    8.5400   27.1540 O.2   100  GLY100     -0.2714
    112  N         26.0710   10.2440   26.7740 N.am  101  SER101     -0.1949
    113  CA        25.0590   11.2780   26.6070 C.3   101  SER101      0.1924
    114  C         24.4920   11.3720   25.2160 C.2   101  SER101      0.2314
    115  O         25.1430   11.0080   24.2440 O.2   101  SER101     -0.2863
    116  CB        25.6090   12.6320   27.0640 C.3   101  SER101      0.2116
    117  OG        26.4380   13.2520   26.1000 O.3   101  SER101     -0.2180
    118  N         26.7850   13.7250   22.9830 N.3   104  ASP104     -0.1225
    119  CA        27.9160   13.0290   22.3760 C.3   104  ASP104      0.1805
    120  C         27.4800   12.0750   21.2280 C.2   104  ASP104      0.2597
    121  O         28.1730   12.0200   20.2240 O.2   104  ASP104     -0.2718
    122  CB        28.7360   12.3300   23.4620 C.3   104  ASP104      0.1424
    123  CG        29.4110   13.2990   24.4380 C.2   104  ASP104      0.3668
    124  OD1       29.4310   14.5330   24.1400 O.co2 104  ASP104     -0.2456
    125  OD2       29.9130   12.8280   25.5250 O.co2 104  ASP104     -0.2456
    126  N         26.3030   11.4140   21.3300 N.am  105  ARG105     -0.1979
    127  CA        25.7960   10.5610   20.2690 C.3   105  ARG105      0.1597
    128  C         25.2740   11.3650   19.0990 C.2   105  ARG105      0.2287
    129  O         25.4570   10.9310   17.9480 O.2   105  ARG105     -0.2864
    130  CB        24.7480    9.5570   20.7610 C.3   105  ARG105      0.0334
    131  CG        25.3020    8.5290   21.7550 C.3   105  ARG105      0.0492
    132  CD        26.3420    7.5440   21.2030 C.3   105  ARG105      0.2205
    133  NE        27.6740    8.1380   21.0190 N.pl3 105  ARG105     -0.0865
    134  CZ        28.5280    8.4640   21.9930 C.cat 105  ARG105      0.5346
    135  NH1       28.2220    8.2290   23.2670 N.pl3 105  ARG105      0.1354
    136  NH2       29.7030    9.0050   21.6980 N.pl3 105  ARG105      0.1354
    137  N         23.0160   16.8490   27.0910 N.3   147  ALA147     -0.1231
    138  CA        24.1520   16.3620   27.8640 C.3   147  ALA147      0.1694
    139  C         23.6780   15.6890   29.1480 C.2   147  ALA147      0.2592
    140  O         24.4510   14.9490   29.7140 O.2   147  ALA147     -0.2718
    141  CB        25.0770   17.4990   28.2210 C.3   147  ALA147      0.0304
    142  N         22.4390   15.9600   29.6310 N.am  148  ASN148     -0.1974
    143  CA        21.8730   15.3470   30.8420 C.3   148  ASN148      0.1688
    144  C         20.8650   14.2250   30.5090 C.2   148  ASN148      0.2292
    145  O         20.0890   13.8410   31.3880 O.2   148  ASN148     -0.2864
    146  CB        21.2100   16.4220   31.7360 C.3   148  ASN148      0.1181
    147  CG        22.1780   17.4030   32.3530 C.2   148  ASN148      0.2629
    148  OD1       23.4010   17.2450   32.3270 O.2   148  ASN148     -0.2716
    149  ND2       21.6440   18.4580   32.9250 N.am  148  ASN148     -0.0877
    150  N         21.0670   10.3640   29.3070 N.3   150  LEU150     -0.1245
    151  CA        22.0050    9.2730   29.0460 C.3   150  LEU150      0.1561
    152  C         21.3490    8.1150   28.3450 C.2   150  LEU150      0.2260
    153  O         20.1160    8.0050   28.3190 O.2   150  LEU150     -0.2867
    154  CB        22.7460    8.8800   30.2950 C.3   150  LEU150      0.0270
    155  CG        23.7470    9.9720   30.6790 C.3   150  LEU150      0.0019
    156  CD1       23.3220   10.6770   31.9480 C.3   150  LEU150      0.0001
    157  CD2       25.1290    9.4190   30.7560 C.3   150  LEU150      0.0001
    158  N         19.0320   12.6060   33.8590 N.3   160  SER160     -0.1202
    159  CA        19.9800   12.6910   34.9760 C.3   160  SER160      0.2020
    160  C         20.0820   14.1210   35.5200 C.2   160  SER160      0.2618
    161  O         19.3940   15.0110   35.0230 O.2   160  SER160     -0.2717
    162  CB        21.3560   12.2120   34.5230 C.3   160  SER160      0.2103
    163  OG        22.0610   13.2070   33.8060 O.3   160  SER160     -0.2182
    164  N         20.9410   14.3370   36.5310 N.am  161  ASP161     -0.1973
    165  CA        21.1650   15.6420   37.1500 C.3   161  ASP161      0.1709
    166  C         19.9080   16.2820   37.7620 C.2   161  ASP161      0.2293
    167  O         19.2330   17.0870   37.1240 O.2   161  ASP161     -0.2864
    168  CB        21.9100   16.6020   36.1900 C.3   161  ASP161      0.1436
    169  CG        23.4190   16.5490   36.3050 C.2   161  ASP161      0.3671
    170  OD1       24.0790   17.5330   35.9000 O.co2 161  ASP161     -0.2456
    171  OD2       23.9430   15.5350   36.8330 O.co2 161  ASP161     -0.2456
@<TRIPOS>BOND
     1   129   128    2
     2   128   127    1
     3   121   120    2
     4   127   130    1
     5   127   126    1
     6   130   131    1
     7   133   132    1
     8   133   134    2
     9   132   131    1
    10   120   126   am
    11   120   119    1
    12   136   134    1
    13   134   135    1
    14   119   118    1
    15   119   122    1
    16   106   105    2
    17   122   123    1
    18   105   107   am
    19   105   104    1
    20   124   123   ar
    21   115   114    2
    22   104   101    1
    23   123   125   ar
    24   103   102    2
    25   101   102    1
    26   101   100    1
    27   114   113    1
    28   102   108   am
    29   117   116    1
    30    96    95    2
    31   100    95   am
    32   113   112    1
    33   113   116    1
    34    95    94    1
    35   112   110   am
    36   108   109    1
    37   110   111    2
    38   110   109    1
    39   137   138    1
    40    97    94    1
    41    97    98    1
    42   138   141    1
    43   138   139    1
    44    94    93    1
    45   153   152    2
    46   152   151    1
    47    98    99    1
    48    84    83    1
    49    93    99    1
    50    93    87   am
    51   151   150    1
    52   151   154    1
    53   139   142   am
    54   139   140    2
    55    88    87    2
    56     4     3    2
    57    87    86    1
    58   142   143    1
    59    83    82   ar
    60    83    81   ar
    61   154   155    1
    62    82    80   ar
    63   144   143    1
    64   144   145    2
    65     3     2    1
    66     3     9   am
    67   155   157    1
    68   155   156    1
    69    86    89    1
    70    86    85    1
    71    89    90    1
    72   143   146    1
    73    81    79   ar
    74     2     5    1
    75     2     1    1
    76    10     9    1
    77    10    11    1
    78     5     6    1
    79     6     7    1
    80    80    78   ar
    81   146   147    1
    82    91    90    1
    83    91    92    1
    84     7     8    1
    85    85    75   am
    86    79    78   ar
    87   148   147    2
    88   147   149   am
    89    78    77    1
    90    13    11   am
    91    13    14    1
    92    11    12    2
    93    76    75    2
    94    20    19   ar
    95    75    74    1
    96    19    21   ar
    97    19    18    1
    98    16    15    2
    99    17    18    1
   100    17    14    1
   101    14    15    1
   102   163   162    1
   103    77    74    1
   104   158   159    1
   105    15    22   am
   106    74    73    1
   107    52    51    1
   108   162   159    1
   109    29    28    2
   110   159   160    1
   111   161   160    2
   112    22    23    1
   113    73    68   am
   114    69    68    2
   115    47    48    1
   116    31    30    1
   117    30    32    1
   118    30    27    1
   119   160   164   am
   120    71    70    1
   121    23    24    1
   122    48    51    1
   123    48    49    1
   124    68    67    1
   125    28    27    1
   126    51    53    1
   127   170   169   ar
   128    37    34    1
   129   168   169    1
   130   168   165    1
   131   169   171   ar
   132    27    26    1
   133   164   165    1
   134    70    67    1
   135    70    72    1
   136    24    25    2
   137    34    33    1
   138    34    35    1
   139    67    66    1
   140   167   166    2
   141   165   166    1
   142    49    50    2
   143    66    56   am
   144    57    56    2
   145    35    36    2
   146    58    59    1
   147    58    55    1
   148    56    55    1
   149    45    46    1
   150    45    44    1
   151    59    61   ar
   152    59    60   ar
   153    61    63   ar
   154    60    62   ar
   155    55    54    1
   156    43    42    1
   157    43    44    1
   158    63    64   ar
   159    62    64   ar
   160    42    39    1
   161    64    65    1
   162    39    38    1
   163    39    40    1
   164    40    41    2
