@<TRIPOS>MOLECULE
tmp/5kxaA01.pdb
 202 202 0 0 0
SMALL
GASTEIGER

@<TRIPOS>ATOM
      1  N        -33.4470   28.4260  -59.9330 N.3    17  LEU17      -0.1245
      2  CA       -34.3810   29.4000  -59.3260 C.3    17  LEU17       0.1561
      3  C        -34.4490   30.7760  -59.9830 C.2    17  LEU17       0.2260
      4  O        -35.3460   31.5490  -59.6490 O.2    17  LEU17      -0.2867
      5  CB       -34.1290   29.5790  -57.8380 C.3    17  LEU17       0.0270
      6  CG       -34.7910   28.5820  -56.9100 C.3    17  LEU17       0.0019
      7  CD1      -34.4670   28.9760  -55.4700 C.3    17  LEU17       0.0001
      8  CD2      -36.2940   28.5160  -57.1160 C.3    17  LEU17       0.0001
      9  N        -37.5400   32.8190  -60.3860 N.3    20  SER20      -0.1202
     10  CA       -38.2460   33.2810  -59.1970 C.3    20  SER20       0.2020
     11  C        -37.8320   34.7050  -58.8150 C.2    20  SER20       0.2618
     12  O        -38.6780   35.4920  -58.4160 O.2    20  SER20      -0.2717
     13  CB       -38.0840   32.3000  -58.0300 C.3    20  SER20       0.2103
     14  OG       -38.5820   31.0210  -58.3860 O.3    20  SER20      -0.2182
     15  N        -36.5900   35.0450  -59.0040 N.am   21  TYR21      -0.1975
     16  CA       -36.1960   36.3650  -58.6740 C.3    21  TYR21       0.1639
     17  C        -36.2170   37.3040  -59.8520 C.2    21  TYR21       0.2290
     18  O        -35.7150   38.3840  -59.7770 O.2    21  TYR21      -0.2864
     19  CB       -34.8400   36.2980  -58.0840 C.3    21  TYR21       0.0560
     20  CG       -34.8320   35.4290  -56.9110 C.ar   21  TYR21      -0.0198
     21  CD1      -34.9780   34.0870  -57.0250 C.ar   21  TYR21      -0.0009
     22  CD2      -34.7070   35.9540  -55.6780 C.ar   21  TYR21      -0.0009
     23  CE1      -34.9740   33.2860  -55.9240 C.ar   21  TYR21       0.0417
     24  CE2      -34.7030   35.1660  -54.5770 C.ar   21  TYR21       0.0417
     25  CZ       -34.8330   33.8340  -54.7050 C.ar   21  TYR21       0.1957
     26  OH       -34.8300   33.0890  -53.5700 O.3    21  TYR21      -0.2866
     27  N        -47.3370   24.0700  -47.4030 N.3   149  PHE149     -0.1241
     28  CA       -46.1510   24.6810  -46.8270 C.3   149  PHE149      0.1605
     29  C        -45.7670   24.0930  -45.4650 C.2   149  PHE149      0.2264
     30  O        -44.6270   23.6720  -45.2990 O.2   149  PHE149     -0.2867
     31  CB       -46.2430   26.2030  -46.8230 C.3   149  PHE149      0.0534
     32  CG       -45.7360   26.8250  -48.0940 C.ar  149  PHE149     -0.0203
     33  CD1      -46.2410   26.4280  -49.3140 C.ar  149  PHE149     -0.0042
     34  CD2      -44.7070   27.7580  -48.0670 C.ar  149  PHE149     -0.0042
     35  CE1      -45.7600   26.9850  -50.4960 C.ar  149  PHE149     -0.0003
     36  CE2      -44.2160   28.3260  -49.2380 C.ar  149  PHE149     -0.0003
     37  CZ       -44.7500   27.9410  -50.4580 C.ar  149  PHE149     -0.0000
     38  N        -44.3660   20.3540  -46.1170 N.3   152  LEU152     -0.1231
     39  CA       -43.0640   20.2300  -46.8200 C.3   152  LEU152      0.1693
     40  C        -41.8590   20.6120  -45.9730 C.2   152  LEU152      0.2592
     41  O        -40.7850   20.0480  -46.1310 O.2   152  LEU152     -0.2718
     42  CB       -43.0430   21.0800  -48.1250 C.3   152  LEU152      0.0284
     43  CG       -43.6360   20.4040  -49.3630 C.3   152  LEU152      0.0019
     44  CD1      -43.6400   21.3930  -50.5150 C.3   152  LEU152      0.0001
     45  CD2      -42.7510   19.2280  -49.7740 C.3   152  LEU152      0.0001
     46  N        -42.0170   21.5970  -45.0980 N.am  153  TYR153     -0.1976
     47  CA       -40.9010   22.0540  -44.2830 C.3   153  TYR153      0.1639
     48  C        -40.6540   21.0640  -43.1140 C.2   153  TYR153      0.2290
     49  O        -39.4920   20.8850  -42.6570 O.2   153  TYR153     -0.2864
     50  CB       -41.1360   23.4990  -43.8200 C.3   153  TYR153      0.0560
     51  CG       -39.8590   24.2140  -43.4350 C.ar  153  TYR153     -0.0198
     52  CD1      -38.7610   24.2100  -44.2750 C.ar  153  TYR153     -0.0009
     53  CD2      -39.7470   24.8940  -42.2400 C.ar  153  TYR153     -0.0009
     54  CE1      -37.5840   24.8350  -43.9140 C.ar  153  TYR153      0.0417
     55  CE2      -38.5880   25.5420  -41.9000 C.ar  153  TYR153      0.0417
     56  CZ       -37.5050   25.5060  -42.7410 C.ar  153  TYR153      0.1957
     57  OH       -36.3120   26.1510  -42.4180 O.3   153  TYR153     -0.2866
     58  N        -38.5200   18.5030  -44.5160 N.3   156  ALA156     -0.1245
     59  CA       -37.1960   19.1080  -44.5850 C.3   156  ALA156      0.1562
     60  C        -36.4940   19.2910  -43.2470 C.2   156  ALA156      0.2260
     61  O        -35.3000   19.1650  -43.1850 O.2   156  ALA156     -0.2867
     62  CB       -37.2760   20.4410  -45.3090 C.3   156  ALA156      0.0290
     63  N        -48.8790   32.6450  -52.4780 N.3   183  ARG183     -0.1245
     64  CA       -48.6230   33.5690  -53.5830 C.3   183  ARG183      0.1563
     65  C        -48.1380   34.9120  -53.0040 C.2   183  ARG183      0.2260
     66  O        -48.8620   35.5810  -52.2250 O.2   183  ARG183     -0.2867
     67  CB       -49.9010   33.7690  -54.4010 C.3   183  ARG183      0.0307
     68  CG       -50.5700   32.4850  -54.8970 C.3   183  ARG183      0.0489
     69  CD       -50.1130   32.1010  -56.2990 C.3   183  ARG183      0.2205
     70  NE       -48.7100   31.7010  -56.3400 N.pl3 183  ARG183     -0.0865
     71  CZ       -48.2560   30.5210  -55.9450 C.cat 183  ARG183      0.5346
     72  NH1      -49.0950   29.6090  -55.4780 N.pl3 183  ARG183      0.1354
     73  NH2      -46.9670   30.2360  -56.0410 N.pl3 183  ARG183      0.1354
     74  N        -44.2890   37.6300  -52.3390 N.3   185  ARG185     -0.1245
     75  CA       -42.8310   37.7810  -52.1440 C.3   185  ARG185      0.1563
     76  C        -42.3930   37.6850  -50.6980 C.2   185  ARG185      0.2260
     77  O        -41.2050   37.4930  -50.4200 O.2   185  ARG185     -0.2867
     78  CB       -42.3640   39.1330  -52.7250 C.3   185  ARG185      0.0307
     79  CG       -42.0950   39.0630  -54.2150 C.3   185  ARG185      0.0489
     80  CD       -40.7330   38.4580  -54.4620 C.3   185  ARG185      0.2205
     81  NE       -40.7720   37.3360  -55.3850 N.pl3 185  ARG185     -0.0865
     82  CZ       -39.7140   36.5750  -55.6550 C.cat 185  ARG185      0.5346
     83  NH1      -39.8450   35.5650  -56.4920 N.pl3 185  ARG185      0.1354
     84  NH2      -38.5330   36.8070  -55.0900 N.pl3 185  ARG185      0.1354
     85  N        -42.8870   35.4130  -48.4320 N.3   187  LYS187     -0.1231
     86  CA       -42.3380   34.0840  -48.1220 C.3   187  LYS187      0.1693
     87  C        -40.8540   33.8990  -48.4080 C.2   187  LYS187      0.2592
     88  O        -40.2230   33.0460  -47.7740 O.2   187  LYS187     -0.2718
     89  CB       -43.1330   32.9710  -48.8360 C.3   187  LYS187      0.0285
     90  CG       -42.9570   32.8740  -50.3350 C.3   187  LYS187      0.0035
     91  CD       -43.9160   31.8310  -50.8680 C.3   187  LYS187      0.0206
     92  CE       -43.7340   31.5990  -52.3490 C.3   187  LYS187      0.1093
     93  NZ       -44.3810   32.5970  -53.2560 N.3   187  LYS187     -0.1314
     94  N        -40.3110   34.6930  -49.3370 N.am  188  PHE188     -0.1976
     95  CA       -38.9010   34.5790  -49.7550 C.3   188  PHE188      0.1639
     96  C        -37.8920   35.0830  -48.7240 C.2   188  PHE188      0.2290
     97  O        -36.6940   34.7630  -48.7860 O.2   188  PHE188     -0.2864
     98  CB       -38.6920   35.2520  -51.1270 C.3   188  PHE188      0.0560
     99  CG       -39.2590   34.4520  -52.2920 C.ar  188  PHE188     -0.0200
    100  CD1      -40.6180   34.5040  -52.6020 C.ar  188  PHE188     -0.0042
    101  CD2      -38.4290   33.6410  -53.0710 C.ar  188  PHE188     -0.0042
    102  CE1      -41.1380   33.7730  -53.6640 C.ar  188  PHE188     -0.0003
    103  CE2      -38.9450   32.9010  -54.1270 C.ar  188  PHE188     -0.0003
    104  CZ       -40.2930   32.9670  -54.4250 C.ar  188  PHE188     -0.0000
    105  N        -36.0980   34.8630  -45.4570 N.3   190  HIS190     -0.1241
    106  CA       -35.7660   33.6250  -44.7120 C.3   190  HIS190      0.1621
    107  C        -36.2310   33.6490  -43.2560 C.2   190  HIS190      0.2264
    108  O        -36.4500   32.5890  -42.6760 O.2   190  HIS190     -0.2867
    109  CB       -34.2740   33.2610  -44.7930 C.3   190  HIS190      0.0745
    110  CG       -33.8250   32.7620  -46.1420 C.ar  190  HIS190      0.0817
    111  ND1      -34.6380   32.0430  -47.0040 N.ar  190  HIS190     -0.2268
    112  CD2      -32.6160   32.8430  -46.7560 C.ar  190  HIS190      0.1154
    113  CE1      -33.9590   31.7320  -48.0970 C.ar  190  HIS190      0.1986
    114  NE2      -32.7340   32.2180  -47.9780 N.ar  190  HIS190     -0.2212
    115  N        -38.3850   31.0760  -41.4240 N.3   193  TRP193     -0.1241
    116  CA       -38.0210   29.6880  -41.6790 C.3   193  TRP193      0.1605
    117  C        -36.9010   29.2360  -40.7350 C.2   193  TRP193      0.2264
    118  O        -35.6990   29.4090  -41.0190 O.2   193  TRP193     -0.2867
    119  CB       -37.5410   29.5120  -43.1320 C.3   193  TRP193      0.0550
    120  CG       -38.4620   29.8940  -44.2230 C.ar  193  TRP193      0.0003
    121  CD1      -38.6220   31.1380  -44.7620 C.ar  193  TRP193      0.0946
    122  CD2      -39.2910   29.0190  -44.9940 C.ar  193  TRP193      0.0152
    123  NE1      -39.5360   31.1030  -45.8100 N.ar  193  TRP193     -0.2442
    124  CE2      -39.9570   29.8140  -45.9730 C.ar  193  TRP193      0.0810
    125  CE3      -39.5550   27.6410  -44.9470 C.ar  193  TRP193      0.0012
    126  CZ2      -40.8680   29.2740  -46.8930 C.ar  193  TRP193      0.0191
    127  CZ3      -40.4670   27.0910  -45.8740 C.ar  193  TRP193      0.0001
    128  CH2      -41.1110   27.9170  -46.8250 C.ar  193  TRP193      0.0015
    129  N        -33.0250   22.8570  -42.2370 N.3   197  PRO197     -0.2116
    130  CA       -33.5120   21.9870  -43.2650 C.3   197  PRO197      0.1372
    131  C        -32.4080   21.1000  -43.8620 C.2   197  PRO197      0.2244
    132  O        -31.2080   21.4290  -43.7680 O.2   197  PRO197     -0.2868
    133  CB       -34.1230   22.9560  -44.2890 C.3   197  PRO197      0.0268
    134  CG       -33.5070   24.2830  -43.9990 C.3   197  PRO197      0.0207
    135  CD       -33.2550   24.2790  -42.5520 C.3   197  PRO197      0.0892
    136  N        -31.0770   20.4570  -46.7090 N.3   199  TRP199     -0.1227
    137  CA       -30.0630   21.1030  -47.5720 C.3   199  TRP199      0.1737
    138  C        -28.9980   21.8640  -46.7530 C.2   199  TRP199      0.2595
    139  O        -27.8280   21.8070  -47.0940 O.2   199  TRP199     -0.2718
    140  CB       -30.6770   21.9880  -48.7180 C.3   199  TRP199      0.0564
    141  CG       -31.6730   23.0450  -48.2970 C.ar  199  TRP199      0.0003
    142  CD1      -31.4110   24.3470  -48.0100 C.ar  199  TRP199      0.0946
    143  CD2      -33.0890   22.8650  -48.0960 C.ar  199  TRP199      0.0152
    144  NE1      -32.5770   24.9960  -47.6290 N.ar  199  TRP199     -0.2442
    145  CE2      -33.6150   24.1040  -47.6710 C.ar  199  TRP199      0.0810
    146  CE3      -33.9650   21.7750  -48.2490 C.ar  199  TRP199      0.0012
    147  CZ2      -34.9640   24.2790  -47.3830 C.ar  199  TRP199      0.0191
    148  CZ3      -35.3160   21.9560  -47.9770 C.ar  199  TRP199      0.0001
    149  CH2      -35.7980   23.1910  -47.5520 C.ar  199  TRP199      0.0015
    150  N        -29.3850   22.5270  -45.6610 N.am  200  ILE200     -0.1980
    151  CA       -28.4170   23.1530  -44.7420 C.3   200  ILE200      0.1595
    152  C        -27.6880   22.1260  -43.8600 C.2   200  ILE200      0.2287
    153  O        -26.4940   22.2830  -43.6310 O.2   200  ILE200     -0.2864
    154  CB       -29.0910   24.2270  -43.8540 C.3   200  ILE200      0.0276
    155  CG1      -29.6650   25.3800  -44.7020 C.3   200  ILE200      0.0022
    156  CG2      -28.1370   24.7700  -42.8130 C.3   200  ILE200      0.0022
    157  CD1      -28.6720   26.1470  -45.5550 C.3   200  ILE200      0.0001
    158  N        -33.6330   24.0050  -54.9780 N.3   213  PHE213     -0.1227
    159  CA       -34.9700   24.3730  -55.3690 C.3   213  PHE213      0.1736
    160  C        -35.0880   24.7850  -56.8110 C.2   213  PHE213      0.2595
    161  O        -34.3030   25.6000  -57.3050 O.2   213  PHE213     -0.2718
    162  CB       -35.4500   25.5260  -54.5120 C.3   213  PHE213      0.0547
    163  CG       -35.9400   25.0900  -53.1750 C.ar  213  PHE213     -0.0202
    164  CD1      -37.1700   24.4570  -53.0680 C.ar  213  PHE213     -0.0042
    165  CD2      -35.1720   25.2770  -52.0420 C.ar  213  PHE213     -0.0042
    166  CE1      -37.6300   24.0320  -51.8550 C.ar  213  PHE213     -0.0003
    167  CE2      -35.6400   24.8570  -50.8210 C.ar  213  PHE213     -0.0003
    168  CZ       -36.8620   24.2280  -50.7380 C.ar  213  PHE213     -0.0000
    169  N        -36.1320   24.2430  -57.4450 N.am  214  TRP214     -0.1962
    170  CA       -36.5610   24.6120  -58.7760 C.3   214  TRP214      0.1771
    171  C        -37.6850   25.6470  -58.8030 C.2   214  TRP214      0.2620
    172  O        -38.6170   25.5960  -57.9830 O.2   214  TRP214     -0.2715
    173  CB       -37.0960   23.3610  -59.4700 C.3   214  TRP214      0.0590
    174  CG       -36.0560   22.4050  -59.9120 C.ar  214  TRP214      0.0006
    175  CD1      -35.5700   21.3320  -59.2310 C.ar  214  TRP214      0.0946
    176  CD2      -35.4020   22.4320  -61.1610 C.ar  214  TRP214      0.0152
    177  NE1      -34.6300   20.6840  -59.9910 N.ar  214  TRP214     -0.2442
    178  CE2      -34.5090   21.3410  -61.1890 C.ar  214  TRP214      0.0810
    179  CE3      -35.4790   23.2830  -62.2740 C.ar  214  TRP214      0.0012
    180  CZ2      -33.6830   21.0780  -62.2950 C.ar  214  TRP214      0.0191
    181  CZ3      -34.6660   23.0350  -63.3560 C.ar  214  TRP214      0.0001
    182  CH2      -33.7770   21.9370  -63.3630 C.ar  214  TRP214      0.0015
    183  N        -37.6170   26.5480  -59.7870 N.am  215  SER215     -0.1936
    184  CA       -38.7260   27.4560  -60.1140 C.3   215  SER215      0.2055
    185  C        -39.9080   26.6570  -60.6770 C.2   215  SER215      0.2643
    186  O        -39.7380   25.9230  -61.6500 O.2   215  SER215     -0.2714
    187  CB       -38.2880   28.5350  -61.1150 C.3   215  SER215      0.2130
    188  OG       -37.6660   29.6200  -60.4570 O.3   215  SER215     -0.2179
    189  N        -41.0950   26.8080  -60.0790 N.am  216  VAL216     -0.1963
    190  CA       -42.2610   25.9560  -60.3940 C.3   216  VAL216      0.1727
    191  C        -42.5860   25.9390  -61.9020 C.2   216  VAL216      0.2616
    192  O        -42.7910   24.8900  -62.5080 O.2   216  VAL216     -0.2715
    193  CB       -43.4870   26.3840  -59.5410 C.3   216  VAL216      0.0290
    194  CG1      -44.7150   25.5330  -59.8460 C.3   216  VAL216      0.0023
    195  CG2      -43.1370   26.2080  -58.0610 C.3   216  VAL216      0.0023
    196  N        -42.5460   27.1250  -62.5020 N.am  217  VAL217     -0.1977
    197  CA       -42.8190   27.3830  -63.9580 C.3   217  VAL217      0.1596
    198  C        -41.9950   26.5130  -64.9510 C.2   217  VAL217      0.2287
    199  O        -42.3430   26.4010  -66.1410 O.2   217  VAL217     -0.2864
    200  CB       -42.5670   28.8870  -64.3210 C.3   217  VAL217      0.0276
    201  CG1      -43.1960   29.2430  -65.6560 C.3   217  VAL217      0.0022
    202  CG2      -43.0830   29.8500  -63.2260 C.3   217  VAL217      0.0022
@<TRIPOS>BOND
     1   199   198    2
     2   201   200    1
     3   198   197    1
     4   200   197    1
     5   200   202    1
     6   197   196    1
     7   182   181   ar
     8   182   180   ar
     9   181   179   ar
    10   192   191    2
    11   196   191   am
    12   180   178   ar
    13   179   176   ar
    14   191   190    1
    15   186   185    2
    16   178   176   ar
    17   178   177   ar
    18   176   174   ar
    19   187   188    1
    20   187   184    1
    21   185   184    1
    22   185   189   am
    23   190   189    1
    24   190   193    1
    25     9    10    1
    26   184   183    1
    27   177   175   ar
    28     3     4    2
    29     3     2    1
    30     1     2    1
    31   174   173    1
    32   174   175   ar
    33    17    18    2
    34    17    16    1
    35   194   193    1
    36   183   171   am
    37   193   195    1
    38   173   170    1
    39     2     5    1
    40    10    11    1
    41    10    13    1
    42    15    11   am
    43    15    16    1
    44    11    12    2
    45   171   170    1
    46   171   172    2
    47   170   169    1
    48    16    19    1
    49    14    13    1
    50    19    20    1
    51     5     6    1
    52   169   160   am
    53   161   160    2
    54     8     6    1
    55    21    20   ar
    56    21    23   ar
    57    20    22   ar
    58     6     7    1
    59   160   159    1
    60    83    82    1
    61    70    69    1
    62    70    71    2
    63    69    68    1
    64    73    71    1
    65    71    72    1
    66    23    25   ar
    67    22    24   ar
    68    82    81    2
    69    82    84    1
    70    81    80    1
    71   159   158    1
    72   159   162    1
    73    68    67    1
    74    25    24   ar
    75    25    26    1
    76   162   163    1
    77    80    79    1
    78   104   103   ar
    79   104   102   ar
    80    67    64    1
    81    79    78    1
    82   103   101   ar
    83   102   100   ar
    84    64    65    1
    85    64    63    1
    86    93    92    1
    87   163   164   ar
    88   163   165   ar
    89   101    99   ar
    90   164   166   ar
    91    65    66    2
    92    78    75    1
    93   100    99   ar
    94    92    91    1
    95    74    75    1
    96    99    98    1
    97    75    76    1
    98   165   167   ar
    99   166   168   ar
   100    98    95    1
   101    91    90    1
   102   167   168   ar
   103    76    77    2
   104    44    43    1
   105    35    37   ar
   106    35    33   ar
   107    37    36   ar
   108    90    89    1
   109    45    43    1
   110    95    94    1
   111    95    96    1
   112    43    42    1
   113    94    87   am
   114    33    32   ar
   115    36    34   ar
   116    89    86    1
   117    97    96    2
   118   140   141    1
   119   140   137    1
   120    85    86    1
   121    87    86    1
   122    87    88    2
   123   141   143   ar
   124   141   142   ar
   125   146   143   ar
   126   146   148   ar
   127    42    39    1
   128   113   114   ar
   129   113   111   ar
   130   143   145   ar
   131    32    34   ar
   132    32    31    1
   133   142   144   ar
   134   114   112   ar
   135   148   149   ar
   136   145   144   ar
   137   145   147   ar
   138   137   138    1
   139   137   136    1
   140   149   147   ar
   141    27    28    1
   142   139   138    2
   143   111   110   ar
   144   126   128   ar
   145   126   124   ar
   146    28    31    1
   147    28    29    1
   148   128   127   ar
   149    39    38    1
   150    39    40    1
   151   112   110   ar
   152   138   150   am
   153   110   109    1
   154    41    40    2
   155    40    46   am
   156   124   123   ar
   157   124   122   ar
   158   127   125   ar
   159   123   121   ar
   160   150   151    1
   161   157   155    1
   162    29    30    2
   163   105   106    1
   164    62    59    1
   165    46    47    1
   166   122   125   ar
   167   122   120   ar
   168   109   106    1
   169   121   120   ar
   170   151   152    1
   171   151   154    1
   172   106   107    1
   173   155   154    1
   174    59    58    1
   175    59    60    1
   176   133   134    1
   177   133   130    1
   178    47    50    1
   179    47    48    1
   180    52    54   ar
   181    52    51   ar
   182   120   119    1
   183   134   135    1
   184    54    56   ar
   185   131   132    2
   186   131   130    1
   187   152   153    2
   188   154   156    1
   189    50    51    1
   190    51    53   ar
   191   130   129    1
   192   107   108    2
   193    60    61    2
   194   119   116    1
   195    48    49    2
   196    56    57    1
   197    56    55   ar
   198   135   129    1
   199    53    55   ar
   200   116   115    1
   201   116   117    1
   202   118   117    2
