@<TRIPOS>MOLECULE
tmp/5kxbA01.pdb
 97 95 0 0 0
SMALL
GASTEIGER

@<TRIPOS>ATOM
      1  N         11.2980  219.5970   19.2780 N.3    86  ALA86      -0.1231
      2  CA        11.2700  218.9160   20.5880 C.3    86  ALA86       0.1694
      3  C         10.8600  217.4420   20.4580 C.2    86  ALA86       0.2592
      4  O         10.2440  217.0910   19.4710 O.2    86  ALA86      -0.2718
      5  CB        10.3280  219.6280   21.5440 C.3    86  ALA86       0.0304
      6  N         11.1840  216.5590   21.4150 N.am   87  ASP87      -0.1974
      7  CA        12.1110  216.7700   22.5430 C.3    87  ASP87       0.1709
      8  C         13.4900  216.1040   22.3850 C.2    87  ASP87       0.2293
      9  O         14.4870  216.5820   22.9470 O.2    87  ASP87      -0.2864
     10  CB        11.4830  216.2490   23.8240 C.3    87  ASP87       0.1436
     11  CG        10.7130  217.3260   24.5680 C.2    87  ASP87       0.3671
     12  OD1       11.3690  218.2120   25.1810 O.co2  87  ASP87      -0.2456
     13  OD2        9.4640  217.2650   24.5350 O.co2  87  ASP87      -0.2456
     14  N          6.6010  211.3890   29.1940 N.3   103  PRO103     -0.2102
     15  CA         6.8760  211.8980   27.8650 C.3   103  PRO103      0.1504
     16  C          7.6300  213.2260   27.9100 C.2   103  PRO103      0.2576
     17  O          8.1510  213.6050   28.9590 O.2   103  PRO103     -0.2718
     18  CB         5.4700  212.0470   27.2590 C.3   103  PRO103      0.0282
     19  CG         4.5470  212.2130   28.4140 C.3   103  PRO103      0.0208
     20  CD         5.1570  211.4260   29.5240 C.3   103  PRO103      0.0893
     21  N          7.7280  213.9120   26.7720 N.am  104  GLY104     -0.1943
     22  CA         8.3270  215.2310   26.7310 C.3   104  GLY104      0.2014
     23  C          9.8230  215.2210   26.9600 C.2   104  GLY104      0.2639
     24  O         10.5260  214.3080   26.5010 O.2   104  GLY104     -0.2714
     25  N         10.3110  216.2360   27.6750 N.am  105  GLY105     -0.1939
     26  CA        11.7430  216.3760   27.9720 C.3   105  GLY105      0.2014
     27  C         12.3740  215.3380   28.8960 C.2   105  GLY105      0.2638
     28  O         13.5900  215.3320   29.0690 O.2   105  GLY105     -0.2714
     29  N         11.5690  214.4880   29.5020 N.am  106  LEU106     -0.1977
     30  CA        12.0740  213.3350   30.2470 C.3   106  LEU106      0.1596
     31  C         12.3080  212.1070   29.3450 C.2   106  LEU106      0.2287
     32  O         12.7540  211.0670   29.8270 O.2   106  LEU106     -0.2864
     33  CB        11.1170  213.0170   31.4090 C.3   106  LEU106      0.0297
     34  CG        10.9830  214.1480   32.4510 C.3   106  LEU106      0.0022
     35  CD1        9.9570  213.8040   33.5280 C.3   106  LEU106      0.0001
     36  CD2       12.3220  214.5190   33.0980 C.3   106  LEU106      0.0001
     37  N         15.4500  220.2230   22.6190 N.3   129  PHE129     -0.1241
     38  CA        14.6600  221.2620   23.3120 C.3   129  PHE129      0.1605
     39  C         15.2190  221.6120   24.6920 C.2   129  PHE129      0.2264
     40  O         15.4450  220.7240   25.5180 O.2   129  PHE129     -0.2867
     41  CB        13.2100  220.8290   23.4760 C.3   129  PHE129      0.0534
     42  CG        12.3430  221.8710   24.1540 C.ar  129  PHE129     -0.0203
     43  CD1       11.7020  222.8650   23.4060 C.ar  129  PHE129     -0.0042
     44  CD2       12.1900  221.8780   25.5450 C.ar  129  PHE129     -0.0042
     45  CE1       10.9130  223.8310   24.0350 C.ar  129  PHE129     -0.0003
     46  CE2       11.4210  222.8560   26.1670 C.ar  129  PHE129     -0.0003
     47  CZ        10.7670  223.8230   25.4070 C.ar  129  PHE129     -0.0000
     48  N         14.9700  222.4800   28.2250 N.3   131  ASN131     -0.1240
     49  CA        14.2180  222.4450   29.4690 C.3   131  ASN131      0.1653
     50  C         14.9700  223.2450   30.5570 C.2   131  ASN131      0.2266
     51  O         16.1090  223.6620   30.3580 O.2   131  ASN131     -0.2867
     52  CB        14.0440  220.9960   29.9190 C.3   131  ASN131      0.1155
     53  CG        13.1990  220.1800   28.9490 C.2   131  ASN131      0.2627
     54  OD1       13.7330  219.4910   28.0870 O.2   131  ASN131     -0.2716
     55  ND2       11.8790  220.2480   29.0850 N.am  131  ASN131     -0.0877
     56  N         16.5150  222.3760   33.2050 N.3   133  TRP133     -0.1241
     57  CA        17.7800  221.6930   33.5950 C.3   133  TRP133      0.1605
     58  C         18.8710  221.6300   32.5080 C.2   133  TRP133      0.2264
     59  O         19.9800  221.1880   32.7900 O.2   133  TRP133     -0.2867
     60  CB        17.4930  220.2610   34.0680 C.3   133  TRP133      0.0550
     61  CG        16.8300  219.4410   33.0100 C.ar  133  TRP133      0.0003
     62  CD1       17.4210  218.8830   31.9380 C.ar  133  TRP133      0.0946
     63  CD2       15.4340  219.1360   32.9140 C.ar  133  TRP133      0.0152
     64  NE1       16.4830  218.2390   31.1630 N.ar  133  TRP133     -0.2442
     65  CE2       15.2590  218.3710   31.7450 C.ar  133  TRP133      0.0810
     66  CE3       14.3140  219.4370   33.7010 C.ar  133  TRP133      0.0012
     67  CZ2       14.0150  217.8970   31.3370 C.ar  133  TRP133      0.0191
     68  CZ3       13.0620  218.9700   33.2820 C.ar  133  TRP133      0.0001
     69  CH2       12.9310  218.2040   32.1280 C.ar  133  TRP133      0.0015
     70  N          7.3930  216.9320   21.3740 N.3   214  GLY214     -0.1210
     71  CA         7.0290  217.9310   22.3810 C.3   214  GLY214      0.1956
     72  C          5.5980  217.8740   22.8850 C.2   214  GLY214      0.2612
     73  O          4.7270  217.2860   22.2470 O.2   214  GLY214     -0.2717
     74  N          5.3760  218.4940   24.0390 N.am  215  LEU215     -0.1965
     75  CA         4.0680  218.5130   24.7200 C.3   215  LEU215      0.1728
     76  C          3.1110  219.6390   24.3100 C.2   215  LEU215      0.2616
     77  O          2.0310  219.7390   24.8770 O.2   215  LEU215     -0.2715
     78  CB         4.2590  218.5190   26.2420 C.3   215  LEU215      0.0311
     79  CG         4.9900  217.3000   26.8320 C.3   215  LEU215      0.0022
     80  CD1        5.0600  217.4080   28.3560 C.3   215  LEU215      0.0001
     81  CD2        4.3750  215.9760   26.3930 C.3   215  LEU215      0.0001
     82  N          3.4950  220.4580   23.3320 N.am  216  SER216     -0.1950
     83  CA         2.5690  221.3990   22.6630 C.3   216  SER216      0.1924
     84  C          2.5640  221.0900   21.1580 C.2   216  SER216      0.2314
     85  O          3.5510  220.5850   20.6200 O.2   216  SER216     -0.2863
     86  CB         2.9750  222.8550   22.9220 C.3   216  SER216      0.2116
     87  OG         4.2960  223.1160   22.4780 O.3   216  SER216     -0.2180
     88  N          5.5310  222.2020   18.7490 N.3   219  HIS219     -0.1241
     89  CA         6.8880  221.7430   19.0930 C.3   219  HIS219      0.1621
     90  C          7.0610  220.2300   18.8350 C.2   219  HIS219      0.2264
     91  O          6.9870  219.4050   19.7460 O.2   219  HIS219     -0.2867
     92  CB         7.2220  222.0790   20.5500 C.3   219  HIS219      0.0745
     93  CG         7.4870  223.5280   20.7910 C.ar  219  HIS219      0.0817
     94  ND1        6.4810  224.4460   20.9810 N.ar  219  HIS219     -0.2268
     95  CD2        8.6470  224.2160   20.8920 C.ar  219  HIS219      0.1154
     96  CE1        7.0120  225.6400   21.1850 C.ar  219  HIS219      0.1986
     97  NE2        8.3260  225.5260   21.1400 N.ar  219  HIS219     -0.2212
@<TRIPOS>BOND
     1    88    89    1
     2    90    89    1
     3    90    91    2
     4    89    92    1
     5     1     2    1
     6     4     3    2
     7     3     2    1
     8     3     6   am
     9    92    93    1
    10     2     5    1
    11    85    84    2
    12    93    95   ar
    13    93    94   ar
    14    95    97   ar
    15    94    96   ar
    16    97    96   ar
    17    84    83    1
    18    70    71    1
    19     6     7    1
    20    73    72    2
    21    71    72    1
    22     8     7    1
    23     8     9    2
    24    87    86    1
    25     7    10    1
    26    37    38    1
    27    83    86    1
    28    83    82    1
    29    72    74   am
    30    38    41    1
    31    38    39    1
    32    82    76   am
    33    43    45   ar
    34    43    42   ar
    35    41    42    1
    36    10    11    1
    37    45    47   ar
    38    74    75    1
    39    42    44   ar
    40    76    75    1
    41    76    77    2
    42    13    11   ar
    43    11    12   ar
    44    39    40    2
    45    75    78    1
    46    47    46   ar
    47    44    46   ar
    48    78    79    1
    49    81    79    1
    50    24    23    2
    51    22    21    1
    52    22    23    1
    53    21    16   am
    54    79    80    1
    55    23    25   am
    56    18    15    1
    57    18    19    1
    58    25    26    1
    59    15    16    1
    60    15    14    1
    61    16    17    2
    62    26    27    1
    63    54    53    2
    64    48    49    1
    65    19    20    1
    66    27    28    2
    67    27    29   am
    68    53    55   am
    69    53    52    1
    70    14    20    1
    71    31    32    2
    72    31    30    1
    73    49    52    1
    74    49    50    1
    75    29    30    1
    76    30    33    1
    77    51    50    2
    78    64    65   ar
    79    64    62   ar
    80    67    65   ar
    81    67    69   ar
    82    33    34    1
    83    65    63   ar
    84    62    61   ar
    85    69    68   ar
    86    34    36    1
    87    34    35    1
    88    58    59    2
    89    58    57    1
    90    63    61   ar
    91    63    66   ar
    92    61    60    1
    93    56    57    1
    94    68    66   ar
    95    57    60    1
