@<TRIPOS>MOLECULE
tmp/5kxcA01.pdb
 97 95 0 0 0
SMALL
GASTEIGER

@<TRIPOS>ATOM
      1  N          7.5960   -8.6080  -17.7760 N.3    86  ALA86      -0.1231
      2  CA         8.3500   -9.6670  -18.4680 C.3    86  ALA86       0.1694
      3  C          7.9210   -9.7600  -19.9250 C.2    86  ALA86       0.2592
      4  O          6.7670   -9.4170  -20.2250 O.2    86  ALA86      -0.2718
      5  CB         8.1290  -11.0230  -17.8000 C.3    86  ALA86       0.0304
      6  N          8.7760  -10.2340  -20.8530 N.am   87  ASP87      -0.1974
      7  CA        10.2020  -10.5450  -20.7050 C.3    87  ASP87       0.1709
      8  C         11.1590   -9.5500  -21.3940 C.2    87  ASP87       0.2293
      9  O         12.3280   -9.4540  -21.0130 O.2    87  ASP87      -0.2864
     10  CB        10.5070  -11.9350  -21.2390 C.3    87  ASP87       0.1436
     11  CG        10.3160  -13.0120  -20.1680 C.2    87  ASP87       0.3671
     12  OD1       11.2050  -13.1230  -19.2980 O.co2  87  ASP87      -0.2456
     13  OD2        9.2750  -13.7050  -20.2270 O.co2  87  ASP87      -0.2456
     14  N          9.8880  -19.0060  -26.2440 N.3   103  PRO103     -0.2102
     15  CA         9.3230  -17.7910  -25.7270 C.3   103  PRO103      0.1504
     16  C          9.9080  -17.3870  -24.3430 C.2   103  PRO103      0.2576
     17  O         10.9810  -17.8850  -23.9310 O.2   103  PRO103     -0.2718
     18  CB         7.8240  -18.1370  -25.6660 C.3   103  PRO103      0.0282
     19  CG         7.8060  -19.5820  -25.3160 C.3   103  PRO103      0.0208
     20  CD         8.9380  -20.1420  -26.1040 C.3   103  PRO103      0.0893
     21  N          9.2290  -16.4840  -23.6570 N.am  104  GLY104     -0.1943
     22  CA         9.6240  -16.0810  -22.3180 C.3   104  GLY104      0.2014
     23  C         10.9850  -15.4060  -22.3150 C.2   104  GLY104      0.2639
     24  O         11.2890  -14.6190  -23.2060 O.2   104  GLY104     -0.2714
     25  N         11.8170  -15.7690  -21.3470 N.am  105  GLY105     -0.1939
     26  CA        13.1430  -15.1750  -21.1570 C.3   105  GLY105      0.2014
     27  C         14.1560  -15.4870  -22.2420 C.2   105  GLY105      0.2638
     28  O         15.2010  -14.8580  -22.3000 O.2   105  GLY105     -0.2714
     29  N         13.8730  -16.4420  -23.1160 N.am  106  LEU106     -0.1977
     30  CA        14.7430  -16.6700  -24.2730 C.3   106  LEU106      0.1596
     31  C         14.3990  -15.7450  -25.4650 C.2   106  LEU106      0.2287
     32  O         15.0830  -15.7790  -26.4700 O.2   106  LEU106     -0.2864
     33  CB        14.7560  -18.1440  -24.6790 C.3   106  LEU106      0.0297
     34  CG        15.2760  -19.0590  -23.5510 C.3   106  LEU106      0.0022
     35  CD1       15.1010  -20.5170  -23.9630 C.3   106  LEU106      0.0001
     36  CD2       16.7300  -18.7830  -23.1900 C.3   106  LEU106      0.0001
     37  N         12.9800   -8.8500  -17.2100 N.3   129  PHE129     -0.1241
     38  CA        12.7530   -9.9120  -16.2080 C.3   129  PHE129      0.1605
     39  C         14.0380  -10.6370  -15.8800 C.2   129  PHE129      0.2264
     40  O         14.7360  -11.1220  -16.7830 O.2   129  PHE129     -0.2867
     41  CB        11.6890  -10.9170  -16.6580 C.3   129  PHE129      0.0534
     42  CG        11.4070  -11.9850  -15.6180 C.ar  129  PHE129     -0.0203
     43  CD1       12.1860  -13.1460  -15.5720 C.ar  129  PHE129     -0.0042
     44  CD2       10.4000  -11.8110  -14.6650 C.ar  129  PHE129     -0.0042
     45  CE1       11.9640  -14.1310  -14.5980 C.ar  129  PHE129     -0.0003
     46  CE2       10.1650  -12.8020  -13.6850 C.ar  129  PHE129     -0.0003
     47  CZ        10.9700  -13.9490  -13.6490 C.ar  129  PHE129     -0.0000
     48  N         16.0500  -13.5210  -15.1850 N.3   131  ASN131     -0.1240
     49  CA        16.2060  -14.9640  -15.2770 C.3   131  ASN131      0.1653
     50  C         17.4530  -15.3880  -14.4830 C.2   131  ASN131      0.2266
     51  O         18.2130  -14.5410  -13.9630 O.2   131  ASN131     -0.2867
     52  CB        16.3020  -15.3710  -16.7420 C.3   131  ASN131      0.1155
     53  CG        15.0030  -15.1190  -17.5080 C.2   131  ASN131      0.2627
     54  OD1       14.8270  -14.0790  -18.1650 O.2   131  ASN131     -0.2716
     55  ND2       14.0760  -16.0700  -17.4300 N.am  131  ASN131     -0.0877
     56  N         20.2190  -16.5760  -15.4360 N.3   133  TRP133     -0.1241
     57  CA        21.4390  -16.1400  -16.1280 C.3   133  TRP133      0.1605
     58  C         21.6460  -14.6010  -16.1620 C.2   133  TRP133      0.2264
     59  O         22.6420  -14.1230  -16.6850 O.2   133  TRP133     -0.2867
     60  CB        21.4330  -16.6660  -17.5730 C.3   133  TRP133      0.0550
     61  CG        20.2370  -16.2120  -18.3730 C.ar  133  TRP133      0.0003
     62  CD1       20.0540  -14.9900  -18.9430 C.ar  133  TRP133      0.0946
     63  CD2       19.0640  -16.9720  -18.6560 C.ar  133  TRP133      0.0152
     64  NE1       18.8070  -14.9320  -19.5570 N.ar  133  TRP133     -0.2442
     65  CE2       18.1910  -16.1430  -19.4040 C.ar  133  TRP133      0.0810
     66  CE3       18.6580  -18.2860  -18.3570 C.ar  133  TRP133      0.0012
     67  CZ2       16.9420  -16.5790  -19.8580 C.ar  133  TRP133      0.0191
     68  CZ3       17.4060  -18.7070  -18.7850 C.ar  133  TRP133      0.0001
     69  CH2       16.5760  -17.8620  -19.5470 C.ar  133  TRP133      0.0015
     70  N          5.6330  -12.5580  -20.4660 N.3   214  GLY214     -0.1210
     71  CA         5.9920  -13.5600  -19.4680 C.3   214  GLY214      0.1956
     72  C          5.2340  -14.8770  -19.6080 C.2   214  GLY214      0.2612
     73  O          4.1440  -14.9170  -20.1900 O.2   214  GLY214     -0.2717
     74  N          5.8370  -15.9320  -19.0630 N.am  215  LEU215     -0.1965
     75  CA         5.2520  -17.2710  -19.0990 C.3   215  LEU215      0.1728
     76  C          4.3290  -17.5930  -17.9120 C.2   215  LEU215      0.2616
     77  O          3.9130  -18.7300  -17.7780 O.2   215  LEU215     -0.2715
     78  CB         6.3610  -18.3200  -19.2180 C.3   215  LEU215      0.0311
     79  CG         7.2370  -18.2170  -20.4610 C.3   215  LEU215      0.0022
     80  CD1        8.2090  -19.3980  -20.5760 C.3   215  LEU215      0.0001
     81  CD2        6.4430  -18.0120  -21.7510 C.3   215  LEU215      0.0001
     82  N          4.0230  -16.6010  -17.0750 N.am  216  SER216     -0.1950
     83  CA         2.9370  -16.7130  -16.0870 C.3   216  SER216      0.1924
     84  C          1.9610  -15.5660  -16.3140 C.2   216  SER216      0.2314
     85  O          2.3450  -14.4900  -16.7900 O.2   216  SER216     -0.2863
     86  CB         3.4820  -16.7370  -14.6520 C.3   216  SER216      0.2116
     87  OG         4.0820  -15.5080  -14.2650 O.3   216  SER216     -0.2180
     88  N          2.6380  -11.8530  -15.3020 N.3   219  HIS219     -0.1241
     89  CA         3.8800  -11.1890  -15.7430 C.3   219  HIS219      0.1621
     90  C          3.7830  -10.7960  -17.2260 C.2   219  HIS219      0.2264
     91  O          4.3090  -11.4820  -18.1000 O.2   219  HIS219     -0.2867
     92  CB         5.0920  -12.0840  -15.4710 C.3   219  HIS219      0.0745
     93  CG         5.5510  -12.0420  -14.0510 C.ar  219  HIS219      0.0817
     94  ND1        4.8180  -12.5910  -13.0160 N.ar  219  HIS219     -0.2268
     95  CD2        6.6630  -11.5130  -13.4860 C.ar  219  HIS219      0.1154
     96  CE1        5.4600  -12.4020  -11.8750 C.ar  219  HIS219      0.1986
     97  NE2        6.5820  -11.7520  -12.1340 N.ar  219  HIS219     -0.2212
@<TRIPOS>BOND
     1    32    31    2
     2    14    20    1
     3    14    15    1
     4    20    19    1
     5    15    18    1
     6    15    16    1
     7    18    19    1
     8    31    30    1
     9    33    30    1
    10    33    34    1
    11    16    17    2
    12    16    21   am
    13    30    29    1
    14    35    34    1
    15    21    22    1
    16    34    36    1
    17    24    23    2
    18    29    27   am
    19    22    23    1
    20    23    25   am
    21    28    27    2
    22    27    26    1
    23    81    79    1
    24     8     9    2
    25     8     7    1
    26    25    26    1
    27    10     7    1
    28    10    11    1
    29     6     7    1
    30     6     3   am
    31    80    79    1
    32    70    71    1
    33    79    78    1
    34    13    11   ar
    35     4     3    2
    36    73    72    2
    37    11    12   ar
    38     3     2    1
    39    67    69   ar
    40    67    65   ar
    41    72    71    1
    42    72    74   am
    43    64    65   ar
    44    64    62   ar
    45    69    68   ar
    46    65    63   ar
    47    78    75    1
    48    75    74    1
    49    75    76    1
    50    62    61   ar
    51    68    66   ar
    52    63    61   ar
    53    63    66   ar
    54     2     5    1
    55     2     1    1
    56    61    60    1
    57    54    53    2
    58    91    90    2
    59    76    77    2
    60    76    82   am
    61    60    57    1
    62    53    55   am
    63    53    52    1
    64    90    89    1
    65    37    38    1
    66    82    83    1
    67    85    84    2
    68    40    39    2
    69    52    49    1
    70    59    58    2
    71    41    38    1
    72    41    42    1
    73    84    83    1
    74    38    39    1
    75    58    57    1
    76    57    56    1
    77    83    86    1
    78    89    92    1
    79    89    88    1
    80    42    43   ar
    81    42    44   ar
    82    43    45   ar
    83    92    93    1
    84    49    48    1
    85    49    50    1
    86    44    46   ar
    87    86    87    1
    88    45    47   ar
    89    50    51    2
    90    93    95   ar
    91    93    94   ar
    92    46    47   ar
    93    95    97   ar
    94    94    96   ar
    95    97    96   ar
