@<TRIPOS>MOLECULE
tmp/5kxjA00.pdb
 95 87 0 0 0
SMALL
GASTEIGER

@<TRIPOS>ATOM
      1  N         25.6020   40.3200   -8.0660 N.3    17  GLY17      -0.1210
      2  CA        26.7570   40.6560   -8.8670 C.3    17  GLY17       0.1956
      3  C         26.9140   39.6710  -10.0040 C.2    17  GLY17       0.2612
      4  O         26.0130   38.8900  -10.3200 O.2    17  GLY17      -0.2717
      5  N         28.1000   39.6830  -10.6100 N.am   18  ALA18      -0.1965
      6  CA        28.3440   38.7750  -11.7290 C.3    18  ALA18       0.1728
      7  C         28.1770   37.3180  -11.3200 C.2    18  ALA18       0.2616
      8  O         27.6500   36.5050  -12.0930 O.2    18  ALA18      -0.2715
      9  CB        29.7400   39.0100  -12.3100 C.3    18  ALA18       0.0334
     10  N         28.6450   36.9530  -10.1210 N.am   19  ALA19      -0.1977
     11  CA        28.5320   35.5690   -9.6740 C.3    19  ALA19       0.1597
     12  C         27.0680   35.1530   -9.5480 C.2    19  ALA19       0.2287
     13  O         26.6550   34.1180  -10.0840 O.2    19  ALA19      -0.2864
     14  CB        29.2570   35.3860   -8.3340 C.3    19  ALA19       0.0319
     15  N         26.0900   34.5470   -2.7900 N.3   149  ALA149     -0.1245
     16  CA        26.8020   35.2330   -3.8590 C.3   149  ALA149      0.1562
     17  C         26.8940   36.7160   -3.5160 C.2   149  ALA149      0.2260
     18  O         26.7570   37.5880   -4.3760 O.2   149  ALA149     -0.2867
     19  CB        26.1160   35.0110   -5.2150 C.3   149  ALA149      0.0290
     20  N         29.2960   38.7430   -2.3900 N.3   151  GLY151     -0.1225
     21  CA        30.5250   39.5340   -2.4100 C.3   151  GLY151      0.1811
     22  C         31.3950   39.3580   -1.1780 C.2   151  GLY151      0.2280
     23  O         31.2460   38.4240   -0.3850 O.2   151  GLY151     -0.2866
     24  N         28.4550   46.2340   -2.0260 N.3   165  ILE165     -0.1245
     25  CA        28.5100   44.7950   -2.2630 C.3   165  ILE165      0.1561
     26  C         29.5220   44.1360   -1.3340 C.2   165  ILE165      0.2260
     27  O         30.0050   43.0320   -1.6110 O.2   165  ILE165     -0.2867
     28  CB        28.8480   44.4870   -3.7350 C.3   165  ILE165      0.0252
     29  CG1       30.2210   45.0570   -4.1090 C.3   165  ILE165      0.0019
     30  CG2       27.7720   45.0410   -4.6640 C.3   165  ILE165      0.0019
     31  CD1       30.6620   44.7110   -5.5260 C.3   165  ILE165      0.0001
     32  N         39.1010   43.8330   -2.0050 N.3   298  TYR298     -0.1241
     33  CA        38.7630   42.4580   -2.3490 C.3   298  TYR298      0.1605
     34  C         39.1160   41.5340   -1.1960 C.2   298  TYR298      0.2264
     35  O         40.1500   41.7090   -0.5470 O.2   298  TYR298     -0.2867
     36  CB        39.4980   42.0020   -3.6110 C.3   298  TYR298      0.0534
     37  CG        39.0550   40.6410   -4.1060 C.ar  298  TYR298     -0.0201
     38  CD1       37.9450   40.5150   -4.9350 C.ar  298  TYR298     -0.0009
     39  CD2       39.7510   39.4890   -3.7600 C.ar  298  TYR298     -0.0009
     40  CE1       37.5370   39.2700   -5.4170 C.ar  298  TYR298      0.0417
     41  CE2       39.3450   38.2300   -4.2370 C.ar  298  TYR298      0.0417
     42  CZ        38.2370   38.1320   -5.0400 C.ar  298  TYR298      0.1957
     43  OH        37.8360   36.8920   -5.4990 O.3   298  TYR298     -0.2866
     44  N         29.5980   31.0510   -3.9720 N.3   319  ILE319     -0.1231
     45  CA        30.4430   31.2310   -5.1480 C.3   319  ILE319      0.1692
     46  C         30.8210   32.7000   -5.2490 C.2   319  ILE319      0.2593
     47  O         30.1020   33.5840   -4.7770 O.2   319  ILE319     -0.2718
     48  CB        29.7660   30.7720   -6.4720 C.3   319  ILE319      0.0266
     49  CG1       28.5690   31.6520   -6.7930 C.3   319  ILE319      0.0019
     50  CG2       29.3680   29.2540   -6.4550 C.3   319  ILE319      0.0020
     51  CD1       28.0990   31.4930   -8.2600 C.3   319  ILE319      0.0001
     52  N         31.9420   32.9620   -5.8900 N.am  320  GLY320     -0.1942
     53  CA        32.3750   34.3340   -6.0340 C.3   320  GLY320      0.2014
     54  C         33.1700   34.7770   -4.8210 C.2   320  GLY320      0.2638
     55  O         33.7050   33.9710   -4.0580 O.2   320  GLY320     -0.2714
     56  N         33.2450   36.0950   -4.6500 N.am  321  GLU321     -0.1977
     57  CA        34.1360   36.6490   -3.6310 C.3   321  GLU321      0.1602
     58  C         33.7570   36.2140   -2.2170 C.2   321  GLU321      0.2287
     59  O         34.6290   36.1670   -1.3400 O.2   321  GLU321     -0.2864
     60  CB        34.1540   38.1700   -3.7500 C.3   321  GLU321      0.0415
     61  CG        35.1580   38.8330   -2.7690 C.3   321  GLU321      0.1163
     62  CD        35.1880   40.3380   -2.9260 C.2   321  GLU321      0.3649
     63  OE1       34.5780   40.8410   -3.8830 O.co2 321  GLU321     -0.2457
     64  OE2       35.8160   41.0200   -2.0920 O.co2 321  GLU321     -0.2457
     65  N         45.6600   37.9270   -4.8770 N.3   332  ARG332     -0.1245
     66  CA        44.7200   37.7370   -5.9740 C.3   332  ARG332      0.1563
     67  C         45.4120   38.0970   -7.2680 C.2   332  ARG332      0.2260
     68  O         46.0260   39.1600   -7.3600 O.2   332  ARG332     -0.2867
     69  CB        43.4740   38.6080   -5.8070 C.3   332  ARG332      0.0307
     70  CG        42.7720   38.7840   -7.1270 C.3   332  ARG332      0.0489
     71  CD        41.3780   39.2530   -6.9970 C.3   332  ARG332      0.2205
     72  NE        41.3000   40.6920   -6.9040 N.pl3 332  ARG332     -0.0865
     73  CZ        40.3150   41.4110   -7.4220 C.cat 332  ARG332      0.5346
     74  NH1       40.3040   42.7280   -7.2680 N.pl3 332  ARG332      0.1354
     75  NH2       39.3500   40.8190   -8.1000 N.pl3 332  ARG332      0.1354
     76  N         39.2030   36.4260  -10.3790 N.3   337  SER337     -0.1202
     77  CA        37.9590   36.5420   -9.6210 C.3   337  SER337      0.2020
     78  C         36.7460   36.2600  -10.5090 C.2   337  SER337      0.2618
     79  O         35.7790   35.6380  -10.0570 O.2   337  SER337     -0.2717
     80  CB        37.8600   37.9110   -8.9280 C.3   337  SER337      0.2103
     81  OG        38.0460   38.9910   -9.8250 O.3   337  SER337     -0.2182
     82  N         36.7880   36.6760  -11.7750 N.am  338  LEU338     -0.1979
     83  CA        35.7030   36.3610  -12.6980 C.3   338  LEU338      0.1596
     84  C         35.7280   34.8860  -13.0850 C.2   338  LEU338      0.2287
     85  O         34.6770   34.2280  -13.1400 O.2   338  LEU338     -0.2864
     86  CB        35.7940   37.2420  -13.9450 C.3   338  LEU338      0.0297
     87  CG        34.7690   36.8890  -15.0260 C.3   338  LEU338      0.0022
     88  CD1       33.3810   37.1720  -14.4890 C.3   338  LEU338      0.0001
     89  CD2       35.0190   37.6340  -16.3280 C.3   338  LEU338      0.0001
     90  N         34.1770   32.7470  -10.3160 N.3   341  CYS341     -0.1235
     91  CA        32.7260   32.7210  -10.1680 C.3   341  CYS341      0.1677
     92  C         32.0300   32.0650  -11.3540 C.2   341  CYS341      0.2270
     93  O         30.8790   31.6320  -11.2130 O.2   341  CYS341     -0.2867
     94  CB        32.1760   34.1240   -9.9600 C.3   341  CYS341      0.0956
     95  SG        31.8150   35.0140  -11.4520 S.3   341  CYS341     -0.0801
@<TRIPOS>BOND
     1    89    87    1
     2    87    88    1
     3    87    86    1
     4    86    83    1
     5    85    84    2
     6    84    83    1
     7    83    82    1
     8     9     6    1
     9     8     7    2
    10    82    78   am
    11     6     7    1
    12     6     5    1
    13    95    94    1
    14    92    93    2
    15    92    91    1
    16     7    10   am
    17     5     3   am
    18    78    79    2
    19    78    77    1
    20    76    77    1
    21     4     3    2
    22    90    91    1
    23    91    94    1
    24    10    11    1
    25    13    12    2
    26     3     2    1
    27    81    80    1
    28    11    12    1
    29    11    14    1
    30    77    80    1
    31     2     1    1
    32    51    49    1
    33    75    73    1
    34    73    74    1
    35    73    72    2
    36    68    67    2
    37    67    66    1
    38    70    71    1
    39    70    69    1
    40    71    72    1
    41    49    48    1
    42    48    50    1
    43    48    45    1
    44    53    52    1
    45    53    54    1
    46    66    69    1
    47    66    65    1
    48    52    46   am
    49    31    29    1
    50    43    42    1
    51    40    42   ar
    52    40    38   ar
    53    46    45    1
    54    46    47    2
    55    19    16    1
    56    45    44    1
    57    42    41   ar
    58    38    37   ar
    59    54    56   am
    60    54    55    2
    61    30    28    1
    62    56    57    1
    63    18    17    2
    64    41    39   ar
    65    29    28    1
    66    37    39   ar
    67    37    36    1
    68    63    62   ar
    69    16    17    1
    70    16    15    1
    71    60    57    1
    72    60    61    1
    73    28    25    1
    74    57    58    1
    75    36    33    1
    76    62    61    1
    77    62    64   ar
    78    21    20    1
    79    21    22    1
    80    33    32    1
    81    33    34    1
    82    25    24    1
    83    25    26    1
    84    58    59    2
    85    27    26    2
    86    34    35    2
    87    22    23    2
