@<TRIPOS>MOLECULE
tmp/5kyaA00.pdb
 242 229 0 0 0
SMALL
GASTEIGER

@<TRIPOS>ATOM
      1  N         -1.2840  -41.5590   15.3750 N.3    45  PHE45      -0.1241
      2  CA        -0.2490  -41.7880   16.3910 C.3    45  PHE45       0.1605
      3  C          0.3820  -43.1390   16.1970 C.2    45  PHE45       0.2264
      4  O          1.5720  -43.3030   16.3680 O.2    45  PHE45      -0.2867
      5  CB        -0.8160  -41.6510   17.8070 C.3    45  PHE45       0.0534
      6  CG         0.1850  -41.8790   18.8780 C.ar   45  PHE45      -0.0203
      7  CD1        1.1170  -40.9120   19.1850 C.ar   45  PHE45      -0.0042
      8  CD2        0.1970  -43.0700   19.5860 C.ar   45  PHE45      -0.0042
      9  CE1        2.0630  -41.1330   20.1780 C.ar   45  PHE45      -0.0003
     10  CE2        1.1180  -43.2980   20.5880 C.ar   45  PHE45      -0.0003
     11  CZ         2.0620  -42.3330   20.8840 C.ar   45  PHE45      -0.0000
     12  N          2.7270  -42.9650   13.0770 N.3    48  PHE48      -0.1227
     13  CA         4.0160  -42.3140   13.3670 C.3    48  PHE48       0.1736
     14  C          4.9260  -43.1990   14.1910 C.2    48  PHE48       0.2596
     15  O          6.1360  -43.3160   13.9290 O.2    48  PHE48      -0.2718
     16  CB         3.7920  -40.9860   14.0840 C.3    48  PHE48       0.0547
     17  CG         3.9450  -39.8180   13.1930 C.ar   48  PHE48      -0.0202
     18  CD1        3.2130  -39.7360   12.0310 C.ar   48  PHE48      -0.0042
     19  CD2        4.8600  -38.8290   13.4770 C.ar   48  PHE48      -0.0042
     20  CE1        3.3710  -38.6740   11.1670 C.ar   48  PHE48      -0.0003
     21  CE2        5.0390  -37.7720   12.6220 C.ar   48  PHE48      -0.0003
     22  CZ         4.2770  -37.6860   11.4600 C.ar   48  PHE48      -0.0000
     23  N          4.3210  -43.8320   15.1770 N.am   49  THR49      -0.1953
     24  CA         5.0250  -44.7420   16.0300 C.3    49  THR49       0.1897
     25  C          5.6400  -45.8930   15.2260 C.2    49  THR49       0.2313
     26  O          6.7470  -46.3890   15.5170 O.2    49  THR49      -0.2863
     27  CB         4.0590  -45.2530   17.1060 C.3    49  THR49       0.1794
     28  OG1        3.7520  -44.1970   18.0310 O.3    49  THR49      -0.2208
     29  CG2        4.6800  -46.3460   17.8750 C.3    49  THR49       0.0378
     30  N          6.5800  -45.8090   12.0410 N.3    51  LEU51      -0.1231
     31  CA         7.7160  -45.2840   11.3030 C.3    51  LEU51       0.1693
     32  C          8.9520  -45.1080   12.2160 C.2    51  LEU51       0.2591
     33  O         10.0860  -45.3720   11.8200 O.2    51  LEU51      -0.2718
     34  CB         7.3260  -43.9550   10.7030 C.3    51  LEU51       0.0284
     35  CG         6.1990  -43.9530    9.6860 C.3    51  LEU51       0.0019
     36  CD1        5.9680  -42.4910    9.2870 C.3    51  LEU51       0.0001
     37  CD2        6.5080  -44.7700    8.4440 C.3    51  LEU51       0.0001
     38  N          8.7300  -44.6480   13.4400 N.am   52  ALA52      -0.1980
     39  CA         9.8180  -44.5630   14.3780 C.3    52  ALA52       0.1597
     40  C         10.4760  -45.9410   14.5430 C.2    52  ALA52       0.2287
     41  O         11.6950  -46.0610   14.4300 O.2    52  ALA52      -0.2864
     42  CB         9.3400  -44.0060   15.7200 C.3    52  ALA52       0.0319
     43  N         10.5500  -48.5170   12.5210 N.3    54  ILE54      -0.1231
     44  CA        11.2680  -48.9360   11.3460 C.3    54  ILE54       0.1692
     45  C         12.6000  -48.1820   11.3070 C.2    54  ILE54       0.2592
     46  O         13.6420  -48.7200   10.9400 O.2    54  ILE54      -0.2718
     47  CB        10.4330  -48.6650   10.0860 C.3    54  ILE54       0.0266
     48  CG1        9.2400  -49.5860   10.0750 C.3    54  ILE54       0.0019
     49  CG2       11.2690  -48.8910    8.8530 C.3    54  ILE54       0.0020
     50  CD1        8.2790  -49.3550    8.9390 C.3    54  ILE54       0.0001
     51  N         12.5630  -46.9180   11.6850 N.am   55  SER55      -0.1952
     52  CA        13.7770  -46.1340   11.7190 C.3    55  SER55       0.1924
     53  C         14.8150  -46.7340   12.6780 C.2    55  SER55       0.2314
     54  O         15.9940  -46.7130   12.3780 O.2    55  SER55      -0.2863
     55  CB        13.4710  -44.6960   12.1170 C.3    55  SER55       0.2116
     56  OG        14.6970  -44.0190   12.3570 O.3    55  SER55      -0.2180
     57  N         16.3170  -49.5920   11.1560 N.3    58  GLU58      -0.1245
     58  CA        17.2250  -49.1680   10.0920 C.3    58  GLU58       0.1567
     59  C         18.5780  -48.7230   10.6510 C.2    58  GLU58       0.2260
     60  O         19.6290  -49.0080   10.0950 O.2    58  GLU58      -0.2867
     61  CB        16.5720  -48.0600    9.2810 C.3    58  GLU58       0.0388
     62  CG        17.1860  -47.9110    7.9180 C.3    58  GLU58       0.1160
     63  CD        16.5960  -46.7580    7.1390 C.2    58  GLU58       0.3649
     64  OE1       15.3610  -46.7630    6.8620 O.co2  58  GLU58      -0.2457
     65  OE2       17.4030  -45.8550    6.8100 O.co2  58  GLU58      -0.2457
     66  N         17.7720  -41.3350   18.8550 N.3    86  ILE86      -0.1245
     67  CA        16.9310  -40.1680   18.6350 C.3    86  ILE86       0.1561
     68  C         17.6990  -39.1330   17.7680 C.2    86  ILE86       0.2260
     69  O         17.1220  -38.5000   16.8670 O.2    86  ILE86      -0.2867
     70  CB        16.4010  -39.5510   19.9530 C.3    86  ILE86       0.0252
     71  CG1       15.4430  -38.3940   19.6670 C.3    86  ILE86       0.0019
     72  CG2       17.5210  -39.0150   20.8330 C.3    86  ILE86       0.0019
     73  CD1       14.2290  -38.7660   18.8380 C.3    86  ILE86       0.0001
     74  N         17.8590  -40.2930   14.3330 N.3    89  MET89      -0.1230
     75  CA        16.4890  -40.0910   13.7960 C.3    89  MET89       0.1702
     76  C         16.2780  -38.6610   13.3230 C.2    89  MET89       0.2592
     77  O         15.7180  -38.4230   12.2670 O.2    89  MET89      -0.2718
     78  CB        15.3930  -40.4380   14.8250 C.3    89  MET89       0.0401
     79  CG        15.1110  -41.9210   14.8920 C.3    89  MET89       0.0596
     80  SD        14.1940  -42.4550   16.3500 S.3    89  MET89      -0.1393
     81  CE        12.5520  -42.3800   15.7150 C.3    89  MET89       0.0692
     82  N         16.7500  -37.7090   14.1070 N.am   90  LEU90      -0.1980
     83  CA        16.6510  -36.3360   13.7180 C.3    90  LEU90       0.1596
     84  C         17.4710  -36.0080   12.4780 C.2    90  LEU90       0.2287
     85  O         16.9990  -35.3050   11.6030 O.2    90  LEU90      -0.2864
     86  CB        17.0530  -35.4420   14.8870 C.3    90  LEU90       0.0297
     87  CG        16.0360  -35.4670   16.0240 C.3    90  LEU90       0.0022
     88  CD1       16.5760  -34.7180   17.2140 C.3    90  LEU90       0.0001
     89  CD2       14.7070  -34.8800   15.6240 C.3    90  LEU90       0.0001
     90  N         18.3440  -38.0770   10.0810 N.3    92  GLU92      -0.1231
     91  CA        17.7070  -38.6950    8.9680 C.3    92  GLU92       0.1699
     92  C         16.4130  -37.9530    8.6520 C.2    92  GLU92       0.2592
     93  O         16.0220  -37.8770    7.5080 O.2    92  GLU92      -0.2718
     94  CB        17.4520  -40.1760    9.2100 C.3    92  GLU92       0.0402
     95  CG        18.6690  -41.0670    9.0600 C.3    92  GLU92       0.1161
     96  CD        19.2170  -41.1060    7.6350 C.2    92  GLU92       0.3649
     97  OE1       18.4770  -41.4520    6.6750 O.co2  92  GLU92      -0.2457
     98  OE2       20.4130  -40.7710    7.4750 O.co2  92  GLU92      -0.2457
     99  N         15.7620  -37.3830    9.6530 N.am   93  THR93      -0.1953
    100  CA        14.5310  -36.6330    9.4320 C.3    93  THR93       0.1897
    101  C         14.8230  -35.3750    8.6110 C.2    93  THR93       0.2313
    102  O         14.1710  -35.1230    7.5900 O.2    93  THR93      -0.2863
    103  CB        13.8420  -36.2820   10.7750 C.3    93  THR93       0.1794
    104  OG1       13.3130  -37.4720   11.3520 O.3    93  THR93      -0.2208
    105  CG2       12.6860  -35.3180   10.5800 C.3    93  THR93       0.0378
    106  N         15.3150  -35.6850    4.9550 N.3    96  ARG96      -0.1245
    107  CA        14.1180  -35.8900    4.1440 C.3    96  ARG96       0.1563
    108  C         13.2080  -34.6600    4.1470 C.2    96  ARG96       0.2260
    109  O         12.0480  -34.7390    3.8570 O.2    96  ARG96      -0.2867
    110  CB        13.3590  -37.1050    4.6570 C.3    96  ARG96       0.0307
    111  CG        14.1450  -38.3940    4.5960 C.3    96  ARG96       0.0489
    112  CD        13.4980  -39.5340    5.3850 C.3    96  ARG96       0.2205
    113  NE        14.0150  -40.8290    4.9190 N.pl3  96  ARG96      -0.0865
    114  CZ        15.2600  -41.2610    5.1510 C.cat  96  ARG96       0.5346
    115  NH1       16.1410  -40.5390    5.8580 N.pl3  96  ARG96       0.1354
    116  NH2       15.6390  -42.4390    4.6820 N.pl3  96  ARG96       0.1354
    117  N          8.7380  -39.4800    4.7170 N.3   106  PHE106     -0.1227
    118  CA         9.1300  -40.7770    5.2820 C.3   106  PHE106      0.1736
    119  C          8.8680  -41.9090    4.2850 C.2   106  PHE106      0.2595
    120  O          7.8600  -41.8830    3.5930 O.2   106  PHE106     -0.2718
    121  CB         8.3360  -41.0430    6.5560 C.3   106  PHE106      0.0547
    122  CG         8.6750  -40.1260    7.6590 C.ar  106  PHE106     -0.0202
    123  CD1        9.9920  -39.9280    8.0210 C.ar  106  PHE106     -0.0042
    124  CD2        7.7020  -39.4500    8.3270 C.ar  106  PHE106     -0.0042
    125  CE1       10.3310  -39.0660    9.0570 C.ar  106  PHE106     -0.0003
    126  CE2        8.0210  -38.5850    9.3660 C.ar  106  PHE106     -0.0003
    127  CZ         9.3420  -38.3950    9.7300 C.ar  106  PHE106     -0.0000
    128  N          9.7570  -42.9030    4.2590 N.am  107  LEU107     -0.1980
    129  CA         9.7330  -44.0050    3.2690 C.3   107  LEU107      0.1596
    130  C          9.7190  -43.4160    1.8650 C.2   107  LEU107      0.2287
    131  O         10.5500  -42.5750    1.5740 O.2   107  LEU107     -0.2864
    132  CB         8.5940  -44.9910    3.5460 C.3   107  LEU107      0.0297
    133  CG         8.7120  -45.6400    4.9330 C.3   107  LEU107      0.0022
    134  CD1        7.5060  -46.4650    5.3430 C.3   107  LEU107      0.0001
    135  CD2        9.9680  -46.4920    5.0020 C.3   107  LEU107      0.0001
    136  N          2.3360  -33.3910   11.8380 N.3   117  PHE117     -0.1241
    137  CA         3.0640  -33.8730   13.0150 C.3   117  PHE117      0.1605
    138  C          2.2170  -33.6060   14.2360 C.2   117  PHE117      0.2264
    139  O          2.1930  -34.4030   15.1790 O.2   117  PHE117     -0.2867
    140  CB         4.4240  -33.1740   13.1710 C.3   117  PHE117      0.0534
    141  CG         5.5510  -33.7890   12.3650 C.ar  117  PHE117     -0.0203
    142  CD1        5.4880  -33.8770   10.9860 C.ar  117  PHE117     -0.0042
    143  CD2        6.7020  -34.2360   12.9980 C.ar  117  PHE117     -0.0042
    144  CE1        6.5320  -34.4280   10.2550 C.ar  117  PHE117     -0.0003
    145  CE2        7.7490  -34.7880   12.2800 C.ar  117  PHE117     -0.0003
    146  CZ         7.6640  -34.8890   10.9040 C.ar  117  PHE117     -0.0000
    147  N         -0.5410  -36.1030   14.4670 N.3   120  ALA120     -0.1245
    148  CA        -0.0360  -37.4250   14.9010 C.3   120  ALA120      0.1562
    149  C          0.2360  -37.5180   16.4010 C.2   120  ALA120      0.2260
    150  O          0.5380  -38.5960   16.8840 O.2   120  ALA120     -0.2867
    151  CB         1.2060  -37.8390   14.1200 C.3   120  ALA120      0.0290
    152  N          2.3550  -35.2600   18.4330 N.3   122  LEU122     -0.1245
    153  CA         3.5590  -34.6570   18.9730 C.3   122  LEU122      0.1561
    154  C          3.1980  -33.2300   19.3800 C.2   122  LEU122      0.2260
    155  O          2.2400  -32.6340   18.8690 O.2   122  LEU122     -0.2867
    156  CB         4.6990  -34.6940   17.9590 C.3   122  LEU122      0.0270
    157  CG         5.1030  -36.0680   17.3730 C.3   122  LEU122      0.0019
    158  CD1        6.3150  -35.9350   16.4630 C.3   122  LEU122      0.0001
    159  CD2        5.4020  -37.0810   18.4380 C.3   122  LEU122      0.0001
    160  N          8.1910  -29.7100   20.5010 N.3   126  PHE126     -0.1241
    161  CA         9.0650  -30.6850   19.8880 C.3   126  PHE126      0.1605
    162  C          9.1150  -30.5310   18.3650 C.2   126  PHE126      0.2264
    163  O         10.1680  -30.6000   17.7550 O.2   126  PHE126     -0.2867
    164  CB         8.5790  -32.0820   20.2300 C.3   126  PHE126      0.0534
    165  CG         9.4960  -33.1820   19.7730 C.ar  126  PHE126     -0.0203
    166  CD1       10.8720  -33.0200   19.7470 C.ar  126  PHE126     -0.0042
    167  CD2        8.9720  -34.3990   19.3940 C.ar  126  PHE126     -0.0042
    168  CE1       11.7020  -34.0570   19.3490 C.ar  126  PHE126     -0.0003
    169  CE2        9.7920  -35.4330   18.9770 C.ar  126  PHE126     -0.0003
    170  CZ        11.1590  -35.2630   18.9590 C.ar  126  PHE126     -0.0000
    171  N         12.3800  -29.5490   15.6780 N.3   130  ILE130     -0.1245
    172  CA        12.6160  -30.4860   14.5780 C.3   130  ILE130      0.1561
    173  C         12.6550  -29.7930   13.2040 C.2   130  ILE130      0.2260
    174  O         13.5310  -30.0800   12.3630 O.2   130  ILE130     -0.2867
    175  CB        11.5240  -31.5660   14.5320 C.3   130  ILE130      0.0252
    176  CG1       11.7110  -32.5350   15.6710 C.3   130  ILE130      0.0019
    177  CG2       11.5660  -32.3510   13.2200 C.3   130  ILE130      0.0019
    178  CD1       10.6050  -33.5560   15.7330 C.3   130  ILE130      0.0001
    179  N         13.3640  -33.9550   23.3460 N.3   212  HIS212     -0.1241
    180  CA        12.6210  -35.1550   23.1510 C.3   212  HIS212      0.1621
    181  C         12.1550  -35.7350   24.4730 C.2   212  HIS212      0.2264
    182  O         11.0170  -36.2190   24.5700 O.2   212  HIS212     -0.2867
    183  CB        13.4650  -36.1370   22.3640 C.3   212  HIS212      0.0745
    184  CG        12.8740  -37.4910   22.2930 C.ar  212  HIS212      0.0817
    185  ND1       13.4220  -38.5630   22.9510 N.ar  212  HIS212     -0.2268
    186  CD2       11.7730  -37.9500   21.6650 C.ar  212  HIS212      0.1154
    187  CE1       12.7020  -39.6380   22.6990 C.ar  212  HIS212      0.1986
    188  NE2       11.7050  -39.2960   21.9080 N.ar  212  HIS212     -0.2212
    189  N          9.1250  -34.3230   25.3730 N.3   215  GLN215     -0.1231
    190  CA         7.9930  -34.8290   24.6150 C.3   215  GLN215      0.1698
    191  C          7.4880  -36.1250   25.2430 C.2   215  GLN215      0.2592
    192  O          6.2710  -36.3270   25.3830 O.2   215  GLN215     -0.2718
    193  CB         8.3600  -35.0390   23.1460 C.3   215  GLN215      0.0381
    194  CG         7.3490  -35.8150   22.2700 C.3   215  GLN215      0.0905
    195  CD         6.0210  -35.0910   22.0850 C.2   215  GLN215      0.2608
    196  OE1        5.8390  -34.3370   21.1660 O.2   215  GLN215     -0.2717
    197  NE2        5.1030  -35.3010   23.0030 N.am  215  GLN215     -0.0878
    198  N          8.4070  -36.9940   25.6350 N.am  216  VAL216     -0.1980
    199  CA         8.0290  -38.2180   26.3440 C.3   216  VAL216      0.1595
    200  C          7.2770  -37.9020   27.6470 C.2   216  VAL216      0.2287
    201  O          6.3090  -38.5530   28.0020 O.2   216  VAL216     -0.2864
    202  CB         9.2550  -39.0930   26.6520 C.3   216  VAL216      0.0276
    203  CG1        8.8960  -40.2010   27.6200 C.3   216  VAL216      0.0022
    204  CG2        9.8160  -39.6800   25.3550 C.3   216  VAL216      0.0022
    205  N          3.7210  -37.1670   26.7760 N.3   219  LEU219     -0.1245
    206  CA         2.9730  -38.3430   26.4420 C.3   219  LEU219      0.1561
    207  C          2.4420  -39.0350   27.6860 C.2   219  LEU219      0.2260
    208  O          1.3080  -39.5110   27.7030 O.2   219  LEU219     -0.2867
    209  CB         3.8210  -39.3080   25.6180 C.3   219  LEU219      0.0270
    210  CG         4.2480  -38.8440   24.2240 C.3   219  LEU219      0.0019
    211  CD1        4.9850  -39.9700   23.5120 C.3   219  LEU219      0.0001
    212  CD2        3.1030  -38.3220   23.3500 C.3   219  LEU219      0.0001
    213  N          3.8420  -45.9590   24.5570 N.3   226  LEU226     -0.1245
    214  CA         4.7610  -46.3430   23.4600 C.3   226  LEU226      0.1561
    215  C          4.9530  -47.8670   23.3300 C.2   226  LEU226      0.2260
    216  O          4.9600  -48.5660   24.3370 O.2   226  LEU226     -0.2867
    217  CB         6.1340  -45.7160   23.7230 C.3   226  LEU226      0.0270
    218  CG         6.3430  -44.2160   23.5320 C.3   226  LEU226      0.0019
    219  CD1        5.1880  -43.4300   24.0970 C.3   226  LEU226      0.0001
    220  CD2        7.6280  -43.7850   24.2250 C.3   226  LEU226      0.0001
    221  N         10.4240  -48.8210   21.6440 N.3   230  LEU230     -0.1245
    222  CA        10.6980  -47.4320   21.9180 C.3   230  LEU230      0.1561
    223  C         10.7550  -47.1590   23.4180 C.2   230  LEU230      0.2260
    224  O         11.5110  -46.3110   23.8620 O.2   230  LEU230     -0.2867
    225  CB         9.6430  -46.5340   21.2380 C.3   230  LEU230      0.0270
    226  CG         9.4670  -46.6640   19.7110 C.3   230  LEU230      0.0019
    227  CD1        8.4420  -45.6820   19.1730 C.3   230  LEU230      0.0001
    228  CD2       10.7910  -46.4960   19.0060 C.3   230  LEU230      0.0001
    229  N         14.2120  -45.6710   25.1500 N.3   234  TRP234     -0.1241
    230  CA        14.0810  -44.3320   25.7330 C.3   234  TRP234      0.1605
    231  C         13.6220  -44.3630   27.1960 C.2   234  TRP234      0.2264
    232  O         13.2460  -43.3200   27.7480 O.2   234  TRP234     -0.2867
    233  CB        13.0760  -43.4930   24.9170 C.3   234  TRP234      0.0550
    234  CG        13.4810  -43.2510   23.5010 C.ar  234  TRP234      0.0003
    235  CD1       14.7650  -43.1430   23.0220 C.ar  234  TRP234      0.0946
    236  CD2       12.6180  -43.0630   22.3700 C.ar  234  TRP234      0.0152
    237  NE1       14.7460  -42.8980   21.6740 N.ar  234  TRP234     -0.2442
    238  CE2       13.4450  -42.8520   21.2480 C.ar  234  TRP234      0.0810
    239  CE3       11.2350  -43.0250   22.2040 C.ar  234  TRP234      0.0012
    240  CZ2       12.9380  -42.6300   19.9820 C.ar  234  TRP234      0.0191
    241  CZ3       10.7240  -42.7960   20.9270 C.ar  234  TRP234      0.0001
    242  CH2       11.5740  -42.5920   19.8370 C.ar  234  TRP234      0.0015
@<TRIPOS>BOND
     1   131   130    2
     2   130   129    1
     3   129   132    1
     4   129   128    1
     5   132   133    1
     6   120   119    2
     7   109   108    2
     8   107   108    1
     9   107   110    1
    10   107   106    1
    11   128   119   am
    12   119   118    1
    13   111   110    1
    14   111   112    1
    15   116   114    1
    16   117   118    1
    17   113   114    2
    18   113   112    1
    19   133   135    1
    20   133   134    1
    21   114   115    1
    22   118   121    1
    23   121   122    1
    24    97    96   ar
    25    65    63   ar
    26    64    63   ar
    27    63    62    1
    28    98    96   ar
    29    93    92    2
    30   102   101    2
    31    96    95    1
    32   122   123   ar
    33   122   124   ar
    34    62    61    1
    35   123   125   ar
    36   124   126   ar
    37    37    35    1
    38   101   100    1
    39    92    91    1
    40    92    99   am
    41    49    47    1
    42    50    48    1
    43    91    94    1
    44    91    90    1
    45   125   127   ar
    46    95    94    1
    47    61    58    1
    48    36    35    1
    49   126   127   ar
    50   100    99    1
    51   100   103    1
    52    35    34    1
    53    48    47    1
    54    47    44    1
    55    58    59    1
    56    58    57    1
    57    60    59    2
    58   144   146   ar
    59   144   142   ar
    60   105   103    1
    61    34    31    1
    62   103   104    1
    63   146   145   ar
    64    46    45    2
    65   142   141   ar
    66    20    22   ar
    67    20    18   ar
    68    31    30    1
    69    31    32    1
    70    45    44    1
    71    45    51   am
    72    44    43    1
    73    22    21   ar
    74    85    84    2
    75    51    52    1
    76    52    55    1
    77    52    53    1
    78    33    32    2
    79   136   137    1
    80    18    17   ar
    81    55    56    1
    82    32    38   am
    83    77    76    2
    84   145   143   ar
    85   174   173    2
    86   141   143   ar
    87   141   140    1
    88    54    53    2
    89    84    83    1
    90    21    19   ar
    91   137   140    1
    92   137   138    1
    93    12    13    1
    94    17    19   ar
    95    17    16    1
    96   173   172    1
    97   177   175    1
    98    76    75    1
    99    76    82   am
   100    13    16    1
   101    13    14    1
   102    38    39    1
   103    83    82    1
   104    83    86    1
   105    75    74    1
   106    75    78    1
   107    15    14    2
   108   151   148    1
   109    14    23   am
   110   138   139    2
   111    39    40    1
   112    39    42    1
   113    41    40    2
   114   147   148    1
   115   175   172    1
   116   175   176    1
   117   172   171    1
   118    78    79    1
   119    86    87    1
   120    79    80    1
   121   148   149    1
   122    23    24    1
   123    25    26    2
   124    25    24    1
   125     1     2    1
   126    89    87    1
   127   176   178    1
   128    81    80    1
   129    87    88    1
   130    24    27    1
   131     3     4    2
   132     3     2    1
   133     2     5    1
   134   149   150    2
   135   158   157    1
   136    69    68    2
   137    27    29    1
   138    27    28    1
   139   157   156    1
   140   157   159    1
   141   163   162    2
   142    68    67    1
   143     5     6    1
   144   156   153    1
   145   162   161    1
   146   152   153    1
   147    67    66    1
   148    67    70    1
   149    73    71    1
   150   155   154    2
   151     6     7   ar
   152     6     8   ar
   153   170   169   ar
   154   170   168   ar
   155   153   154    1
   156   169   167   ar
   157   228   226    1
   158   227   226    1
   159     7     9   ar
   160   168   166   ar
   161   167   165   ar
   162     8    10   ar
   163    71    70    1
   164   226   225    1
   165   166   165   ar
   166   165   164    1
   167   242   240   ar
   168   242   241   ar
   169   161   164    1
   170   161   160    1
   171    70    72    1
   172   240   238   ar
   173     9    11   ar
   174    10    11   ar
   175   241   239   ar
   176   196   195    2
   177   225   222    1
   178   238   237   ar
   179   238   236   ar
   180   221   222    1
   181   186   188   ar
   182   186   184   ar
   183   237   235   ar
   184   188   187   ar
   185   222   223    1
   186   195   194    1
   187   195   197   am
   188   239   236   ar
   189   194   193    1
   190   184   183    1
   191   184   185   ar
   192   183   180    1
   193   236   234   ar
   194   187   185   ar
   195   235   234   ar
   196   193   190    1
   197   180   179    1
   198   180   181    1
   199   215   214    1
   200   215   216    2
   201   212   210    1
   202   223   224    2
   203   214   217    1
   204   214   213    1
   205   234   233    1
   206   211   210    1
   207   218   217    1
   208   218   219    1
   209   218   220    1
   210   210   209    1
   211   181   182    2
   212   190   191    1
   213   190   189    1
   214   233   230    1
   215   229   230    1
   216   191   192    2
   217   191   198   am
   218   204   202    1
   219   209   206    1
   220   198   199    1
   221   230   231    1
   222   199   202    1
   223   199   200    1
   224   206   205    1
   225   206   207    1
   226   202   203    1
   227   231   232    2
   228   200   201    2
   229   207   208    2
