@<TRIPOS>MOLECULE
tmp/5kycA00.pdb
 110 108 0 0 0
SMALL
GASTEIGER

@<TRIPOS>ATOM
      1  N         26.0670   -4.0760   23.1900 N.3    15  TYR15      -0.1241
      2  CA        26.0120   -2.9060   22.3180 C.3    15  TYR15       0.1605
      3  C         26.4230   -1.5950   22.9860 C.2    15  TYR15       0.2264
      4  O         26.4760   -0.5700   22.2850 O.2    15  TYR15      -0.2867
      5  CB        24.5720   -2.7370   21.8150 C.3    15  TYR15       0.0534
      6  CG        23.5550   -2.8570   22.9250 C.ar   15  TYR15      -0.0201
      7  CD1       23.3960   -1.8440   23.8750 C.ar   15  TYR15      -0.0009
      8  CD2       22.7890   -3.9990   23.0610 C.ar   15  TYR15      -0.0009
      9  CE1       22.5170   -1.9740   24.9330 C.ar   15  TYR15       0.0417
     10  CE2       21.9000   -4.1410   24.1230 C.ar   15  TYR15       0.0417
     11  CZ        21.7550   -3.1090   25.0450 C.ar   15  TYR15       0.1957
     12  OH        20.8740   -3.2270   26.0950 O.3    15  TYR15      -0.2866
     13  N         17.1990   -3.9300   24.3960 N.3    86  ASP86      -0.1225
     14  CA        17.9690   -3.7310   23.1750 C.3    86  ASP86       0.1805
     15  C         18.6280   -2.3440   23.1280 C.2    86  ASP86       0.2597
     16  O         18.4690   -1.5190   24.0300 O.2    86  ASP86      -0.2718
     17  CB        17.1490   -4.0780   21.9310 C.3    86  ASP86       0.1424
     18  CG        16.0670   -3.0650   21.6210 C.2    86  ASP86       0.3668
     19  OD1       16.1320   -1.9030   22.0960 O.co2  86  ASP86      -0.2456
     20  OD2       15.1490   -3.4270   20.8450 O.co2  86  ASP86      -0.2456
     21  N         19.4360   -2.1230   22.0810 N.am   87  VAL87      -0.1980
     22  CA        20.2590   -0.9180   22.0110 C.3    87  VAL87       0.1595
     23  C         19.4040    0.3370   22.0200 C.2    87  VAL87       0.2287
     24  O         19.7930    1.3550   22.5950 O.2    87  VAL87      -0.2864
     25  CB        21.2020   -0.9620   20.7950 C.3    87  VAL87       0.0276
     26  CG1       20.4180   -0.9860   19.4980 C.3    87  VAL87       0.0022
     27  CG2       22.1550    0.2070   20.8090 C.3    87  VAL87       0.0022
     28  N         16.7200    0.8130   13.4820 N.3   196  GLN196     -0.1231
     29  CA        17.0270   -0.4610   14.0870 C.3   196  GLN196      0.1698
     30  C         16.5760   -1.5720   13.1440 C.2   196  GLN196      0.2592
     31  O         15.4380   -1.5680   12.6990 O.2   196  GLN196     -0.2718
     32  CB        16.3190   -0.5820   15.4280 C.3   196  GLN196      0.0381
     33  CG        16.8380   -1.7310   16.2040 C.3   196  GLN196      0.0905
     34  CD        16.1070   -1.9140   17.5060 C.2   196  GLN196      0.2608
     35  OE1       15.1330   -1.2180   17.7940 O.2   196  GLN196     -0.2717
     36  NE2       16.5730   -2.8580   18.3060 N.am  196  GLN196     -0.0878
     37  N         17.4500   -2.5160   12.8570 N.am  197  LEU197     -0.1980
     38  CA        17.1550   -3.6010   11.9270 C.3   197  LEU197      0.1596
     39  C         16.8260   -4.8200   12.7680 C.2   197  LEU197      0.2287
     40  O         17.6510   -5.2440   13.5800 O.2   197  LEU197     -0.2864
     41  CB        18.3670   -3.8860   11.0390 C.3   197  LEU197      0.0297
     42  CG        18.9980   -2.6690   10.3610 C.3   197  LEU197      0.0022
     43  CD1       20.1290   -3.1140    9.4590 C.3   197  LEU197      0.0001
     44  CD2       17.9720   -1.8620    9.5820 C.3   197  LEU197      0.0001
     45  N         17.0040   -8.0770   13.6350 N.3   199  ARG199     -0.1231
     46  CA        17.8580   -9.2090   13.2910 C.3   199  ARG199      0.1694
     47  C         17.5330  -10.4610   14.0780 C.2   199  ARG199      0.2592
     48  O         18.1720  -11.4970   13.8680 O.2   199  ARG199     -0.2718
     49  CB        19.3290   -8.8190   13.5100 C.3   199  ARG199      0.0321
     50  CG        19.9380   -7.9830   12.3740 C.3   199  ARG199      0.0489
     51  CD        20.3290   -8.8580   11.2250 C.3   199  ARG199      0.2205
     52  NE        20.8740   -8.1510   10.0740 N.pl3 199  ARG199     -0.0865
     53  CZ        21.0710   -8.7250    8.8880 C.cat 199  ARG199      0.5346
     54  NH1       20.7570   -9.9870    8.6770 N.pl3 199  ARG199      0.1354
     55  NH2       21.5760   -8.0140    7.8970 N.pl3 199  ARG199      0.1354
     56  N         16.5870  -10.3700   14.9920 N.am  200  PHE200     -0.1976
     57  CA        16.0160  -11.5240   15.6580 C.3   200  PHE200      0.1639
     58  C         14.5210  -11.4090   15.4990 C.2   200  PHE200      0.2290
     59  O         13.9730  -10.3030   15.4750 O.2   200  PHE200     -0.2864
     60  CB        16.3410  -11.5660   17.1480 C.3   200  PHE200      0.0560
     61  CG        17.7510  -11.9200   17.4410 C.ar  200  PHE200     -0.0200
     62  CD1       18.1220  -13.2410   17.5950 C.ar  200  PHE200     -0.0042
     63  CD2       18.7100  -10.9330   17.5740 C.ar  200  PHE200     -0.0042
     64  CE1       19.4340  -13.5690   17.8650 C.ar  200  PHE200     -0.0003
     65  CE2       20.0090  -11.2620   17.8570 C.ar  200  PHE200     -0.0003
     66  CZ        20.3680  -12.5850   18.0080 C.ar  200  PHE200     -0.0000
     67  N         26.8990   -6.8210   15.0320 N.3   247  HIS247     -0.1241
     68  CA        26.9350   -7.9190   15.9780 C.3   247  HIS247      0.1621
     69  C         27.4400   -9.1330   15.2220 C.2   247  HIS247      0.2264
     70  O         26.9910   -9.3980   14.1080 O.2   247  HIS247     -0.2867
     71  CB        25.5130   -8.1770   16.4950 C.3   247  HIS247      0.0745
     72  CG        25.3510   -9.4330   17.2880 C.ar  247  HIS247      0.0817
     73  ND1       24.2050  -10.1900   17.2130 N.ar  247  HIS247     -0.2268
     74  CD2       26.1410  -10.0300   18.2080 C.ar  247  HIS247      0.1154
     75  CE1       24.3180  -11.2290   18.0210 C.ar  247  HIS247      0.1986
     76  NE2       25.4740  -11.1460   18.6480 N.ar  247  HIS247     -0.2212
     77  N         21.9650  -13.9600   21.4540 N.3   252  HIS252     -0.1241
     78  CA        21.9980  -12.5940   21.9550 C.3   252  HIS252      0.1621
     79  C         23.2400  -12.3090   22.7820 C.2   252  HIS252      0.2264
     80  O         23.1650  -11.8300   23.9080 O.2   252  HIS252     -0.2867
     81  CB        20.7470  -12.3270   22.7750 C.3   252  HIS252      0.0745
     82  CG        19.5150  -12.2340   21.9470 C.ar  252  HIS252      0.0817
     83  ND1       19.0670  -11.0450   21.4240 N.ar  252  HIS252     -0.2268
     84  CD2       18.6630  -13.1900   21.5110 C.ar  252  HIS252      0.1154
     85  CE1       17.9680  -11.2650   20.7280 C.ar  252  HIS252      0.1986
     86  NE2       17.7040  -12.5580   20.7620 N.ar  252  HIS252     -0.2212
     87  N         30.5350   -7.2440   19.5510 N.3   256  TYR256     -0.1241
     88  CA        29.8670   -6.0300   19.0820 C.3   256  TYR256      0.1605
     89  C         30.9130   -5.0000   18.6960 C.2   256  TYR256      0.2264
     90  O         31.8290   -4.7230   19.4720 O.2   256  TYR256     -0.2867
     91  CB        28.9510   -5.4630   20.1900 C.3   256  TYR256      0.0534
     92  CG        27.8550   -6.4420   20.5110 C.ar  256  TYR256     -0.0201
     93  CD1       28.1080   -7.5410   21.3320 C.ar  256  TYR256     -0.0009
     94  CD2       26.5960   -6.3200   19.9460 C.ar  256  TYR256     -0.0009
     95  CE1       27.1470   -8.4820   21.5960 C.ar  256  TYR256      0.0417
     96  CE2       25.6010   -7.2770   20.2030 C.ar  256  TYR256      0.0417
     97  CZ        25.8920   -8.3560   21.0380 C.ar  256  TYR256      0.1957
     98  OH        24.9290   -9.3130   21.3120 O.3   256  TYR256     -0.2866
     99  N         22.8790   -4.4350   12.8530 N.3   305  TYR305     -0.1241
    100  CA        21.5740   -4.4180   13.5140 C.3   305  TYR305      0.1605
    101  C         21.0560   -3.0090   13.8040 C.2   305  TYR305      0.2264
    102  O         19.9060   -2.8740   14.2230 O.2   305  TYR305     -0.2867
    103  CB        21.5900   -5.2700   14.8080 C.3   305  TYR305      0.0534
    104  CG        22.4900   -4.6910   15.8680 C.ar  305  TYR305     -0.0201
    105  CD1       23.8330   -5.0080   15.8950 C.ar  305  TYR305     -0.0009
    106  CD2       22.0090   -3.8220   16.8430 C.ar  305  TYR305     -0.0009
    107  CE1       24.6870   -4.4640   16.8320 C.ar  305  TYR305      0.0417
    108  CE2       22.8660   -3.2840   17.7820 C.ar  305  TYR305      0.0417
    109  CZ        24.1830   -3.6100   17.7630 C.ar  305  TYR305      0.1957
    110  OH        24.9820   -3.0270   18.7130 O.3   305  TYR305     -0.2866
@<TRIPOS>BOND
     1    55    53    1
     2    54    53    1
     3    53    52    2
     4    43    42    1
     5    44    42    1
     6    52    51    1
     7    42    41    1
     8    41    38    1
     9    51    50    1
    10    38    39    1
    11    38    37    1
    12    50    49    1
    13    31    30    2
    14    39    40    2
    15    99   100    1
    16    37    30   am
    17    30    29    1
    18    46    49    1
    19    46    45    1
    20    46    47    1
    21    28    29    1
    22   100   101    1
    23   100   103    1
    24   101   102    2
    25    48    47    2
    26    47    56   am
    27    29    32    1
    28    70    69    2
    29   103   104    1
    30    56    57    1
    31    67    68    1
    32    69    68    1
    33    32    33    1
    34    59    58    2
    35    58    57    1
    36    57    60    1
    37   104   105   ar
    38   104   106   ar
    39   105   107   ar
    40    68    71    1
    41    33    34    1
    42    71    72    1
    43   107   109   ar
    44   106   108   ar
    45    60    61    1
    46    73    72   ar
    47    73    75   ar
    48    72    74   ar
    49    61    63   ar
    50    61    62   ar
    51    34    35    2
    52    34    36   am
    53    63    65   ar
    54    62    64   ar
    55   109   108   ar
    56   109   110    1
    57    65    66   ar
    58    64    66   ar
    59    75    76   ar
    60    74    76   ar
    61    89    88    1
    62    89    90    2
    63    88    87    1
    64    88    91    1
    65    26    25    1
    66    94    96   ar
    67    94    92   ar
    68    91    92    1
    69    96    97   ar
    70    92    93   ar
    71    85    86   ar
    72    85    83   ar
    73    86    84   ar
    74    25    27    1
    75    25    22    1
    76    20    18   ar
    77    97    98    1
    78    97    95   ar
    79    93    95   ar
    80    83    82   ar
    81    77    78    1
    82    84    82   ar
    83    18    17    1
    84    18    19   ar
    85     5     2    1
    86     5     6    1
    87    17    14    1
    88    82    81    1
    89    78    81    1
    90    78    79    1
    91    22    23    1
    92    22    21    1
    93    23    24    2
    94    21    15   am
    95     4     3    2
    96     2     3    1
    97     2     1    1
    98    79    80    2
    99     6     8   ar
   100     6     7   ar
   101     8    10   ar
   102    15    14    1
   103    15    16    2
   104    14    13    1
   105     7     9   ar
   106    10    11   ar
   107     9    11   ar
   108    11    12    1
