@<TRIPOS>MOLECULE
tmp/5kyeA00.pdb
 82 79 0 0 0
SMALL
GASTEIGER

@<TRIPOS>ATOM
      1  N         37.6920   12.3100   19.1030 N.3    46  LYS46      -0.1245
      2  CA        38.3750   13.5650   18.8260 C.3    46  LYS46       0.1561
      3  C         38.4380   13.8820   17.3400 C.2    46  LYS46       0.2260
      4  O         38.6220   15.0490   16.9710 O.2    46  LYS46      -0.2867
      5  CB        39.7960   13.5390   19.4140 C.3    46  LYS46       0.0271
      6  CG        40.6180   14.8110   19.1870 C.3    46  LYS46       0.0035
      7  CD        39.9590   16.0430   19.8000 C.3    46  LYS46       0.0206
      8  CE        40.3150   17.3110   19.0310 C.3    46  LYS46       0.1093
      9  NZ        39.6060   17.3910   17.7210 N.3    46  LYS46      -0.1314
     10  N         37.2850   14.7180   13.8040 N.3    48  VAL48      -0.1245
     11  CA        36.1940   15.2160   12.9600 C.3    48  VAL48       0.1561
     12  C         36.0500   14.3610   11.6990 C.2    48  VAL48       0.2260
     13  O         34.9110   14.0610   11.3040 O.2    48  VAL48      -0.2867
     14  CB        36.3700   16.6970   12.6650 C.3    48  VAL48       0.0252
     15  CG1       35.4600   17.1310   11.5300 C.3    48  VAL48       0.0019
     16  CG2       36.0620   17.5030   13.8970 C.3    48  VAL48       0.0019
     17  N         33.4780   15.5890   18.6820 N.3    74  SER74      -0.1202
     18  CA        34.7100   15.8150   17.9310 C.3    74  SER74       0.2020
     19  C         34.9650   17.3010   17.6650 C.2    74  SER74       0.2619
     20  O         36.1200   17.7060   17.5020 O.2    74  SER74      -0.2717
     21  CB        34.6580   15.0340   16.6160 C.3    74  SER74       0.2103
     22  OG        33.8000   15.6740   15.6860 O.3    74  SER74      -0.2182
     23  N         33.9120   18.1320   17.6320 N.am   75  PHE75      -0.1961
     24  CA        34.1050   19.5790   17.5410 C.3    75  PHE75       0.1771
     25  C         34.6370   20.1940   18.8320 C.2    75  PHE75       0.2620
     26  O         34.9360   21.3900   18.8430 O.2    75  PHE75      -0.2715
     27  CB        32.7970   20.2930   17.2020 C.3    75  PHE75       0.0574
     28  CG        32.2480   19.9870   15.8410 C.ar   75  PHE75      -0.0200
     29  CD1       33.0430   19.4540   14.8480 C.ar   75  PHE75      -0.0042
     30  CD2       30.9140   20.2700   15.5530 C.ar   75  PHE75      -0.0042
     31  CE1       32.5150   19.1890   13.5880 C.ar   75  PHE75      -0.0003
     32  CE2       30.3800   20.0130   14.3050 C.ar   75  PHE75      -0.0003
     33  CZ        31.1840   19.4670   13.3190 C.ar   75  PHE75      -0.0000
     34  N         34.7320   19.4210   19.9160 N.am   76  GLY76      -0.1940
     35  CA        35.0150   19.9680   21.2310 C.3    76  GLY76       0.2014
     36  C         33.8110   20.5260   21.9660 C.2    76  GLY76       0.2638
     37  O         33.9800   21.1780   23.0050 O.2    76  GLY76      -0.2714
     38  N         32.6010   20.2990   21.4680 N.am   77  TRP77      -0.1973
     39  CA        31.4230   20.8740   22.0990 C.3    77  TRP77       0.1640
     40  C         30.9600   20.0160   23.2810 C.2    77  TRP77       0.2290
     41  O         31.2580   18.8210   23.3860 O.2    77  TRP77      -0.2864
     42  CB        30.2770   21.0180   21.0930 C.3    77  TRP77       0.0576
     43  CG        30.5650   21.9560   19.9500 C.ar   77  TRP77       0.0006
     44  CD1       31.6980   22.6940   19.7540 C.ar   77  TRP77       0.0946
     45  CD2       29.7030   22.2510   18.8480 C.ar   77  TRP77       0.0152
     46  NE1       31.5910   23.4300   18.6020 N.ar   77  TRP77      -0.2442
     47  CE2       30.3770   23.1720   18.0230 C.ar   77  TRP77       0.0810
     48  CE3       28.4260   21.8250   18.4760 C.ar   77  TRP77       0.0012
     49  CZ2       29.8150   23.6750   16.8530 C.ar   77  TRP77       0.0191
     50  CZ3       27.8730   22.3220   17.3080 C.ar   77  TRP77       0.0001
     51  CH2       28.5650   23.2370   16.5150 C.ar   77  TRP77       0.0015
     52  N         28.8360   27.5300    9.6450 N.3    91  LEU91      -0.1245
     53  CA        29.2710   26.1620    9.8850 C.3    91  LEU91       0.1561
     54  C         29.8550   25.5500    8.6150 C.2    91  LEU91       0.2260
     55  O         30.8890   24.8690    8.6600 O.2    91  LEU91      -0.2867
     56  CB        28.1100   25.3260   10.4120 C.3    91  LEU91       0.0270
     57  CG        28.5220   23.8760   10.6260 C.3    91  LEU91       0.0019
     58  CD1       29.4820   23.8260   11.7860 C.3    91  LEU91       0.0001
     59  CD2       27.2950   22.9930   10.8690 C.3    91  LEU91       0.0001
     60  N         33.4600   26.8460    8.1650 N.3    94  VAL94      -0.1231
     61  CA        34.3620   26.3030    9.1780 C.3    94  VAL94       0.1692
     62  C         34.5770   24.8150    8.9620 C.2    94  VAL94       0.2591
     63  O         35.7050   24.3200    9.0560 O.2    94  VAL94      -0.2718
     64  CB        33.8020   26.5710   10.5940 C.3    94  VAL94       0.0266
     65  CG1       34.6670   25.8650   11.6440 C.3    94  VAL94       0.0020
     66  CG2       33.7140   28.0500   10.8640 C.3    94  VAL94       0.0020
     67  N         33.4970   24.0720    8.7040 N.am   95  LEU95      -0.1980
     68  CA        33.6100   22.6160    8.6000 C.3    95  LEU95       0.1596
     69  C         34.4060   22.2150    7.3670 C.2    95  LEU95       0.2287
     70  O         35.2900   21.3520    7.4370 O.2    95  LEU95      -0.2864
     71  CB        32.2210   21.9640    8.5670 C.3    95  LEU95       0.0297
     72  CG        32.2020   20.4230    8.4500 C.3    95  LEU95       0.0022
     73  CD1       32.9640   19.7410    9.5890 C.3    95  LEU95       0.0001
     74  CD2       30.7800   19.8840    8.4010 C.3    95  LEU95       0.0001
     75  N         38.0200   22.8230    7.7560 N.3    98  ASN98      -0.1240
     76  CA        38.6240   21.8250    8.6300 C.3    98  ASN98       0.1653
     77  C         38.8710   20.5170    7.8810 C.2    98  ASN98       0.2266
     78  O         39.9560   19.9330    7.9660 O.2    98  ASN98      -0.2867
     79  CB        37.7270   21.6000    9.8480 C.3    98  ASN98       0.1155
     80  CG        38.3940   20.7510   10.9140 C.2    98  ASN98       0.2627
     81  OD1       37.8270   19.7840   11.3900 O.2    98  ASN98      -0.2716
     82  ND2       39.6180   21.1040   11.2700 N.am   98  ASN98      -0.0877
@<TRIPOS>BOND
     1    69    70    2
     2    69    68    1
     3    75    76    1
     4    77    78    2
     5    77    76    1
     6    60    61    1
     7    74    72    1
     8    72    71    1
     9    72    73    1
    10    71    68    1
    11    68    67    1
    12    54    55    2
    13    54    53    1
    14    76    79    1
    15    67    62   am
    16    62    63    2
    17    62    61    1
    18    61    64    1
    19    52    53    1
    20    79    80    1
    21    53    56    1
    22    56    57    1
    23    64    66    1
    24    64    65    1
    25    57    59    1
    26    57    58    1
    27    80    82   am
    28    80    81    2
    29    13    12    2
    30    15    14    1
    31    12    11    1
    32    14    11    1
    33    14    16    1
    34    11    10    1
    35    33    31   ar
    36    33    32   ar
    37    31    29   ar
    38    32    30   ar
    39    29    28   ar
    40    30    28   ar
    41    22    21    1
    42    28    27    1
    43    51    49   ar
    44    51    50   ar
    45    21    18    1
    46    49    47   ar
    47     4     3    2
    48    27    24    1
    49    50    48   ar
    50     3     2    1
    51    20    19    2
    52    24    23    1
    53    24    25    1
    54    23    19   am
    55    19    18    1
    56     9     8    1
    57    18    17    1
    58    47    46   ar
    59    47    45   ar
    60    48    45   ar
    61    46    44   ar
    62     2     1    1
    63     2     5    1
    64    25    26    2
    65    25    34   am
    66    45    43   ar
    67     8     7    1
    68     6     5    1
    69     6     7    1
    70    44    43   ar
    71    34    35    1
    72    43    42    1
    73    42    39    1
    74    35    36    1
    75    38    36   am
    76    38    39    1
    77    36    37    2
    78    39    40    1
    79    40    41    2
