@<TRIPOS>MOLECULE
tmp/5kyjA00.pdb
 248 234 0 0 0
SMALL
GASTEIGER

@<TRIPOS>ATOM
      1  N         15.7370   46.1720  -32.7160 N.3    25  SER25      -0.1217
      2  CA        15.0320   45.1650  -31.9370 C.3    25  SER25       0.1889
      3  C         14.6730   43.9400  -32.7770 C.2    25  SER25       0.2288
      4  O         14.6670   42.8390  -32.2470 O.2    25  SER25      -0.2866
      5  CB        13.7780   45.7700  -31.2990 C.3    25  SER25       0.2089
      6  OG        14.1290   46.7540  -30.3350 O.3    25  SER25      -0.2183
      7  N          6.8500   31.8490  -20.5060 N.3    51  PHE51      -0.1241
      8  CA         7.1470   32.9440  -19.6100 C.3    51  PHE51       0.1605
      9  C          8.5260   33.5430  -19.8660 C.2    51  PHE51       0.2264
     10  O          8.6950   34.7470  -19.7470 O.2    51  PHE51      -0.2867
     11  CB         7.0560   32.4860  -18.1650 C.3    51  PHE51       0.0534
     12  CG         7.4030   33.5530  -17.1810 C.ar   51  PHE51      -0.0203
     13  CD1        6.4190   34.4060  -16.6810 C.ar   51  PHE51      -0.0042
     14  CD2        8.7090   33.7290  -16.7720 C.ar   51  PHE51      -0.0042
     15  CE1        6.7300   35.3920  -15.7630 C.ar   51  PHE51      -0.0003
     16  CE2        9.0290   34.7130  -15.8550 C.ar   51  PHE51      -0.0003
     17  CZ         8.0450   35.5440  -15.3520 C.ar   51  PHE51      -0.0000
     18  N          8.2180   35.7130  -23.2220 N.3    54  PHE54      -0.1227
     19  CA         7.5760   37.0170  -22.9720 C.3    54  PHE54       0.1736
     20  C          8.5170   37.9660  -22.2660 C.2    54  PHE54       0.2596
     21  O          8.6520   39.1400  -22.6070 O.2    54  PHE54      -0.2718
     22  CB         6.2910   36.8490  -22.1500 C.3    54  PHE54       0.0547
     23  CG         5.0590   37.0130  -22.9660 C.ar   54  PHE54      -0.0202
     24  CD1        4.9090   36.3130  -24.1490 C.ar   54  PHE54      -0.0042
     25  CD2        4.0720   37.8940  -22.5820 C.ar   54  PHE54      -0.0042
     26  CE1        3.7830   36.4880  -24.9310 C.ar   54  PHE54      -0.0003
     27  CE2        2.9400   38.0790  -23.3550 C.ar   54  PHE54      -0.0003
     28  CZ         2.7910   37.3730  -24.5300 C.ar   54  PHE54      -0.0000
     29  N          9.1730   37.4270  -21.2780 N.am   55  THR55      -0.1953
     30  CA        10.0730   38.1860  -20.5090 C.3    55  THR55       0.1897
     31  C         11.2400   38.7040  -21.3530 C.2    55  THR55       0.2313
     32  O         11.7430   39.8060  -21.1350 O.2    55  THR55      -0.2863
     33  CB        10.5110   37.2840  -19.3670 C.3    55  THR55       0.1794
     34  OG1        9.6670   37.5570  -18.2350 O.3    55  THR55      -0.2208
     35  CG2       11.9350   37.4790  -19.0240 C.3    55  THR55       0.0378
     36  N         11.0730   39.3740  -24.4810 N.3    57  LEU57      -0.1231
     37  CA        10.4900   40.4240  -25.2720 C.3    57  LEU57       0.1693
     38  C         10.4720   41.7490  -24.5130 C.2    57  LEU57       0.2591
     39  O         10.8590   42.7870  -25.0400 O.2    57  LEU57      -0.2718
     40  CB         9.0840   40.0290  -25.7100 C.3    57  LEU57       0.0284
     41  CG         9.0450   38.8860  -26.7110 C.3    57  LEU57       0.0019
     42  CD1        7.6310   38.7710  -27.2530 C.3    57  LEU57       0.0001
     43  CD2       10.0220   39.0900  -27.8610 C.3    57  LEU57       0.0001
     44  N         10.0340   41.7140  -23.2720 N.am   58  ALA58      -0.1980
     45  CA        10.0220   42.9110  -22.4680 C.3    58  ALA58       0.1597
     46  C         11.4080   43.5030  -22.4480 C.2    58  ALA58       0.2287
     47  O         11.5740   44.7030  -22.6260 O.2    58  ALA58      -0.2864
     48  CB         9.5710   42.5830  -21.0570 C.3    58  ALA58       0.0319
     49  N         13.8480   43.3320  -24.4780 N.3    60  ILE60      -0.1231
     50  CA        14.1420   44.0140  -25.7060 C.3    60  ILE60       0.1692
     51  C         13.4330   45.3900  -25.7270 C.2    60  ILE60       0.2592
     52  O         13.9960   46.3690  -26.1900 O.2    60  ILE60      -0.2718
     53  CB        13.7360   43.1430  -26.8980 C.3    60  ILE60       0.0266
     54  CG1       14.7010   41.9830  -26.9930 C.3    60  ILE60       0.0019
     55  CG2       13.7420   43.9400  -28.1920 C.3    60  ILE60       0.0020
     56  CD1       14.2190   40.8970  -27.9210 C.3    60  ILE60       0.0001
     57  N         12.1960   45.4530  -25.2390 N.am   61  SER61      -0.1952
     58  CA        11.5020   46.7250  -25.1580 C.3    61  SER61       0.1924
     59  C         12.2640   47.7160  -24.2960 C.2    61  SER61       0.2314
     60  O         12.4220   48.8650  -24.6500 O.2    61  SER61      -0.2863
     61  CB        10.0790   46.5640  -24.6160 C.3    61  SER61       0.2116
     62  OG         9.3700   47.7730  -24.8350 O.3    61  SER61      -0.2180
     63  N         15.0610   49.0310  -26.2170 N.3    64  GLU64      -0.1245
     64  CA        14.5630   49.8780  -27.2960 C.3    64  GLU64       0.1567
     65  C         14.2120   51.2510  -26.7190 C.2    64  GLU64       0.2260
     66  O         14.5830   52.2890  -27.2600 O.2    64  GLU64      -0.2867
     67  CB        13.3630   49.1650  -27.9130 C.3    64  GLU64       0.0388
     68  CG        12.7400   49.7510  -29.1550 C.3    64  GLU64       0.1160
     69  CD        11.5140   48.9520  -29.6050 C.2    64  GLU64       0.3649
     70  OE1       11.6400   47.7090  -29.7390 O.co2  64  GLU64      -0.2457
     71  OE2       10.4330   49.5630  -29.8310 O.co2  64  GLU64      -0.2457
     72  N          7.1150   50.8120  -18.0000 N.3    92  ILE92      -0.1245
     73  CA         5.8760   50.0880  -18.1600 C.3    92  ILE92       0.1561
     74  C          4.8480   50.8720  -18.9930 C.2    92  ILE92       0.2260
     75  O          4.0680   50.2880  -19.7460 O.2    92  ILE92      -0.2867
     76  CB         5.2860   49.6580  -16.7930 C.3    92  ILE92       0.0252
     77  CG1        4.0120   48.8370  -16.9730 C.3    92  ILE92       0.0019
     78  CG2        4.9770   50.8550  -15.9510 C.3    92  ILE92       0.0019
     79  CD1        4.1980   47.6130  -17.8600 C.3    92  ILE92       0.0001
     80  N          6.0360   50.7990  -22.6260 N.3    95  MET95      -0.1230
     81  CA         5.7200   49.4280  -23.0010 C.3    95  MET95       0.1702
     82  C          4.2460   49.2420  -23.3680 C.2    95  MET95       0.2592
     83  O          3.9190   48.5800  -24.3630 O.2    95  MET95      -0.2718
     84  CB         6.0810   48.4790  -21.8760 C.3    95  MET95       0.0401
     85  CG         7.5300   48.0320  -21.9570 C.3    95  MET95       0.0596
     86  SD         8.1150   47.0200  -20.5810 S.3    95  MET95      -0.1393
     87  CE         6.6340   46.1570  -20.1970 C.3    95  MET95       0.0692
     88  N          3.3640   49.8520  -22.5850 N.am   96  LEU96      -0.1980
     89  CA         1.9420   49.7550  -22.8430 C.3    96  LEU96       0.1596
     90  C          1.4970   50.5840  -24.0220 C.2    96  LEU96       0.2287
     91  O          0.5980   50.1740  -24.7520 O.2    96  LEU96      -0.2864
     92  CB         1.1390   50.1360  -21.6120 C.3    96  LEU96       0.0297
     93  CG         1.1960   49.1330  -20.4650 C.3    96  LEU96       0.0022
     94  CD1        0.6580   49.7420  -19.1850 C.3    96  LEU96       0.0001
     95  CD2        0.3790   47.9070  -20.7870 C.3    96  LEU96       0.0001
     96  N          3.4670   51.0660  -26.6370 N.3    98  GLU98      -0.1231
     97  CA         3.9790   50.3390  -27.7700 C.3    98  GLU98       0.1699
     98  C          3.1040   49.1630  -28.0440 C.2    98  GLU98       0.2592
     99  O          2.7160   48.9110  -29.1780 O.2    98  GLU98      -0.2718
    100  CB         5.4150   49.8920  -27.5430 C.3    98  GLU98       0.0402
    101  CG         6.4410   50.9950  -27.8020 C.3    98  GLU98       0.1161
    102  CD         6.5230   51.4860  -29.2440 C.2    98  GLU98       0.3649
    103  OE1        5.9960   50.8190  -30.1720 O.co2  98  GLU98      -0.2457
    104  OE2        7.1350   52.5600  -29.4380 O.co2  98  GLU98      -0.2457
    105  N          2.7560   48.4480  -26.9980 N.am   99  THR99      -0.1953
    106  CA         1.8200   47.3300  -27.1350 C.3    99  THR99       0.1897
    107  C          0.5460   47.6750  -27.9050 C.2    99  THR99       0.2313
    108  O          0.1240   46.9490  -28.8040 O.2    99  THR99      -0.2863
    109  CB         1.4450   46.8070  -25.7460 C.3    99  THR99       0.1794
    110  OG1        2.6410   46.3420  -25.0990 O.3    99  THR99      -0.2208
    111  CG2        0.4540   45.6920  -25.8530 C.3    99  THR99       0.0378
    112  N          0.9360   48.1130  -31.5400 N.3   102  ARG102     -0.1245
    113  CA         1.0760   46.8560  -32.2330 C.3   102  ARG102      0.1563
    114  C         -0.1780   45.9820  -32.1260 C.2   102  ARG102      0.2260
    115  O         -0.1290   44.7670  -32.2900 O.2   102  ARG102     -0.2867
    116  CB         2.2540   46.1180  -31.6310 C.3   102  ARG102      0.0307
    117  CG         3.5990   46.8330  -31.6950 C.3   102  ARG102      0.0489
    118  CD         4.6720   45.9700  -31.0520 C.3   102  ARG102      0.2205
    119  NE         5.9090   45.9060  -31.8300 N.pl3 102  ARG102     -0.0865
    120  CZ         6.8210   46.8680  -31.8440 C.cat 102  ARG102      0.5346
    121  NH1        6.6360   47.9880  -31.1370 N.pl3 102  ARG102      0.1354
    122  NH2        7.9160   46.7240  -32.5760 N.pl3 102  ARG102      0.1354
    123  N          4.4650   41.3660  -31.6530 N.3   112  PHE112     -0.1227
    124  CA         5.7440   41.8010  -31.1100 C.3   112  PHE112      0.1736
    125  C          6.8590   41.4740  -32.0830 C.2   112  PHE112      0.2595
    126  O          6.8230   40.4520  -32.7370 O.2   112  PHE112     -0.2718
    127  CB         6.0370   41.1210  -29.7770 C.3   112  PHE112      0.0547
    128  CG         5.1680   41.5790  -28.6500 C.ar  112  PHE112     -0.0202
    129  CD1        4.9540   42.9240  -28.4120 C.ar  112  PHE112     -0.0042
    130  CD2        4.5960   40.6530  -27.7870 C.ar  112  PHE112     -0.0042
    131  CE1        4.1640   43.3370  -27.3510 C.ar  112  PHE112     -0.0003
    132  CE2        3.8150   41.0640  -26.7260 C.ar  112  PHE112     -0.0003
    133  CZ         3.5960   42.4090  -26.5160 C.ar  112  PHE112     -0.0000
    134  N          7.8570   42.3480  -32.1290 N.am  113  LEU113     -0.1980
    135  CA         8.9340   42.2830  -33.1040 C.3   113  LEU113      0.1596
    136  C          8.3030   42.3230  -34.4810 C.2   113  LEU113      0.2287
    137  O          7.4400   43.1680  -34.7120 O.2   113  LEU113     -0.2864
    138  CB         9.8330   41.0630  -32.8630 C.3   113  LEU113      0.0297
    139  CG        10.4620   41.0300  -31.4630 C.3   113  LEU113      0.0022
    140  CD1       11.3420   39.7990  -31.2850 C.3   113  LEU113      0.0001
    141  CD2       11.2530   42.3020  -31.1750 C.3   113  LEU113      0.0001
    142  N         -1.3070   35.4180  -23.7850 N.3   123  PHE123     -0.1241
    143  CA        -0.8080   36.2200  -22.6900 C.3   123  PHE123      0.1605
    144  C         -1.0310   35.4710  -21.4040 C.2   123  PHE123      0.2264
    145  O         -0.1770   35.4770  -20.5220 O.2   123  PHE123     -0.2867
    146  CB        -1.5320   37.5610  -22.6040 C.3   123  PHE123      0.0534
    147  CG        -0.9180   38.6450  -23.4240 C.ar  123  PHE123     -0.0203
    148  CD1       -0.9680   38.6030  -24.7950 C.ar  123  PHE123     -0.0042
    149  CD2       -0.3420   39.7420  -22.8180 C.ar  123  PHE123     -0.0042
    150  CE1       -0.4460   39.6240  -25.5490 C.ar  123  PHE123     -0.0003
    151  CE2        0.1950   40.7670  -23.5650 C.ar  123  PHE123     -0.0003
    152  CZ         0.1390   40.7090  -24.9330 C.ar  123  PHE123     -0.0000
    153  N          1.3790   32.6040  -21.0660 N.3   126  ALA126     -0.1245
    154  CA         2.7360   33.0720  -20.7770 C.3   126  ALA126      0.1562
    155  C          2.8960   33.5160  -19.3430 C.2   126  ALA126      0.2260
    156  O          3.9610   33.9990  -18.9800 O.2   126  ALA126     -0.2867
    157  CB         3.1240   34.1990  -21.7230 C.3   126  ALA126      0.0290
    158  N          0.7870   35.7460  -17.3630 N.3   128  LEU128     -0.1245
    159  CA         0.1480   36.9570  -16.8980 C.3   128  LEU128      0.1561
    160  C         -1.2910   36.6690  -16.5370 C.2   128  LEU128      0.2260
    161  O         -1.8870   35.7540  -17.0740 O.2   128  LEU128     -0.2867
    162  CB         0.2130   38.0330  -17.9750 C.3   128  LEU128      0.0270
    163  CG         1.6440   38.3640  -18.4180 C.3   128  LEU128      0.0019
    164  CD1        1.6030   39.4490  -19.4670 C.3   128  LEU128      0.0001
    165  CD2        2.5220   38.8020  -17.2580 C.3   128  LEU128      0.0001
    166  N         -4.6720   41.7980  -15.2630 N.3   132  PHE132     -0.1241
    167  CA        -3.7310   42.6120  -16.0290 C.3   132  PHE132      0.1605
    168  C         -3.9990   42.5740  -17.5450 C.2   132  PHE132      0.2264
    169  O         -3.9410   43.6080  -18.2280 O.2   132  PHE132     -0.2867
    170  CB        -2.3050   42.1060  -15.7700 C.3   132  PHE132      0.0534
    171  CG        -1.2140   42.9770  -16.3540 C.ar  132  PHE132     -0.0203
    172  CD1       -1.3690   44.3570  -16.4980 C.ar  132  PHE132     -0.0042
    173  CD2       -0.0110   42.4090  -16.7360 C.ar  132  PHE132     -0.0042
    174  CE1       -0.3480   45.1310  -17.0100 C.ar  132  PHE132     -0.0003
    175  CE2        1.0160   43.1820  -17.2420 C.ar  132  PHE132     -0.0003
    176  CZ         0.8510   44.5420  -17.3810 C.ar  132  PHE132     -0.0000
    177  N         -4.9140   45.7110  -20.3850 N.3   136  ILE136     -0.1245
    178  CA        -3.9850   45.9260  -21.4970 C.3   136  ILE136      0.1561
    179  C         -4.7270   45.9970  -22.8340 C.2   136  ILE136      0.2260
    180  O         -4.4540   46.8560  -23.6630 O.2   136  ILE136     -0.2867
    181  CB        -2.9160   44.8140  -21.5750 C.3   136  ILE136      0.0252
    182  CG1       -1.9330   44.9430  -20.4250 C.3   136  ILE136      0.0019
    183  CG2       -2.1590   44.8890  -22.9020 C.3   136  ILE136      0.0019
    184  CD1       -1.0190   43.7440  -20.2570 C.3   136  ILE136      0.0001
    185  N         -0.2080   47.0320  -13.1470 N.3   218  HIS218     -0.1241
    186  CA         0.9940   46.2640  -13.3940 C.3   218  HIS218      0.1621
    187  C          1.7560   45.9010  -12.1160 C.2   218  HIS218      0.2264
    188  O          2.3850   44.8570  -12.0620 O.2   218  HIS218     -0.2867
    189  CB         1.8800   47.0410  -14.3540 C.3   218  HIS218      0.0745
    190  CG         3.2620   46.5090  -14.4650 C.ar  218  HIS218      0.0817
    191  ND1        4.3360   47.1200  -13.8600 N.ar  218  HIS218     -0.2268
    192  CD2        3.7520   45.4350  -15.1210 C.ar  218  HIS218      0.1154
    193  CE1        5.4330   46.4430  -14.1380 C.ar  218  HIS218      0.1986
    194  NE2        5.1090   45.4190  -14.9050 N.ar  218  HIS218     -0.2212
    195  N          0.2180   42.9020  -10.9000 N.3   221  GLN221     -0.1231
    196  CA         0.7470   41.7550  -11.6340 C.3   221  GLN221      0.1698
    197  C          2.0640   41.2710  -11.0520 C.2   221  GLN221      0.2592
    198  O          2.2620   40.0650  -10.8920 O.2   221  GLN221     -0.2718
    199  CB         0.9140   42.0750  -13.1330 C.3   221  GLN221      0.0381
    200  CG         1.5140   40.9460  -13.9790 C.3   221  GLN221      0.0905
    201  CD         0.6540   39.7070  -14.0140 C.2   221  GLN221      0.2608
    202  OE1       -0.2600   39.5880  -14.8230 O.2   221  GLN221     -0.2717
    203  NE2        0.9200   38.7870  -13.1060 N.am  221  GLN221     -0.0878
    204  N          2.9540   42.1850  -10.7070 N.am  222  VAL222     -0.1980
    205  CA         4.1850   41.7850  -10.0310 C.3   222  VAL222      0.1595
    206  C          3.9410   41.1000   -8.6780 C.2   222  VAL222      0.2287
    207  O          4.6250   40.1480   -8.3260 O.2   222  VAL222     -0.2864
    208  CB         5.1220   42.9710   -9.8100 C.3   222  VAL222      0.0276
    209  CG1        6.3620   42.5150   -9.0740 C.3   222  VAL222      0.0022
    210  CG2        5.5240   43.5570  -11.1580 C.3   222  VAL222      0.0022
    211  N          3.1340   37.4890   -9.3230 N.3   225  LEU225     -0.1245
    212  CA         4.2520   36.7000   -9.8330 C.3   225  LEU225      0.1561
    213  C          5.0860   36.1300   -8.6970 C.2   225  LEU225      0.2260
    214  O          5.6360   35.0270   -8.8070 O.2   225  LEU225     -0.2867
    215  CB         5.1770   37.5430  -10.7350 C.3   225  LEU225      0.0270
    216  CG         4.6460   37.9770  -12.1090 C.3   225  LEU225      0.0019
    217  CD1        5.7630   38.6250  -12.9080 C.3   225  LEU225      0.0001
    218  CD2        4.0290   36.8290  -12.8920 C.3   225  LEU225      0.0001
    219  N         11.5710   37.0270  -12.3240 N.3   232  LEU232     -0.1245
    220  CA        11.8550   37.8570  -13.4870 C.3   232  LEU232      0.1561
    221  C         13.3530   37.9560  -13.6270 C.2   232  LEU232      0.2260
    222  O         14.0670   37.9010  -12.6520 O.2   232  LEU232     -0.2867
    223  CB        11.2940   39.2810  -13.3150 C.3   232  LEU232      0.0270
    224  CG         9.7840   39.5740  -13.2180 C.3   232  LEU232      0.0019
    225  CD1        9.5520   41.0570  -12.9030 C.3   232  LEU232      0.0001
    226  CD2        9.1350   39.2480  -14.5420 C.3   232  LEU232      0.0001
    227  N         14.5420   43.3140  -15.5350 N.3   236  LEU236     -0.1245
    228  CA        13.1570   43.5790  -15.1360 C.3   236  LEU236      0.1561
    229  C         12.9740   43.6700  -13.6230 C.2   236  LEU236      0.2260
    230  O         12.1290   44.4290  -13.1490 O.2   236  LEU236     -0.2867
    231  CB        12.2170   42.5210  -15.6930 C.3   236  LEU236      0.0270
    232  CG        12.2190   42.3550  -17.2140 C.3   236  LEU236      0.0019
    233  CD1       10.9890   41.5880  -17.6720 C.3   236  LEU236      0.0001
    234  CD2       12.3190   43.6820  -17.9430 C.3   236  LEU236      0.0001
    235  N         11.5850   46.9970  -11.8250 N.3   240  TRP240     -0.1241
    236  CA        10.3080   46.8960  -11.1110 C.3   240  TRP240      0.1605
    237  C         10.4420   46.4170   -9.6290 C.2   240  TRP240      0.2264
    238  O          9.5240   45.7830   -9.0960 O.2   240  TRP240     -0.2867
    239  CB         9.3410   45.9830  -11.9040 C.3   240  TRP240      0.0550
    240  CG         9.0620   46.4480  -13.3350 C.ar  240  TRP240      0.0003
    241  CD1        9.0700   47.7440  -13.7960 C.ar  240  TRP240      0.0946
    242  CD2        8.6970   45.6380  -14.4610 C.ar  240  TRP240      0.0152
    243  NE1        8.7760   47.7790  -15.1370 N.ar  240  TRP240     -0.2442
    244  CE2        8.5360   46.5030  -15.5690 C.ar  240  TRP240      0.0810
    245  CE3        8.4960   44.2690  -14.6440 C.ar  240  TRP240      0.0012
    246  CZ2        8.1930   46.0380  -16.8410 C.ar  240  TRP240      0.0191
    247  CZ3        8.1510   43.8030  -15.9070 C.ar  240  TRP240      0.0001
    248  CH2        8.0060   44.6860  -16.9950 C.ar  240  TRP240      0.0015
@<TRIPOS>BOND
     1   137   136    2
     2   136   135    1
     3   135   138    1
     4   135   134    1
     5   138   139    1
     6     3     4    2
     7     3     2    1
     8   126   125    2
     9     1     2    1
    10   122   120    1
    11   115   114    2
    12   113   114    1
    13   113   116    1
    14   113   112    1
    15   134   125   am
    16   125   124    1
    17     2     5    1
    18   120   119    2
    19   120   121    1
    20   119   118    1
    21   117   116    1
    22   117   118    1
    23   123   124    1
    24   139   140    1
    25   139   141    1
    26     5     6    1
    27   124   127    1
    28   103   102   ar
    29    71    69   ar
    30   127   128    1
    31    70    69   ar
    32    69    68    1
    33   104   102   ar
    34   102   101    1
    35    99    98    2
    36    68    67    1
    37   108   107    2
    38   128   129   ar
    39   128   130   ar
    40   129   131   ar
    41    55    53    1
    42    98    97    1
    43    98   105   am
    44    56    54    1
    45    67    64    1
    46   107   106    1
    47    43    41    1
    48   101   100    1
    49   130   132   ar
    50    97   100    1
    51    97    96    1
    52   131   133   ar
    53    64    65    1
    54    64    63    1
    55    66    65    2
    56    42    41    1
    57   106   105    1
    58   106   109    1
    59    54    53    1
    60    53    50    1
    61   132   133   ar
    62    41    40    1
    63    52    51    2
    64   111   109    1
    65   109   110    1
    66    51    50    1
    67    51    57   am
    68    40    37    1
    69    50    49    1
    70   150   152   ar
    71   150   148   ar
    72    37    38    1
    73    37    36    1
    74    57    58    1
    75    58    61    1
    76    58    59    1
    77    39    38    2
    78   152   151   ar
    79    26    28   ar
    80    26    24   ar
    81    62    61    1
    82   148   147   ar
    83    91    90    2
    84    60    59    2
    85    28    27   ar
    86    38    44   am
    87    83    82    2
    88    24    23   ar
    89    90    89    1
    90   142   143    1
    91   180   179    2
    92   151   149   ar
    93   147   149   ar
    94   147   146    1
    95    82    81    1
    96    82    88   am
    97    27    25   ar
    98    44    45    1
    99    18    19    1
   100    81    80    1
   101    81    84    1
   102    19    20    1
   103    19    22    1
   104    23    25   ar
   105    23    22    1
   106   183   181    1
   107    89    88    1
   108    89    92    1
   109   179   178    1
   110   143   146    1
   111   143   144    1
   112    47    46    2
   113    21    20    2
   114    45    46    1
   115    45    48    1
   116    20    29   am
   117    85    84    1
   118    85    86    1
   119   157   154    1
   120    92    93    1
   121   181   178    1
   122   181   182    1
   123   178   177    1
   124   144   145    2
   125    31    32    2
   126    31    30    1
   127    29    30    1
   128   153   154    1
   129    95    93    1
   130   154   155    1
   131    86    87    1
   132    30    33    1
   133     7     8    1
   134    93    94    1
   135   182   184    1
   136     9    10    2
   137     9     8    1
   138    75    74    2
   139     8    11    1
   140   164   163    1
   141    33    35    1
   142    33    34    1
   143   155   156    2
   144    74    73    1
   145   163   162    1
   146   163   165    1
   147   169   168    2
   148    11    12    1
   149    73    72    1
   150    73    76    1
   151   162   159    1
   152   234   232    1
   153    79    77    1
   154   233   232    1
   155   168   167    1
   156   176   175   ar
   157   176   174   ar
   158   158   159    1
   159   175   173   ar
   160   232   231    1
   161    12    14   ar
   162    12    13   ar
   163   161   160    2
   164   174   172   ar
   165   248   246   ar
   166   248   247   ar
   167    77    76    1
   168   159   160    1
   169   246   244   ar
   170    76    78    1
   171    14    16   ar
   172   173   171   ar
   173    13    15   ar
   174   172   171   ar
   175   171   170    1
   176   167   170    1
   177   167   166    1
   178   247   245   ar
   179    16    17   ar
   180    15    17   ar
   181   231   228    1
   182   244   243   ar
   183   244   242   ar
   184   227   228    1
   185   243   241   ar
   186   228   229    1
   187   192   194   ar
   188   192   190   ar
   189   194   193   ar
   190   202   201    2
   191   245   242   ar
   192   226   224    1
   193   190   189    1
   194   190   191   ar
   195   242   240   ar
   196   189   186    1
   197   193   191   ar
   198   201   200    1
   199   201   203   am
   200   200   199    1
   201   241   240   ar
   202   221   220    1
   203   221   222    2
   204   229   230    2
   205   220   223    1
   206   220   219    1
   207   186   185    1
   208   186   187    1
   209   240   239    1
   210   223   224    1
   211   224   225    1
   212   199   196    1
   213   217   216    1
   214   218   216    1
   215   187   188    2
   216   216   215    1
   217   239   236    1
   218   235   236    1
   219   196   197    1
   220   196   195    1
   221   210   208    1
   222   236   237    1
   223   197   198    2
   224   197   204   am
   225   215   212    1
   226   204   205    1
   227   205   208    1
   228   205   206    1
   229   212   211    1
   230   212   213    1
   231   208   209    1
   232   237   238    2
   233   214   213    2
   234   206   207    2
