@<TRIPOS>MOLECULE
tmp/5kykC00.pdb
 166 161 0 0 0
SMALL
GASTEIGER

@<TRIPOS>ATOM
      1  N          3.5860  -14.2490  118.6070 N.3    13  CYS13      -0.1221
      2  CA         4.9170  -14.7500  118.3030 C.3    13  CYS13       0.1808
      3  C          5.2470  -15.9350  119.2020 C.2    13  CYS13       0.2601
      4  O          5.1520  -15.8410  120.4300 O.2    13  CYS13      -0.2717
      5  CB         5.9550  -13.6430  118.4750 C.3    13  CYS13       0.0970
      6  SG         7.6120  -14.0910  117.9190 S.3    13  CYS13      -0.0800
      7  N          5.6270  -17.0520  118.5870 N.am   14  GLY14      -0.1957
      8  CA         6.0000  -18.2380  119.3310 C.3    14  GLY14       0.1869
      9  C          4.8710  -19.1860  119.6600 C.2    14  GLY14       0.2309
     10  O          5.0480  -20.0560  120.5210 O.2    14  GLY14      -0.2863
     11  N          3.3610  -21.2130  117.3340 N.3    16  GLY16      -0.1210
     12  CA         3.5300  -22.3990  116.5220 C.3    16  GLY16       0.1956
     13  C          3.1650  -22.1930  115.0680 C.2    16  GLY16       0.2612
     14  O          2.9430  -23.1610  114.3360 O.2    16  GLY16      -0.2717
     15  N          3.1020  -20.9330  114.6350 N.am   17  LYS17      -0.1965
     16  CA         2.6950  -20.6420  113.2640 C.3    17  LYS17       0.1728
     17  C          3.6950  -21.2050  112.2620 C.2    17  LYS17       0.2617
     18  O          3.3100  -21.8420  111.2740 O.2    17  LYS17      -0.2715
     19  CB         2.5350  -19.1350  113.0770 C.3    17  LYS17       0.0311
     20  CG         1.4800  -18.5150  113.9710 C.3    17  LYS17       0.0038
     21  CD         1.2990  -17.0510  113.6480 C.3    17  LYS17       0.0206
     22  CE         2.5990  -16.2950  113.8240 C.3    17  LYS17       0.1093
     23  NZ         3.0270  -16.2460  115.2470 N.3    17  LYS17      -0.1314
     24  N          4.9870  -20.9760  112.5000 N.am   18  SER18      -0.1936
     25  CA         6.0080  -21.5090  111.6060 C.3    18  SER18       0.2055
     26  C          6.0680  -23.0300  111.6830 C.2    18  SER18       0.2642
     27  O          6.1140  -23.7090  110.6510 O.2    18  SER18      -0.2714
     28  CB         7.3670  -20.8970  111.9430 C.3    18  SER18       0.2130
     29  OG         7.3190  -19.4830  111.8700 O.3    18  SER18      -0.2179
     30  N          6.0550  -23.5830  112.8980 N.am   19  ALA19      -0.1977
     31  CA         6.1640  -25.0290  113.0470 C.3    19  ALA19       0.1597
     32  C          4.9800  -25.7460  112.4100 C.2    19  ALA19       0.2287
     33  O          5.1470  -26.8130  111.8090 O.2    19  ALA19      -0.2864
     34  CB         6.2890  -25.3980  114.5240 C.3    19  ALA19       0.0319
     35  N          5.6140  -25.4970  108.5890 N.3    22  ILE22      -0.1245
     36  CA         6.7290  -26.3440  108.1810 C.3    22  ILE22       0.1561
     37  C          6.3700  -27.8160  108.3370 C.2    22  ILE22       0.2260
     38  O          6.7530  -28.6530  107.5110 O.2    22  ILE22      -0.2867
     39  CB         7.9880  -25.9650  108.9780 C.3    22  ILE22       0.0252
     40  CG1        8.4000  -24.5340  108.6280 C.3    22  ILE22       0.0019
     41  CG2        9.1210  -26.9510  108.7050 C.3    22  ILE22       0.0019
     42  CD1        9.3620  -23.9170  109.6040 C.3    22  ILE22       0.0001
     43  N          9.5650  -31.0500  111.9350 N.3    29  PHE29      -0.1227
     44  CA         9.3130  -30.2830  113.1470 C.3    29  PHE29       0.1736
     45  C         10.5030  -29.3730  113.4260 C.2    29  PHE29       0.2595
     46  O         11.6570  -29.8090  113.3470 O.2    29  PHE29      -0.2718
     47  CB         9.0560  -31.2060  114.3380 C.3    29  PHE29       0.0547
     48  CG         8.6230  -30.4810  115.5800 C.ar   29  PHE29      -0.0202
     49  CD1        7.5970  -29.5520  115.5300 C.ar   29  PHE29      -0.0042
     50  CD2        9.2340  -30.7330  116.7980 C.ar   29  PHE29      -0.0042
     51  CE1        7.1900  -28.8820  116.6700 C.ar   29  PHE29      -0.0003
     52  CE2        8.8310  -30.0660  117.9430 C.ar   29  PHE29      -0.0003
     53  CZ         7.8080  -29.1400  117.8780 C.ar   29  PHE29      -0.0000
     54  N         10.2180  -28.1150  113.7520 N.am   30  VAL30      -0.1966
     55  CA        11.2340  -27.0890  113.9490 C.3    30  VAL30       0.1727
     56  C         11.2030  -26.6460  115.4040 C.2    30  VAL30       0.2616
     57  O         10.1290  -26.3830  115.9560 O.2    30  VAL30      -0.2715
     58  CB        11.0140  -25.8910  113.0060 C.3    30  VAL30       0.0290
     59  CG1       11.8620  -24.7040  113.4330 C.3    30  VAL30       0.0023
     60  CG2       11.3350  -26.2880  111.5780 C.3    30  VAL30       0.0023
     61  N         12.3820  -26.5650  116.0220 N.am   31  ASP31      -0.1957
     62  CA        12.5070  -26.1220  117.4060 C.3    31  ASP31       0.1840
     63  C         12.9560  -24.6670  117.5000 C.2    31  ASP31       0.2622
     64  O         12.2460  -23.8330  118.0710 O.2    31  ASP31      -0.2715
     65  CB        13.4730  -27.0450  118.1660 C.3    31  ASP31       0.1450
     66  CG        14.7840  -27.2570  117.4320 C.2    31  ASP31       0.3671
     67  OD1       14.8550  -26.9310  116.2280 O.co2  31  ASP31      -0.2456
     68  OD2       15.7430  -27.7550  118.0580 O.co2  31  ASP31      -0.2456
     69  N         14.1200  -24.3410  116.9390 N.am   32  GLU32      -0.1963
     70  CA        14.6750  -22.9940  117.0380 C.3    32  GLU32       0.1733
     71  C         15.5010  -22.6980  115.7960 C.2    32  GLU32       0.2616
     72  O         16.5300  -23.3400  115.5670 O.2    32  GLU32      -0.2715
     73  CB        15.5350  -22.8450  118.2980 C.3    32  GLU32       0.0429
     74  CG        14.7470  -22.6390  119.5840 C.3    32  GLU32       0.1163
     75  CD        15.5790  -22.8860  120.8270 C.2    32  GLU32       0.3649
     76  OE1       16.5030  -23.7240  120.7670 O.co2  32  GLU32      -0.2457
     77  OE2       15.3120  -22.2410  121.8620 O.co2  32  GLU32      -0.2457
     78  N         15.0530  -21.7260  115.0020 N.am   33  TYR33      -0.1960
     79  CA        15.8250  -21.2500  113.8610 C.3    33  TYR33       0.1771
     80  C         15.9830  -19.7380  113.9330 C.2    33  TYR33       0.2620
     81  O         16.8580  -19.2320  114.6430 O.2    33  TYR33      -0.2715
     82  CB        15.1620  -21.6620  112.5450 C.3    33  TYR33       0.0574
     83  CG        15.8220  -22.8490  111.8830 C.ar   33  TYR33      -0.0198
     84  CD1       15.5130  -24.1460  112.2710 C.ar   33  TYR33      -0.0009
     85  CD2       16.7570  -22.6720  110.8720 C.ar   33  TYR33      -0.0009
     86  CE1       16.1170  -25.2350  111.6700 C.ar   33  TYR33       0.0417
     87  CE2       17.3660  -23.7540  110.2640 C.ar   33  TYR33       0.0417
     88  CZ        17.0420  -25.0330  110.6670 C.ar   33  TYR33       0.1957
     89  OH        17.6460  -26.1130  110.0650 O.3    33  TYR33      -0.2866
     90  N         15.1420  -19.0070  113.2080 N.am   34  ASP34      -0.1958
     91  CA        15.1300  -17.5460  113.2620 C.3    34  ASP34       0.1825
     92  C         13.7800  -17.0850  113.7930 C.2    34  ASP34       0.2464
     93  O         12.8050  -16.9970  113.0250 O.2    34  ASP34      -0.2730
     94  CB        15.4060  -16.9420  111.8870 C.3    34  ASP34       0.1450
     95  CG        15.6040  -15.4400  111.9420 C.2    34  ASP34       0.3671
     96  OD1       15.9250  -14.9210  113.0310 O.co2  34  ASP34      -0.2456
     97  OD2       15.4430  -14.7780  110.8940 O.co2  34  ASP34      -0.2456
     98  N         13.6650  -16.7920  115.0980 N.am   35  PRO35      -0.2727
     99  CA        12.4180  -16.3510  115.7340 C.3    35  PRO35       0.1402
    100  C         11.8610  -15.0640  115.1300 C.2    35  PRO35       0.2269
    101  O         10.8510  -15.1210  114.4280 O.2    35  PRO35      -0.2865
    102  CB        12.8280  -16.1320  117.1940 C.3    35  PRO35       0.0296
    103  CG        14.0300  -16.9920  117.3830 C.3    35  PRO35       0.0237
    104  CD        14.7570  -16.9390  116.0750 C.3    35  PRO35       0.0939
    105  N          4.0470  -13.0930  111.9000 N.3    57  ALA57      -0.1231
    106  CA         4.2130  -13.1460  113.3430 C.3    57  ALA57       0.1694
    107  C          4.2450  -11.7330  113.8880 C.2    57  ALA57       0.2592
    108  O          3.1850  -11.0850  113.9850 O.2    57  ALA57      -0.2718
    109  CB         5.4600  -13.9660  113.7020 C.3    57  ALA57       0.0304
    110  N          5.4050  -11.1960  114.2600 N.am   58  GLY58      -0.1957
    111  CA         5.4800   -9.9610  115.0100 C.3    58  GLY58       0.1869
    112  C          5.4240   -8.7110  114.1540 C.2    58  GLY58       0.2309
    113  O          4.9150   -8.7040  113.0300 O.2    58  GLY58      -0.2863
    114  N         -2.7830  -24.6070  119.2070 N.3   112  ASN112     -0.1225
    115  CA        -1.5800  -25.3900  118.9890 C.3   112  ASN112      0.1785
    116  C         -1.0230  -25.9130  120.3120 C.2   112  ASN112      0.2597
    117  O         -1.4680  -25.5400  121.4010 O.2   112  ASN112     -0.2718
    118  CB        -0.5260  -24.5580  118.2610 C.3   112  ASN112      0.1169
    119  CG         0.5190  -25.4140  117.5770 C.2   112  ASN112      0.2627
    120  OD1        0.2190  -26.5050  117.0900 O.2   112  ASN112     -0.2716
    121  ND2        1.7560  -24.9310  117.5480 N.am  112  ASN112     -0.0877
    122  N         -0.0350  -26.8020  120.1930 N.am  113  LYS113     -0.1980
    123  CA         0.6840  -27.3640  121.3360 C.3   113  LYS113      0.1596
    124  C         -0.2270  -28.2170  122.2160 C.2   113  LYS113      0.2287
    125  O         -0.0910  -28.2380  123.4410 O.2   113  LYS113     -0.2864
    126  CB         1.3630  -26.2700  122.1630 C.3   113  LYS113      0.0298
    127  CG         2.3480  -25.4230  121.3850 C.3   113  LYS113      0.0038
    128  CD         3.1840  -24.5740  122.3240 C.3   113  LYS113      0.0206
    129  CE         3.9600  -23.5140  121.5700 C.3   113  LYS113      0.1093
    130  NZ         4.9290  -22.8130  122.4580 N.3   113  LYS113     -0.1314
    131  N          0.0060  -31.2810  122.3390 N.3   115  ASP115     -0.1225
    132  CA         0.8810  -32.3160  122.8780 C.3   115  ASP115      0.1805
    133  C          1.2870  -32.0200  124.3140 C.2   115  ASP115      0.2597
    134  O          1.4660  -32.9490  125.1090 O.2   115  ASP115     -0.2718
    135  CB         2.1310  -32.4430  122.0110 C.3   115  ASP115      0.1424
    136  CG         2.7110  -31.0960  121.6360 C.2   115  ASP115      0.3668
    137  OD1        1.9360  -30.2310  121.1760 O.co2 115  ASP115     -0.2456
    138  OD2        3.9340  -30.9020  121.8010 O.co2 115  ASP115     -0.2456
    139  N          1.4350  -30.7460  124.6600 N.am  116  LEU116     -0.1979
    140  CA         1.9610  -30.3840  125.9660 C.3   116  LEU116      0.1596
    141  C          0.9680  -30.7570  127.0640 C.2   116  LEU116      0.2287
    142  O         -0.2470  -30.6470  126.8700 O.2   116  LEU116     -0.2864
    143  CB         2.2670  -28.8900  126.0210 C.3   116  LEU116      0.0297
    144  CG         3.2230  -28.3810  124.9400 C.3   116  LEU116      0.0022
    145  CD1        3.5360  -26.9120  125.1540 C.3   116  LEU116      0.0001
    146  CD2        4.4990  -29.2080  124.9150 C.3   116  LEU116      0.0001
    147  N         -0.9910  -29.7760  117.0280 N.3   141  SER141     -0.1202
    148  CA         0.3120  -29.9130  117.6720 C.3   141  SER141      0.2020
    149  C          1.3390  -30.0380  116.5640 C.2   141  SER141      0.2619
    150  O          1.2060  -30.9150  115.7080 O.2   141  SER141     -0.2717
    151  CB         0.3470  -31.1350  118.5820 C.3   141  SER141      0.2103
    152  OG         1.6820  -31.5150  118.8590 O.3   141  SER141     -0.2182
    153  N          2.3460  -29.1730  116.5440 N.am  142  ALA142     -0.1965
    154  CA         3.2610  -29.3110  115.4190 C.3   142  ALA142      0.1728
    155  C          4.2790  -30.4220  115.6260 C.2   142  ALA142      0.2616
    156  O          4.9220  -30.8350  114.6560 O.2   142  ALA142     -0.2715
    157  CB         3.9760  -27.9930  115.1230 C.3   142  ALA142      0.0334
    158  N          4.4180  -30.9310  116.8520 N.am  143  LYS143     -0.1977
    159  CA         5.3190  -32.0480  117.1090 C.3   143  LYS143      0.1596
    160  C          4.7170  -33.3670  116.6370 C.2   143  LYS143      0.2287
    161  O          5.3670  -34.1320  115.9160 O.2   143  LYS143     -0.2864
    162  CB         5.6540  -32.1160  118.6020 C.3   143  LYS143      0.0298
    163  CG         6.4960  -33.3170  118.9920 C.3   143  LYS143      0.0038
    164  CD         6.8490  -33.3000  120.4720 C.3   143  LYS143      0.0206
    165  CE         7.7480  -32.1240  120.8190 C.3   143  LYS143      0.1093
    166  NZ         8.2050  -32.1800  122.2360 N.3   143  LYS143     -0.1314
@<TRIPOS>BOND
     1    38    37    2
     2    36    37    1
     3    36    35    1
     4    36    39    1
     5    40    39    1
     6    40    42    1
     7    41    39    1
     8    89    88    1
     9    87    88   ar
    10    87    85   ar
    11    27    26    2
    12    88    86   ar
    13    85    83   ar
    14    97    95   ar
    15    18    17    2
    16    60    58    1
    17    25    26    1
    18    25    28    1
    19    25    24    1
    20    86    84   ar
    21    26    30   am
    22    33    32    2
    23    29    28    1
    24    83    84   ar
    25    83    82    1
    26    94    95    1
    27    94    91    1
    28   105   106    1
    29    43    44    1
    30    95    96   ar
    31    17    24   am
    32    17    16    1
    33    32    31    1
    34    82    79    1
    35    30    31    1
    36    58    59    1
    37    58    55    1
    38    93    92    2
    39   113   112    2
    40    31    34    1
    41    19    16    1
    42    19    20    1
    43    44    45    1
    44    44    47    1
    45    90    91    1
    46    90    80   am
    47    91    92    1
    48    16    15    1
    49   106   109    1
    50   106   107    1
    51    46    45    2
    52    45    54   am
    53    21    22    1
    54    21    20    1
    55    54    55    1
    56    92    98   am
    57    22    23    1
    58    79    80    1
    59    79    78    1
    60   107   108    2
    61   107   110   am
    62    80    81    2
    63    55    56    1
    64   112   111    1
    65   110   111    1
    66    14    13    2
    67    47    48    1
    68   101   100    2
    69    15    13   am
    70   156   155    2
    71    78    71   am
    72    13    12    1
    73    98    99    1
    74    98   104    1
    75   157   154    1
    76   100    99    1
    77    56    57    2
    78    56    61   am
    79   154   155    1
    80   154   153    1
    81    49    48   ar
    82    49    51   ar
    83    72    71    2
    84    48    50   ar
    85   155   158   am
    86   150   149    2
    87    99   102    1
    88    71    70    1
    89   161   160    2
    90    61    62    1
    91   104   103    1
    92    67    66   ar
    93    12    11    1
    94   153   149   am
    95   149   148    1
    96   160   159    1
    97    51    53   ar
    98    50    52   ar
    99   158   159    1
   100    69    70    1
   101    69    63   am
   102   147   148    1
   103    70    73    1
   104   120   119    2
   105   159   162    1
   106   102   103    1
   107    62    63    1
   108    62    65    1
   109    66    68   ar
   110    66    65    1
   111    63    64    2
   112   121   119   am
   113   119   118    1
   114   148   151    1
   115    53    52   ar
   116     6     5    1
   117   118   115    1
   118    73    74    1
   119     2     5    1
   120     2     1    1
   121     2     3    1
   122   151   152    1
   123     7     3   am
   124     7     8    1
   125   162   163    1
   126   115   114    1
   127   115   116    1
   128   163   164    1
   129     3     4    2
   130     8     9    1
   131    74    75    1
   132     9    10    2
   133   122   116   am
   134   122   123    1
   135   116   117    2
   136   164   165    1
   137    76    75   ar
   138   165   166    1
   139    75    77   ar
   140   137   136   ar
   141   123   126    1
   142   123   124    1
   143   127   126    1
   144   127   128    1
   145   129   128    1
   146   129   130    1
   147   136   138   ar
   148   136   135    1
   149   135   132    1
   150   124   125    2
   151   131   132    1
   152   132   133    1
   153   133   139   am
   154   133   134    2
   155   139   140    1
   156   146   144    1
   157   144   145    1
   158   144   143    1
   159   140   143    1
   160   140   141    1
   161   142   141    2
