@<TRIPOS>MOLECULE
tmp/5kymB00.pdb
 120 120 0 0 0
SMALL
GASTEIGER

@<TRIPOS>ATOM
      1  N         58.8720   55.9520   37.6480 N.3    22  VAL22      -0.1231
      2  CA        60.1780   55.8400   38.2900 C.3    22  VAL22       0.1692
      3  C         60.1850   54.6660   39.2730 C.2    22  VAL22       0.2592
      4  O         60.9600   53.7360   39.1270 O.2    22  VAL22      -0.2718
      5  CB        60.5990   57.1930   38.9200 C.3    22  VAL22       0.0266
      6  CG1       61.7340   57.0010   39.9170 C.3    22  VAL22       0.0020
      7  CG2       60.9590   58.2080   37.8180 C.3    22  VAL22       0.0020
      8  N         59.3040   54.6870   40.2510 N.am   23  PHE23      -0.1962
      9  CA        59.3650   53.6840   41.3230 C.3    23  PHE23       0.1771
     10  C         58.7520   52.3360   40.9390 C.2    23  PHE23       0.2619
     11  O         59.3900   51.3020   41.0800 O.2    23  PHE23      -0.2715
     12  CB        58.7960   54.2580   42.6420 C.3    23  PHE23       0.0574
     13  CG        59.5440   55.5010   43.1130 C.ar   23  PHE23      -0.0200
     14  CD1       60.9440   55.4920   43.2500 C.ar   23  PHE23      -0.0042
     15  CD2       58.8840   56.6950   43.3440 C.ar   23  PHE23      -0.0042
     16  CE1       61.6350   56.6190   43.6250 C.ar   23  PHE23      -0.0003
     17  CE2       59.5800   57.8300   43.7340 C.ar   23  PHE23      -0.0003
     18  CZ        60.9550   57.7950   43.8630 C.ar   23  PHE23      -0.0000
     19  N         57.5210   52.3370   40.4290 N.am   24  TYR24      -0.1974
     20  CA        56.9580   51.0870   39.9370 C.3    24  TYR24       0.1639
     21  C         57.7730   50.6040   38.7200 C.2    24  TYR24       0.2290
     22  O         58.0930   49.4420   38.6110 O.2    24  TYR24      -0.2864
     23  CB        55.4640   51.2040   39.6360 C.3    24  TYR24       0.0560
     24  CG        54.8800   49.9120   39.0620 C.ar   24  TYR24      -0.0198
     25  CD1       54.9320   48.7290   39.7810 C.ar   24  TYR24      -0.0009
     26  CD2       54.3080   49.8910   37.7970 C.ar   24  TYR24      -0.0009
     27  CE1       54.4410   47.5630   39.2610 C.ar   24  TYR24       0.0417
     28  CE2       53.8200   48.7350   37.2710 C.ar   24  TYR24       0.0417
     29  CZ        53.8780   47.5750   38.0110 C.ar   24  TYR24       0.1957
     30  OH        53.3700   46.4160   37.4690 O.3    24  TYR24      -0.2866
     31  N         60.8890   51.1040   38.0520 N.3    26  GLY26      -0.1210
     32  CA        62.1570   50.6090   38.5180 C.3    26  GLY26       0.1956
     33  C         61.9590   49.1890   38.9780 C.2    26  GLY26       0.2611
     34  O         62.6740   48.2680   38.5770 O.2    26  GLY26      -0.2717
     35  N         60.9290   49.0210   39.7910 N.am   27  PHE27      -0.1976
     36  CA        60.5830   47.7380   40.3120 C.3    27  PHE27       0.1639
     37  C         60.3640   46.7360   39.1890 C.2    27  PHE27       0.2290
     38  O         60.7330   45.5800   39.3250 O.2    27  PHE27      -0.2864
     39  CB        59.3490   47.8770   41.2010 C.3    27  PHE27       0.0560
     40  CG        58.8300   46.5840   41.6920 C.ar   27  PHE27      -0.0200
     41  CD1       59.4940   45.9120   42.6850 C.ar   27  PHE27      -0.0042
     42  CD2       57.7170   46.0090   41.1070 C.ar   27  PHE27      -0.0042
     43  CE1       59.0640   44.6840   43.0920 C.ar   27  PHE27      -0.0003
     44  CE2       57.2740   44.7780   41.5030 C.ar   27  PHE27      -0.0003
     45  CZ        57.9580   44.1110   42.5050 C.ar   27  PHE27      -0.0000
     46  N         63.6370   45.7770   37.6970 N.3    30  PHE30      -0.1227
     47  CA        64.3270   45.0320   38.7320 C.3    30  PHE30       0.1736
     48  C         63.7820   43.6110   38.8230 C.2    30  PHE30       0.2595
     49  O         64.5630   42.6830   38.8650 O.2    30  PHE30      -0.2718
     50  CB        64.2990   45.7020   40.0820 C.3    30  PHE30       0.0547
     51  CG        64.7650   44.8030   41.1940 C.ar   30  PHE30      -0.0202
     52  CD1       66.1130   44.5470   41.4070 C.ar   30  PHE30      -0.0042
     53  CD2       63.8380   44.1460   42.0050 C.ar   30  PHE30      -0.0042
     54  CE1       66.5270   43.7120   42.4300 C.ar   30  PHE30      -0.0003
     55  CE2       64.2410   43.3200   43.0540 C.ar   30  PHE30      -0.0003
     56  CZ        65.5900   43.1240   43.2770 C.ar   30  PHE30      -0.0000
     57  N         62.4740   43.4070   38.8410 N.am   31  ARG31      -0.1980
     58  CA        61.9770   42.0250   38.7510 C.3    31  ARG31       0.1597
     59  C         62.3990   41.3120   37.4660 C.2    31  ARG31       0.2287
     60  O         62.7420   40.1480   37.4950 O.2    31  ARG31      -0.2864
     61  CB        60.4640   41.9660   38.8480 C.3    31  ARG31       0.0334
     62  CG        59.8850   41.8510   40.2430 C.3    31  ARG31       0.0492
     63  CD        58.3690   41.8970   40.1400 C.3    31  ARG31       0.2205
     64  NE        57.8400   40.9850   39.1250 N.pl3  31  ARG31      -0.0865
     65  CZ        57.3830   39.7560   39.3520 C.cat  31  ARG31       0.5346
     66  NH1       57.3580   39.2440   40.5990 N.pl3  31  ARG31       0.1354
     67  NH2       56.9670   39.0290   38.3080 N.pl3  31  ARG31       0.1354
     68  N         56.9320   40.2770   30.0730 N.3    44  TYR44      -0.1241
     69  CA        56.5050   40.9560   31.2930 C.3    44  TYR44       0.1605
     70  C         56.7390   42.4550   31.1730 C.2    44  TYR44       0.2264
     71  O         55.8180   43.2240   31.3570 O.2    44  TYR44      -0.2867
     72  CB        57.2360   40.3890   32.4970 C.3    44  TYR44       0.0534
     73  CG        57.1780   41.2180   33.7400 C.ar   44  TYR44      -0.0201
     74  CD1       56.0020   41.3550   34.4330 C.ar   44  TYR44      -0.0009
     75  CD2       58.2990   41.8430   34.2600 C.ar   44  TYR44      -0.0009
     76  CE1       55.9310   42.1060   35.6140 C.ar   44  TYR44       0.0417
     77  CE2       58.2300   42.5760   35.4310 C.ar   44  TYR44       0.0417
     78  CZ        57.0420   42.7050   36.1000 C.ar   44  TYR44       0.1957
     79  OH        56.9390   43.4300   37.2550 O.3    44  TYR44      -0.2866
     80  N         54.5370   44.0900   28.5640 N.3    47  LYS47      -0.1231
     81  CA        53.1340   44.1350   28.9090 C.3    47  LYS47       0.1693
     82  C         52.9420   45.3160   29.8370 C.2    47  LYS47       0.2591
     83  O         52.0060   46.0680   29.6610 O.2    47  LYS47      -0.2718
     84  CB        52.7030   42.8040   29.5450 C.3    47  LYS47       0.0285
     85  CG        51.2140   42.6070   29.8840 C.3    47  LYS47       0.0035
     86  CD        50.2660   42.6210   28.6800 C.3    47  LYS47       0.0206
     87  CE        49.5160   41.3030   28.4170 C.3    47  LYS47       0.1093
     88  NZ        49.0380   41.3260   26.9940 N.3    47  LYS47      -0.1314
     89  N         53.8580   45.5110   30.7800 N.am   48  GLU48      -0.1979
     90  CA        53.7710   46.6070   31.7430 C.3    48  GLU48       0.1602
     91  C         53.8050   48.0200   31.1310 C.2    48  GLU48       0.2287
     92  O         53.1830   48.9480   31.6810 O.2    48  GLU48      -0.2864
     93  CB        54.8930   46.4990   32.7790 C.3    48  GLU48       0.0415
     94  CG        54.7400   45.4230   33.8490 C.3    48  GLU48       0.1163
     95  CD        53.3840   45.5020   34.5000 C.2    48  GLU48       0.3649
     96  OE1       52.9600   46.6330   34.9410 O.co2  48  GLU48      -0.2457
     97  OE2       52.7570   44.4230   34.4900 O.co2  48  GLU48      -0.2457
     98  N         50.5060   48.5170   29.5180 N.3    51  LYS51      -0.1245
     99  CA        49.5650   48.8650   30.5560 C.3    51  LYS51       0.1561
    100  C         49.6800   50.3310   30.9120 C.2    51  LYS51       0.2260
    101  O         48.6820   50.9930   31.1380 O.2    51  LYS51      -0.2867
    102  CB        49.7530   47.9870   31.7970 C.3    51  LYS51       0.0271
    103  CG        49.4180   46.5240   31.5200 C.3    51  LYS51       0.0035
    104  CD        48.9680   45.7410   32.7540 C.3    51  LYS51       0.0206
    105  CE        50.1560   45.2330   33.5450 C.3    51  LYS51       0.1093
    106  NZ        50.0440   45.2990   35.0340 N.3    51  LYS51      -0.1314
    107  N         65.3680   54.7770   30.9970 N.3   114  TRP114     -0.1241
    108  CA        65.4280   53.3150   31.1190 C.3   114  TRP114      0.1605
    109  C         64.4210   52.7200   30.1790 C.2   114  TRP114      0.2264
    110  O         64.6920   51.7390   29.5340 O.2   114  TRP114     -0.2867
    111  CB        65.0780   52.7660   32.5110 C.3   114  TRP114      0.0550
    112  CG        65.6760   53.4050   33.6640 C.ar  114  TRP114      0.0003
    113  CD1       66.9050   53.9190   33.7460 C.ar  114  TRP114      0.0946
    114  CD2       65.0630   53.5780   34.9430 C.ar  114  TRP114      0.0152
    115  NE1       67.1270   54.4060   35.0050 N.ar  114  TRP114     -0.2442
    116  CE2       66.0060   54.2300   35.7640 C.ar  114  TRP114      0.0810
    117  CE3       63.8090   53.2290   35.4810 C.ar  114  TRP114      0.0012
    118  CZ2       65.7400   54.5860   37.1060 C.ar  114  TRP114      0.0191
    119  CZ3       63.5280   53.5750   36.8280 C.ar  114  TRP114      0.0001
    120  CH2       64.5030   54.2490   37.6260 C.ar  114  TRP114      0.0015
@<TRIPOS>BOND
     1    88    87    1
     2    87    86    1
     3    80    81    1
     4    86    85    1
     5    81    84    1
     6    81    82    1
     7    98    99    1
     8   110   109    2
     9    84    85    1
    10    83    82    2
    11    82    89   am
    12    68    69    1
    13   109   108    1
    14    99   100    1
    15    99   102    1
    16    89    90    1
    17   100   101    2
    18   107   108    1
    19   108   111    1
    20    91    92    2
    21    91    90    1
    22    70    69    1
    23    70    71    2
    24    69    72    1
    25   103   102    1
    26   103   104    1
    27    90    93    1
    28    72    73    1
    29   111   112    1
    30   104   105    1
    31    93    94    1
    32   105   106    1
    33   112   113   ar
    34   112   114   ar
    35    73    75   ar
    36    73    74   ar
    37   113   115   ar
    38    94    95    1
    39    75    77   ar
    40    74    76   ar
    41    97    95   ar
    42    95    96   ar
    43   114   117   ar
    44   114   116   ar
    45   115   116   ar
    46    77    78   ar
    47   117   119   ar
    48    76    78   ar
    49   116   118   ar
    50    78    79    1
    51   119   120   ar
    52   118   120   ar
    53    28    26   ar
    54    28    29   ar
    55    59    60    2
    56    59    58    1
    57    30    29    1
    58     1     2    1
    59    46    47    1
    60    26    24   ar
    61     7     5    1
    62    29    27   ar
    63    31    32    1
    64     2     5    1
    65     2     3    1
    66    67    65    1
    67    32    33    1
    68    34    33    2
    69    22    21    2
    70    21    20    1
    71    47    48    1
    72    47    50    1
    73    58    57    1
    74    58    61    1
    75    48    57   am
    76    48    49    2
    77    61    62    1
    78     5     6    1
    79    33    35   am
    80    24    23    1
    81    24    25   ar
    82    64    65    2
    83    64    63    1
    84     4     3    2
    85    37    38    2
    86    37    36    1
    87    27    25   ar
    88     3     8   am
    89    65    66    1
    90    23    20    1
    91    35    36    1
    92    20    19    1
    93    50    51    1
    94    63    62    1
    95     8     9    1
    96    36    39    1
    97    19    10   am
    98    10    11    2
    99    10     9    1
   100    42    44   ar
   101    42    40   ar
   102    51    52   ar
   103    51    53   ar
   104    39    40    1
   105     9    12    1
   106    52    54   ar
   107    44    45   ar
   108    40    41   ar
   109    53    55   ar
   110    54    56   ar
   111    45    43   ar
   112    12    13    1
   113    41    43   ar
   114    55    56   ar
   115    13    14   ar
   116    13    15   ar
   117    14    16   ar
   118    15    17   ar
   119    16    18   ar
   120    17    18   ar
