@<TRIPOS>MOLECULE
tmp/5kymA03.pdb
 140 135 0 0 0
SMALL
GASTEIGER

@<TRIPOS>ATOM
      1  N         51.6400   69.9380   56.5440 N.3    20  TYR20      -0.1227
      2  CA        52.0430   70.4330   57.8440 C.3    20  TYR20       0.1736
      3  C         50.7990   70.9490   58.5860 C.2    20  TYR20       0.2595
      4  O         50.5230   70.5050   59.7490 O.2    20  TYR20      -0.2718
      5  CB        53.1420   71.4710   57.7090 C.3    20  TYR20       0.0548
      6  CG        53.7670   71.9580   59.0110 C.ar   20  TYR20      -0.0200
      7  CD1       53.1410   72.9260   59.7710 C.ar   20  TYR20      -0.0009
      8  CD2       55.0030   71.5310   59.4280 C.ar   20  TYR20      -0.0009
      9  CE1       53.7040   73.4020   60.9390 C.ar   20  TYR20       0.0417
     10  CE2       55.5830   72.0240   60.5930 C.ar   20  TYR20       0.0417
     11  CZ        54.9310   72.9550   61.3750 C.ar   20  TYR20       0.1957
     12  OH        55.4000   73.5070   62.5890 O.3    20  TYR20      -0.2866
     13  N         50.0110   71.8200   57.9310 N.am   21  ILE21      -0.1980
     14  CA        48.8290   72.3900   58.6030 C.3    21  ILE21       0.1595
     15  C         47.8010   71.3160   58.9490 C.2    21  ILE21       0.2287
     16  O         47.2730   71.3390   60.0190 O.2    21  ILE21      -0.2864
     17  CB        48.1670   73.5350   57.8460 C.3    21  ILE21       0.0276
     18  CG1       49.1090   74.7250   57.7590 C.3    21  ILE21       0.0022
     19  CG2       46.9610   74.0560   58.6110 C.3    21  ILE21       0.0022
     20  CD1       48.6190   75.8190   56.7890 C.3    21  ILE21       0.0001
     21  N         50.1560   67.4250   60.7550 N.3    24  TYR24      -0.1227
     22  CA        50.8980   67.8100   61.9640 C.3    24  TYR24       0.1736
     23  C         50.0030   68.7180   62.8160 C.2    24  TYR24       0.2596
     24  O         49.9270   68.5630   64.0080 O.2    24  TYR24      -0.2718
     25  CB        52.2630   68.4610   61.6160 C.3    24  TYR24       0.0548
     26  CG        53.0020   68.8890   62.8650 C.ar   24  TYR24      -0.0200
     27  CD1       53.3480   67.9700   63.8610 C.ar   24  TYR24      -0.0009
     28  CD2       53.3040   70.2200   63.0940 C.ar   24  TYR24      -0.0009
     29  CE1       53.9700   68.3870   65.0200 C.ar   24  TYR24       0.0417
     30  CE2       53.9490   70.6120   64.2430 C.ar   24  TYR24       0.0417
     31  CZ        54.2580   69.7080   65.1970 C.ar   24  TYR24       0.1957
     32  OH        54.8600   70.1650   66.3490 O.3    24  TYR24      -0.2866
     33  N         49.2730   69.6310   62.1910 N.am   25  GLY25      -0.1957
     34  CA        48.4140   70.5370   62.9760 C.3    25  GLY25       0.1869
     35  C         47.2280   69.8450   63.6220 C.2    25  GLY25       0.2309
     36  O         46.7370   70.2880   64.6750 O.2    25  GLY25      -0.2863
     37  N         48.6640   68.3600   66.5840 N.3    28  VAL28      -0.1245
     38  CA        49.0130   69.3150   67.6490 C.3    28  VAL28       0.1561
     39  C         47.7980   69.5560   68.5420 C.2    28  VAL28       0.2260
     40  O         47.9000   69.4650   69.7840 O.2    28  VAL28      -0.2867
     41  CB        49.5930   70.6270   67.0850 C.3    28  VAL28       0.0252
     42  CG1       49.5680   71.7580   68.1040 C.3    28  VAL28       0.0019
     43  CG2       51.0130   70.3890   66.6050 C.3    28  VAL28       0.0019
     44  N         53.4140   76.3710   68.6860 N.3    48  GLU48      -0.1231
     45  CA        53.4300   75.6420   67.3980 C.3    48  GLU48       0.1699
     46  C         53.0130   76.4630   66.1890 C.2    48  GLU48       0.2592
     47  O         53.5030   76.2070   65.0920 O.2    48  GLU48      -0.2718
     48  CB        52.5510   74.3750   67.4610 C.3    48  GLU48       0.0402
     49  CG        53.1020   73.2040   68.2490 C.3    48  GLU48       0.1161
     50  CD        54.5000   72.8720   67.8150 C.2    48  GLU48       0.3649
     51  OE1       54.7380   72.7110   66.5660 O.co2  48  GLU48      -0.2457
     52  OE2       55.3710   72.8720   68.7400 O.co2  48  GLU48      -0.2457
     53  N         52.0650   77.3680   66.4140 N.am   49  ILE49      -0.1980
     54  CA        51.5720   78.3360   65.4520 C.3    49  ILE49       0.1595
     55  C         52.6580   79.3020   65.1130 C.2    49  ILE49       0.2287
     56  O         52.8930   79.5830   63.9520 O.2    49  ILE49      -0.2864
     57  CB        50.3450   79.1430   66.0230 C.3    49  ILE49       0.0276
     58  CG1       49.1410   78.1950   66.1330 C.3    49  ILE49       0.0022
     59  CG2       49.9940   80.4080   65.1960 C.3    49  ILE49       0.0022
     60  CD1       48.0030   78.7340   66.9830 C.3    49  ILE49       0.0001
     61  N         55.0850   77.7130   63.0070 N.3    52  PHE52      -0.1241
     62  CA        54.5860   77.6360   61.6330 C.3    52  PHE52       0.1605
     63  C         54.8550   78.9400   60.8840 C.2    52  PHE52       0.2264
     64  O         55.4010   78.9430   59.7630 O.2    52  PHE52      -0.2867
     65  CB        53.1100   77.2530   61.5950 C.3    52  PHE52       0.0534
     66  CG        52.4840   77.4590   60.2650 C.ar   52  PHE52      -0.0203
     67  CD1       52.7250   76.5600   59.2220 C.ar   52  PHE52      -0.0042
     68  CD2       51.6580   78.5680   60.0130 C.ar   52  PHE52      -0.0042
     69  CE1       52.1520   76.8120   57.9640 C.ar   52  PHE52      -0.0003
     70  CE2       51.0850   78.7740   58.7670 C.ar   52  PHE52      -0.0003
     71  CZ        51.3290   77.9050   57.7520 C.ar   52  PHE52      -0.0000
     72  N         49.9400   87.2690   57.0390 N.3    90  ILE90      -0.1231
     73  CA        49.4240   86.5690   58.1980 C.3    90  ILE90       0.1678
     74  C         50.4710   85.6050   58.8290 C.2    90  ILE90       0.2434
     75  O         50.7650   85.7270   60.0290 O.2    90  ILE90      -0.2733
     76  CB        48.0150   86.0120   57.8680 C.3    90  ILE90       0.0265
     77  CG1       47.0060   87.2110   57.9550 C.3    90  ILE90       0.0019
     78  CG2       47.5640   84.9320   58.8280 C.3    90  ILE90       0.0020
     79  CD1       46.7590   87.9150   59.3610 C.3    90  ILE90       0.0001
     80  N         51.0360   84.6810   58.0440 N.am   91  PRO91      -0.2729
     81  CA        52.0740   83.8470   58.6740 C.3    91  PRO91       0.1401
     82  C         53.2430   84.6790   59.2260 C.2    91  PRO91       0.2269
     83  O         53.7980   84.3440   60.2920 O.2    91  PRO91      -0.2865
     84  CB        52.5560   82.8980   57.5340 C.3    91  PRO91       0.0296
     85  CG        51.8550   83.3430   56.2920 C.3    91  PRO91       0.0237
     86  CD        50.6380   84.1730   56.7110 C.3    91  PRO91       0.0939
     87  N         52.1670   86.2460   62.5000 N.3    94  LEU94      -0.1245
     88  CA        51.9820   85.1340   63.4590 C.3    94  LEU94       0.1561
     89  C         53.3260   84.6640   64.0080 C.2    94  LEU94       0.2260
     90  O         53.4950   84.5030   65.2100 O.2    94  LEU94      -0.2867
     91  CB        51.2440   83.9610   62.8210 C.3    94  LEU94       0.0270
     92  CG        49.7180   84.0750   62.6210 C.3    94  LEU94       0.0019
     93  CD1       49.0370   82.9230   61.8950 C.3    94  LEU94       0.0001
     94  CD2       49.0770   84.2310   63.9760 C.3    94  LEU94       0.0001
     95  N         42.4070   87.2510   63.7940 N.3   102  PHE102     -0.1241
     96  CA        42.3320   88.0450   62.6010 C.3   102  PHE102      0.1605
     97  C         40.9510   87.9090   61.9770 C.2   102  PHE102      0.2264
     98  O         40.1390   87.1600   62.4820 O.2   102  PHE102     -0.2867
     99  CB        43.5150   87.8410   61.6570 C.3   102  PHE102      0.0534
    100  CG        43.6740   86.4790   61.0700 C.ar  102  PHE102     -0.0203
    101  CD1       44.4130   85.5240   61.7000 C.ar  102  PHE102     -0.0042
    102  CD2       43.1790   86.1890   59.7930 C.ar  102  PHE102     -0.0042
    103  CE1       44.5370   84.2150   61.1280 C.ar  102  PHE102     -0.0003
    104  CE2       43.3530   84.9320   59.1770 C.ar  102  PHE102     -0.0003
    105  CZ        44.0280   83.9370   59.8420 C.ar  102  PHE102     -0.0000
    106  N         43.2290   75.0710   58.2050 N.3   114  VAL114     -0.1245
    107  CA        43.1720   76.5250   58.3880 C.3   114  VAL114      0.1561
    108  C         42.0160   76.9580   59.3110 C.2   114  VAL114      0.2260
    109  O         42.1920   77.7710   60.2050 O.2   114  VAL114     -0.2867
    110  CB        43.0640   77.3100   57.0250 C.3   114  VAL114      0.0252
    111  CG1       42.9100   78.8140   57.2420 C.3   114  VAL114      0.0019
    112  CG2       44.2740   77.0760   56.1530 C.3   114  VAL114      0.0019
    113  N         42.7040   76.3460   62.9280 N.3   117  TYR117     -0.1227
    114  CA        43.6300   77.2890   63.5030 C.3   117  TYR117      0.1736
    115  C         43.0970   78.7270   63.5570 C.2   117  TYR117      0.2595
    116  O         43.3480   79.4300   64.5520 O.2   117  TYR117     -0.2718
    117  CB        45.0160   77.0830   62.9080 C.3   117  TYR117      0.0548
    118  CG        45.6990   75.9080   63.5800 C.ar  117  TYR117     -0.0200
    119  CD1       46.3210   76.0610   64.8110 C.ar  117  TYR117     -0.0009
    120  CD2       45.6730   74.6810   63.0260 C.ar  117  TYR117     -0.0009
    121  CE1       46.9260   75.0180   65.4480 C.ar  117  TYR117      0.0417
    122  CE2       46.2990   73.6270   63.6200 C.ar  117  TYR117      0.0417
    123  CZ        46.9010   73.7880   64.8380 C.ar  117  TYR117      0.1957
    124  OH        47.5380   72.7010   65.4200 O.3   117  TYR117     -0.2866
    125  N         42.2900   79.1390   62.5800 N.am  118  ILE118     -0.1980
    126  CA        41.6250   80.4500   62.6680 C.3   118  ILE118      0.1595
    127  C         40.7400   80.5330   63.8840 C.2   118  ILE118      0.2287
    128  O         40.7300   81.5390   64.5620 O.2   118  ILE118     -0.2864
    129  CB        40.7510   80.7770   61.4380 C.3   118  ILE118      0.0276
    130  CG1       41.6300   80.9180   60.1880 C.3   118  ILE118      0.0022
    131  CG2       39.9560   82.0540   61.6900 C.3   118  ILE118      0.0022
    132  CD1       40.9280   81.2440   58.8920 C.3   118  ILE118      0.0001
    133  N         42.8230   80.6830   67.1900 N.3   121  LEU121     -0.1245
    134  CA        43.2940   82.0530   67.4150 C.3   121  LEU121      0.1561
    135  C         42.2010   83.0550   67.7270 C.2   121  LEU121      0.2260
    136  O         42.4750   84.2650   67.7650 O.2   121  LEU121     -0.2867
    137  CB        44.1020   82.5370   66.1990 C.3   121  LEU121      0.0270
    138  CG        45.4330   81.7940   66.0180 C.3   121  LEU121      0.0019
    139  CD1       45.9230   81.9000   64.5840 C.3   121  LEU121      0.0001
    140  CD2       46.4870   82.2970   67.0290 C.3   121  LEU121      0.0001
@<TRIPOS>BOND
     1   112   110    1
     2    85    86    1
     3    85    84    1
     4     1     2    1
     5    86    80    1
     6    20    18    1
     7   110   111    1
     8   110   107    1
     9    72    73    1
    10    84    81    1
    11     5     2    1
    12     5     6    1
    13    71    69   ar
    14    71    70   ar
    15    18    17    1
    16     2     3    1
    17    17    14    1
    18    17    19    1
    19    76    77    1
    20    76    73    1
    21    76    78    1
    22    13     3   am
    23    13    14    1
    24    77    79    1
    25    69    67   ar
    26    80    81    1
    27    80    74   am
    28    73    74    1
    29   106   107    1
    30   107   108    1
    31     3     4    2
    32    14    15    1
    33    81    82    1
    34    70    68   ar
    35    74    75    2
    36   132   130    1
    37    15    16    2
    38     6     8   ar
    39     6     7   ar
    40   104   102   ar
    41   104   105   ar
    42    67    66   ar
    43    82    83    2
    44   108   109    2
    45     8    10   ar
    46    64    63    2
    47     7     9   ar
    48   102   100   ar
    49   105   103   ar
    50    68    66   ar
    51   130   129    1
    52    66    65    1
    53    10    11   ar
    54    21    22    1
    55    63    62    1
    56     9    11   ar
    57   100    99    1
    58   100   101   ar
    59   103   101   ar
    60    11    12    1
    61   129   131    1
    62   129   126    1
    63    65    62    1
    64    25    22    1
    65    25    26    1
    66    62    61    1
    67    99    96    1
    68    93    92    1
    69    22    23    1
    70    97    98    2
    71    97    96    1
    72    33    23   am
    73    33    34    1
    74    87    88    1
    75   125   126    1
    76   125   115   am
    77    96    95    1
    78    92    91    1
    79    92    94    1
    80   126   127    1
    81    23    24    2
    82    91    88    1
    83    26    28   ar
    84    26    27   ar
    85   117   114    1
    86   117   118    1
    87   113   114    1
    88    34    35    1
    89   120   118   ar
    90   120   122   ar
    91    28    30   ar
    92    88    89    1
    93   114   115    1
    94   115   116    2
    95   118   119   ar
    96   122   123   ar
    97    35    36    2
    98    27    29   ar
    99   127   128    2
   100    56    55    2
   101    89    90    2
   102    30    31   ar
   103   139   138    1
   104   119   121   ar
   105   123   124    1
   106   123   121   ar
   107    29    31   ar
   108    47    46    2
   109    55    54    1
   110    59    57    1
   111    31    32    1
   112    54    57    1
   113    54    53    1
   114   138   137    1
   115   138   140    1
   116    57    58    1
   117    58    60    1
   118    46    53   am
   119    46    45    1
   120   137   134    1
   121    51    50   ar
   122    37    38    1
   123    43    41    1
   124    41    38    1
   125    41    42    1
   126   133   134    1
   127    45    48    1
   128    45    44    1
   129   134   135    1
   130    48    49    1
   131    38    39    1
   132   135   136    2
   133    50    49    1
   134    50    52   ar
   135    39    40    2
