@<TRIPOS>MOLECULE
tmp/5kyvA01.pdb
 105 99 0 0 0
SMALL
GASTEIGER

@<TRIPOS>ATOM
      1  N         51.7780  -28.6860  -19.1150 N.3   218  PRO218     -0.2116
      2  CA        52.3810  -29.5470  -18.0840 C.3   218  PRO218      0.1372
      3  C         51.5350  -30.7490  -17.7100 C.2   218  PRO218      0.2244
      4  O         52.0730  -31.7000  -17.1650 O.2   218  PRO218     -0.2868
      5  CB        52.5670  -28.6050  -16.8780 C.3   218  PRO218      0.0268
      6  CG        51.9150  -27.2990  -17.2530 C.3   218  PRO218      0.0207
      7  CD        51.8120  -27.2610  -18.7540 C.3   218  PRO218      0.0892
      8  N         51.3330  -32.7290  -21.6870 N.3   221  GLY221     -0.1210
      9  CA        52.6210  -32.9300  -22.3370 C.3   221  GLY221      0.1956
     10  C         53.7620  -32.9300  -21.3320 C.2   221  GLY221      0.2612
     11  O         53.7750  -33.7360  -20.3860 O.2   221  GLY221     -0.2717
     12  N         54.7120  -32.0200  -21.5340 N.am  222  ASN222     -0.1960
     13  CA        55.8430  -31.8680  -20.6190 C.3   222  ASN222      0.1819
     14  C         56.1000  -30.4120  -20.2760 C.2   222  ASN222      0.2621
     15  O         56.2400  -29.5850  -21.1710 O.2   222  ASN222     -0.2715
     16  CB        57.1250  -32.4440  -21.2190 C.3   222  ASN222      0.1195
     17  CG        56.9770  -33.8800  -21.6390 C.2   222  ASN222      0.2630
     18  OD1       57.0470  -34.7870  -20.8160 O.2   222  ASN222     -0.2716
     19  ND2       56.7690  -34.0970  -22.9270 N.am  222  ASN222     -0.0877
     20  N         56.2070  -30.0850  -18.9960 N.am  223  GLN223     -0.1977
     21  CA        56.5340  -28.7080  -18.6620 C.3   223  GLN223      0.1601
     22  C         57.9860  -28.3050  -19.0630 C.2   223  GLN223      0.2287
     23  O         58.9520  -29.0550  -18.8460 O.2   223  GLN223     -0.2864
     24  CB        56.3160  -28.4750  -17.1760 C.3   223  GLN223      0.0394
     25  CG        56.4650  -27.0360  -16.7880 C.3   223  GLN223      0.0908
     26  CD        56.0360  -26.7950  -15.3810 C.2   223  GLN223      0.2608
     27  OE1       55.5400  -27.6960  -14.7120 O.2   223  GLN223     -0.2717
     28  NE2       56.2180  -25.5710  -14.9120 N.am  223  GLN223     -0.0878
     29  N         61.3260  -27.2400  -18.5080 N.3   225  ILE225     -0.1245
     30  CA        62.2430  -27.2200  -17.3750 C.3   225  ILE225      0.1561
     31  C         63.6420  -27.4510  -17.9350 C.2   225  ILE225      0.2260
     32  O         63.8260  -28.3430  -18.7660 O.2   225  ILE225     -0.2867
     33  CB        61.9380  -28.3180  -16.3280 C.3   225  ILE225      0.0252
     34  CG1       60.4920  -28.2610  -15.8340 C.3   225  ILE225      0.0019
     35  CG2       62.9060  -28.2130  -15.1540 C.3   225  ILE225      0.0019
     36  CD1       60.1260  -29.4110  -14.8960 C.3   225  ILE225      0.0001
     37  N         66.3240  -30.9790  -19.3310 N.3   228  THR228     -0.1218
     38  CA        65.4870  -32.1260  -19.5520 C.3   228  THR228      0.1862
     39  C         66.0220  -32.8920  -20.7520 C.2   228  THR228      0.2287
     40  O         66.2440  -32.3220  -21.8230 O.2   228  THR228     -0.2866
     41  CB        64.0290  -31.7240  -19.7840 C.3   228  THR228      0.1770
     42  OG1       63.5190  -31.1250  -18.5930 O.3   228  THR228     -0.2211
     43  CG2       63.1940  -32.9490  -20.1110 C.3   228  THR228      0.0375
     44  N         65.4100  -36.3950  -23.1780 N.3   230  ILE230     -0.1245
     45  CA        64.4640  -37.3940  -23.6130 C.3   230  ILE230      0.1561
     46  C         65.1250  -38.3810  -24.5460 C.2   230  ILE230      0.2260
     47  O         65.9620  -38.0010  -25.3790 O.2   230  ILE230     -0.2867
     48  CB        63.2900  -36.7460  -24.3100 C.3   230  ILE230      0.0252
     49  CG1       62.4830  -36.0080  -23.2560 C.3   230  ILE230      0.0019
     50  CG2       62.4170  -37.7960  -24.9960 C.3   230  ILE230      0.0019
     51  CD1       61.3140  -35.3480  -23.7800 C.3   230  ILE230      0.0001
     52  N         64.2220  -29.1890  -25.0820 N.3   253  PHE253     -0.1241
     53  CA        64.7410  -30.4350  -24.5250 C.3   253  PHE253      0.1605
     54  C         65.9320  -30.9880  -25.2950 C.2   253  PHE253      0.2264
     55  O         66.1910  -30.6120  -26.4430 O.2   253  PHE253     -0.2867
     56  CB        63.6520  -31.5040  -24.4860 C.3   253  PHE253      0.0534
     57  CG        62.5040  -31.1770  -23.5780 C.ar  253  PHE253     -0.0203
     58  CD1       62.5510  -30.0750  -22.7330 C.ar  253  PHE253     -0.0042
     59  CD2       61.3690  -31.9780  -23.5720 C.ar  253  PHE253     -0.0042
     60  CE1       61.4840  -29.7760  -21.8970 C.ar  253  PHE253     -0.0003
     61  CE2       60.2990  -31.6820  -22.7460 C.ar  253  PHE253     -0.0003
     62  CZ        60.3530  -30.5770  -21.9070 C.ar  253  PHE253     -0.0000
     63  N         64.8870  -38.2760  -18.3680 N.3   276  GLN276     -0.1231
     64  CA        63.7050  -38.0610  -17.5600 C.3   276  GLN276      0.1698
     65  C         62.4740  -38.7260  -18.1660 C.2   276  GLN276      0.2592
     66  O         61.5560  -39.1030  -17.4380 O.2   276  GLN276     -0.2718
     67  CB        63.4710  -36.5640  -17.3610 C.3   276  GLN276      0.0381
     68  CG        64.5990  -35.9350  -16.5860 C.3   276  GLN276      0.0905
     69  CD        64.4550  -34.4540  -16.4390 C.2   276  GLN276      0.2608
     70  OE1       65.3800  -33.6930  -16.7430 O.2   276  GLN276     -0.2717
     71  NE2       63.3040  -34.0220  -15.9340 N.am  276  GLN276     -0.0878
     72  N         62.4730  -38.8990  -19.4850 N.am  277  SER277     -0.1952
     73  CA        61.3050  -39.4270  -20.1800 C.3   277  SER277      0.1924
     74  C         61.6670  -40.1690  -21.4670 C.2   277  SER277      0.2314
     75  O         62.4150  -39.6420  -22.2850 O.2   277  SER277     -0.2863
     76  CB        60.3350  -38.2820  -20.4890 C.3   277  SER277      0.2116
     77  OG        59.2570  -38.7230  -21.2800 O.3   277  SER277     -0.2180
     78  N         61.3240  -40.2550  -14.9460 N.3   303  HIS303     -0.1226
     79  CA        60.0180  -39.9490  -14.3480 C.3   303  HIS303      0.1752
     80  C         58.8910  -40.5770  -15.1740 C.2   303  HIS303      0.2595
     81  O         57.7830  -40.7500  -14.6960 O.2   303  HIS303     -0.2718
     82  CB        59.8320  -38.4150  -14.2350 C.3   303  HIS303      0.0759
     83  CG        58.4520  -37.9700  -13.8100 C.ar  303  HIS303      0.0818
     84  ND1       57.4950  -38.8290  -13.3230 N.ar  303  HIS303     -0.2268
     85  CD2       57.8880  -36.7370  -13.8090 C.ar  303  HIS303      0.1154
     86  CE1       56.3910  -38.1480  -13.0440 C.ar  303  HIS303      0.1986
     87  NE2       56.6070  -36.8800  -13.3240 N.ar  303  HIS303     -0.2212
     88  N         59.1800  -40.9240  -16.4190 N.am  304  GLU304     -0.1979
     89  CA        58.1110  -41.1830  -17.3640 C.3   304  GLU304      0.1602
     90  C         58.4930  -42.0650  -18.5530 C.2   304  GLU304      0.2287
     91  O         59.5360  -41.8520  -19.1840 O.2   304  GLU304     -0.2864
     92  CB        57.5990  -39.8270  -17.8470 C.3   304  GLU304      0.0415
     93  CG        56.7830  -39.8170  -19.0980 C.3   304  GLU304      0.1163
     94  CD        56.2930  -38.4230  -19.4250 C.2   304  GLU304      0.3649
     95  OE1       56.9840  -37.6970  -20.1720 O.co2 304  GLU304     -0.2457
     96  OE2       55.2330  -38.0310  -18.8920 O.co2 304  GLU304     -0.2457
     97  N         48.5150  -36.0730  -16.5910 N.3   347  GLU347     -0.1245
     98  CA        49.3000  -36.2340  -15.3650 C.3   347  GLU347      0.1567
     99  C         48.4080  -36.3360  -14.1460 C.2   347  GLU347      0.2260
    100  O         47.5020  -35.5160  -13.9520 O.2   347  GLU347     -0.2867
    101  CB        50.2900  -35.0790  -15.1800 C.3   347  GLU347      0.0388
    102  CG        51.5230  -35.2190  -16.0640 C.3   347  GLU347      0.1160
    103  CD        52.4410  -36.3620  -15.6270 C.2   347  GLU347      0.3649
    104  OE1       53.4530  -36.6010  -16.3160 O.co2 347  GLU347     -0.2457
    105  OE2       52.1650  -37.0050  -14.5870 O.co2 347  GLU347     -0.2457
@<TRIPOS>BOND
     1    55    54    2
     2    47    46    2
     3    54    53    1
     4    52    53    1
     5    50    48    1
     6    46    45    1
     7    53    56    1
     8    56    57    1
     9    48    45    1
    10    48    49    1
    11    51    49    1
    12    45    44    1
    13    57    59   ar
    14    57    58   ar
    15    59    61   ar
    16    19    17   am
    17    61    62   ar
    18    58    60   ar
    19     9     8    1
    20     9    10    1
    21    75    74    2
    22    62    60   ar
    23    40    39    2
    24    17    16    1
    25    17    18    2
    26    12    10   am
    27    12    13    1
    28    74    73    1
    29    10    11    2
    30    77    76    1
    31    16    13    1
    32    15    14    2
    33    39    38    1
    34    13    14    1
    35    76    73    1
    36    14    20   am
    37    73    72    1
    38    95    94   ar
    39    43    41    1
    40    41    38    1
    41    41    42    1
    42    38    37    1
    43    72    65   am
    44    94    93    1
    45    94    96   ar
    46    91    90    2
    47     1     7    1
    48     1     2    1
    49    93    92    1
    50    22    23    2
    51    22    21    1
    52    20    21    1
    53    32    31    2
    54     7     6    1
    55    21    24    1
    56    90    89    1
    57    29    30    1
    58    63    64    1
    59    65    64    1
    60    65    66    2
    61     2     3    1
    62     2     5    1
    63    31    30    1
    64    92    89    1
    65     3     4    2
    66    64    67    1
    67    30    33    1
    68    89    88    1
    69    67    68    1
    70     6     5    1
    71    24    25    1
    72    25    26    1
    73    70    69    2
    74    97    98    1
    75    68    69    1
    76    69    71   am
    77    88    80   am
    78    33    34    1
    79    33    35    1
    80   104   103   ar
    81   102   103    1
    82   102   101    1
    83    34    36    1
    84   103   105   ar
    85    26    28   am
    86    26    27    2
    87    98   101    1
    88    98    99    1
    89    80    81    2
    90    80    79    1
    91    78    79    1
    92    79    82    1
    93    82    83    1
    94    99   100    2
    95    83    85   ar
    96    83    84   ar
    97    85    87   ar
    98    87    86   ar
    99    84    86   ar
