@<TRIPOS>MOLECULE
tmp/5kz0A00.pdb
 158 147 0 0 0
SMALL
GASTEIGER

@<TRIPOS>ATOM
      1  N         28.2520   46.1020    0.8540 N.3    30  LEU30      -0.1231
      2  CA        28.3960   47.0680    1.9400 C.3    30  LEU30       0.1693
      3  C         29.7970   47.6500    1.9040 C.2    30  LEU30       0.2593
      4  O         30.0330   48.7700    2.3590 O.2    30  LEU30      -0.2718
      5  CB        28.1660   46.4000    3.3000 C.3    30  LEU30       0.0284
      6  CG        26.7350   46.1450    3.7770 C.3    30  LEU30       0.0019
      7  CD1       26.7720   45.3290    5.0530 C.3    30  LEU30       0.0001
      8  CD2       26.0200   47.4550    4.0190 C.3    30  LEU30       0.0001
      9  N         30.7280   46.8730    1.3610 N.am   31  GLY31      -0.1942
     10  CA        32.1050   47.3150    1.2890 C.3    31  GLY31       0.2014
     11  C         33.0370   46.2150    0.8310 C.2    31  GLY31       0.2639
     12  O         32.6570   45.0420    0.7870 O.2    31  GLY31      -0.2714
     13  N         34.2620   46.6050    0.4840 N.am   32  HIS32      -0.1959
     14  CA        35.3010   45.6630    0.0830 C.3    32  HIS32       0.1787
     15  C         36.2540   45.4810    1.2590 C.2    32  HIS32       0.2620
     16  O         36.8010   46.4520    1.7790 O.2    32  HIS32      -0.2715
     17  CB        36.0760   46.2020   -1.1280 C.3    32  HIS32       0.0785
     18  CG        35.2060   46.7970   -2.1950 C.ar   32  HIS32       0.0821
     19  ND1       34.1190   47.5990   -1.9140 N.ar   32  HIS32      -0.2267
     20  CD2       35.2780   46.7240   -3.5460 C.ar   32  HIS32       0.1154
     21  CE1       33.5600   47.9950   -3.0440 C.ar   32  HIS32       0.1986
     22  NE2       34.2440   47.4780   -4.0500 N.ar   32  HIS32      -0.2212
     23  N         36.4460   44.2350    1.6790 N.am   33  GLY33      -0.1954
     24  CA        37.2620   43.9710    2.8510 C.3    33  GLY33       0.1869
     25  C         38.6620   43.5030    2.5140 C.2    33  GLY33       0.2309
     26  O         39.1380   42.5050    3.0590 O.2    33  GLY33      -0.2863
     27  N         31.6920   42.1260    1.4700 N.3    38  VAL38      -0.1245
     28  CA        30.7140   41.9450    2.5300 C.3    38  VAL38       0.1561
     29  C         29.3720   42.4710    2.0510 C.2    38  VAL38       0.2260
     30  O         29.2880   43.5590    1.4870 O.2    38  VAL38      -0.2867
     31  CB        31.1080   42.7100    3.7990 C.3    38  VAL38       0.0252
     32  CG1       30.0310   42.5490    4.8450 C.3    38  VAL38       0.0019
     33  CG2       32.4320   42.1970    4.3200 C.3    38  VAL38       0.0019
     34  N         24.9700   43.0000    2.7260 N.3    40  GLU40      -0.1245
     35  CA        23.8120   42.9310    3.6060 C.3    40  GLU40       0.1567
     36  C         22.9610   41.7850    3.0870 C.2    40  GLU40       0.2260
     37  O         22.8210   41.6180    1.8830 O.2    40  GLU40      -0.2867
     38  CB        23.0050   44.2350    3.5560 C.3    40  GLU40       0.0388
     39  CG        21.6680   44.1590    4.2910 C.3    40  GLU40       0.1160
     40  CD        20.9210   45.4880    4.3290 C.2    40  GLU40       0.3649
     41  OE1       19.6710   45.4690    4.3560 O.co2  40  GLU40      -0.2457
     42  OE2       21.5780   46.5510    4.3370 O.co2  40  GLU40      -0.2457
     43  N         25.1210   40.6540    8.0220 N.3    48  ALA48      -0.1245
     44  CA        26.2240   40.9990    7.1440 C.3    48  ALA48       0.1562
     45  C         26.8920   39.6980    6.7400 C.2    48  ALA48       0.2260
     46  O         27.1530   38.8390    7.5840 O.2    48  ALA48      -0.2867
     47  CB        27.2010   41.8820    7.8560 C.3    48  ALA48       0.0290
     48  N         30.1110   37.9420    5.2080 N.3    50  LYS50      -0.1245
     49  CA        31.5090   37.9900    4.8200 C.3    50  LYS50       0.1561
     50  C         31.8010   36.8310    3.8630 C.2    50  LYS50       0.2260
     51  O         31.5870   35.6660    4.1990 O.2    50  LYS50      -0.2867
     52  CB        32.3780   37.8940    6.0730 C.3    50  LYS50       0.0271
     53  CG        33.8560   38.1030    5.8520 C.3    50  LYS50       0.0035
     54  CD        34.4450   38.8440    7.0430 C.3    50  LYS50       0.0206
     55  CE        35.9600   38.7410    7.0950 C.3    50  LYS50       0.1093
     56  NZ        36.6020   39.1130    5.8100 N.3    50  LYS50      -0.1314
     57  N         30.8000   41.3490   18.1800 N.3    80  VAL80      -0.1245
     58  CA        29.8120   41.1060   17.1460 C.3    80  VAL80       0.1561
     59  C         29.4470   39.6150   17.1200 C.2    80  VAL80       0.2260
     60  O         30.3080   38.7420   17.2220 O.2    80  VAL80      -0.2867
     61  CB        30.3600   41.5910   15.7570 C.3    80  VAL80       0.0252
     62  CG1       31.5370   40.7220   15.3130 C.3    80  VAL80       0.0019
     63  CG2       29.2560   41.6010   14.7200 C.3    80  VAL80       0.0019
     64  N         27.2930   37.3590   10.0380 N.3    96  LEU96      -0.1231
     65  CA        27.4730   38.1530   11.2480 C.3    96  LEU96       0.1693
     66  C         26.2570   39.0100   11.5640 C.2    96  LEU96       0.2592
     67  O         25.4670   39.3490   10.6820 O.2    96  LEU96      -0.2718
     68  CB        28.7010   39.0650   11.1100 C.3    96  LEU96       0.0284
     69  CG        30.0500   38.3820   10.8550 C.3    96  LEU96       0.0019
     70  CD1       31.1480   39.4240   10.7240 C.3    96  LEU96       0.0001
     71  CD2       30.3510   37.4300   11.9980 C.3    96  LEU96       0.0001
     72  N         26.1230   39.3640   12.8340 N.am   97  GLU97      -0.1966
     73  CA        25.2330   40.4390   13.2470 C.3    97  GLU97       0.1733
     74  C         25.4230   41.6750   12.3550 C.2    97  GLU97       0.2616
     75  O         26.5280   42.2040   12.2390 O.2    97  GLU97      -0.2715
     76  CB        25.5400   40.7920   14.7020 C.3    97  GLU97       0.0429
     77  CG        24.6390   41.8290   15.3280 C.3    97  GLU97       0.1163
     78  CD        25.0550   42.1420   16.7470 C.2    97  GLU97       0.3649
     79  OE1       26.0150   41.5160   17.2330 O.co2  97  GLU97      -0.2457
     80  OE2       24.4250   43.0140   17.3750 O.co2  97  GLU97      -0.2457
     81  N         24.3430   42.1320   11.7290 N.am   98  LEU98      -0.1963
     82  CA        24.3910   43.3250   10.8890 C.3    98  LEU98       0.1728
     83  C         24.4410   44.5800   11.7520 C.2    98  LEU98       0.2616
     84  O         23.5180   44.8590   12.5120 O.2    98  LEU98      -0.2715
     85  CB        23.1610   43.3850    9.9780 C.3    98  LEU98       0.0311
     86  CG        22.9780   44.6470    9.1190 C.3    98  LEU98       0.0022
     87  CD1       24.0960   44.7740    8.0850 C.3    98  LEU98       0.0001
     88  CD2       21.6330   44.5710    8.4180 C.3    98  LEU98       0.0001
     89  N         25.5230   45.3370   11.6260 N.am   99  MET99      -0.1963
     90  CA        25.7230   46.5320   12.4350 C.3    99  MET99       0.1736
     91  C         25.4070   47.7740   11.6140 C.2    99  MET99       0.2616
     92  O         26.2560   48.2890   10.8990 O.2    99  MET99      -0.2715
     93  CB        27.1710   46.5780   12.9350 C.3    99  MET99       0.0427
     94  CG        27.5890   45.3500   13.7520 C.3    99  MET99       0.0599
     95  SD        27.0240   45.3880   15.4810 S.3    99  MET99      -0.1393
     96  CE        25.3260   45.1070   15.3030 C.3    99  MET99       0.0692
     97  N         24.1730   48.2490   11.7390 N.am  100  ALA100     -0.1977
     98  CA        23.6400   49.3220   10.9080 C.3   100  ALA100      0.1597
     99  C         24.5030   50.5700   10.8840 C.2   100  ALA100      0.2287
    100  O         24.4860   51.3130    9.9050 O.2   100  ALA100     -0.2864
    101  CB        22.2430   49.6870   11.3730 C.3   100  ALA100      0.0319
    102  N         27.6560   50.8240   10.7330 N.3   102  GLY102     -0.1210
    103  CA        28.9060   50.6700   10.0180 C.3   102  GLY102      0.1956
    104  C         30.0990   50.7000   10.9550 C.2   102  GLY102      0.2611
    105  O         29.9400   50.6440   12.1790 O.2   102  GLY102     -0.2717
    106  N         31.2980   50.7910   10.3880 N.am  103  ASP103     -0.1973
    107  CA        32.5020   50.7900   11.2070 C.3   103  ASP103      0.1709
    108  C         32.6760   52.1140   11.9580 C.2   103  ASP103      0.2293
    109  O         32.1630   53.1550   11.5480 O.2   103  ASP103     -0.2864
    110  CB        33.7400   50.4860   10.3480 C.3   103  ASP103      0.1436
    111  CG        34.1020   51.6170    9.4050 C.2   103  ASP103      0.3671
    112  OD1       33.4390   51.7650    8.3530 O.co2 103  ASP103     -0.2456
    113  OD2       35.0580   52.3530    9.7190 O.co2 103  ASP103     -0.2456
    114  N         34.6450   55.2350   10.0320 N.3   106  SER106     -0.1217
    115  CA        33.7750   55.8960    9.0730 C.3   106  SER106      0.1889
    116  C         32.6950   56.6930    9.7930 C.2   106  SER106      0.2288
    117  O         32.3540   57.8010    9.3960 O.2   106  SER106     -0.2866
    118  CB        33.1230   54.8620    8.1590 C.3   106  SER106      0.2089
    119  OG        34.1000   54.1910    7.3850 O.3   106  SER106     -0.2183
    120  N         38.7830   51.0750   13.0110 N.3   153  ARG153     -0.1231
    121  CA        38.3510   50.4590   11.7580 C.3   153  ARG153      0.1694
    122  C         37.8500   49.0250   11.9710 C.2   153  ARG153      0.2592
    123  O         37.1320   48.4800   11.1330 O.2   153  ARG153     -0.2718
    124  CB        39.5070   50.4580   10.7510 C.3   153  ARG153      0.0321
    125  CG        40.6650   49.5300   11.1110 C.3   153  ARG153      0.0489
    126  CD        41.9340   49.9160   10.3590 C.3   153  ARG153      0.2205
    127  NE        42.8520   48.7900   10.2050 N.pl3 153  ARG153     -0.0865
    128  CZ        43.9380   48.5780   10.9490 C.cat 153  ARG153      0.5346
    129  NH1       44.2730   49.4200   11.9230 N.pl3 153  ARG153      0.1354
    130  NH2       44.6890   47.5080   10.7200 N.pl3 153  ARG153      0.1354
    131  N         38.2340   48.4240   13.0970 N.am  154  ASN154     -0.1974
    132  CA        37.7920   47.0770   13.4520 C.3   154  ASN154      0.1688
    133  C         36.6910   47.0900   14.5110 C.2   154  ASN154      0.2292
    134  O         36.3990   46.0680   15.1240 O.2   154  ASN154     -0.2864
    135  CB        38.9760   46.2570   13.9550 C.3   154  ASN154      0.1181
    136  CG        40.0910   46.1610   12.9290 C.2   154  ASN154      0.2629
    137  OD1       39.8450   45.8930   11.7500 O.2   154  ASN154     -0.2716
    138  ND2       41.3250   46.3900   13.3700 N.am  154  ASN154     -0.0877
    139  N         32.5110   48.2220   15.1450 N.3   156  LEU156     -0.1245
    140  CA        31.2510   48.5090   14.4540 C.3   156  LEU156      0.1561
    141  C         30.2240   49.0970   15.4140 C.2   156  LEU156      0.2260
    142  O         30.3660   48.9810   16.6330 O.2   156  LEU156     -0.2867
    143  CB        30.6860   47.2300   13.8380 C.3   156  LEU156      0.0270
    144  CG        31.4920   46.5460   12.7330 C.3   156  LEU156      0.0019
    145  CD1       30.9910   45.1300   12.5360 C.3   156  LEU156      0.0001
    146  CD2       31.3750   47.3320   11.4460 C.3   156  LEU156      0.0001
    147  N         34.5310   43.9020   15.9060 N.3   169  GLY169     -0.1210
    148  CA        33.8420   43.2620   14.7970 C.3   169  GLY169      0.1956
    149  C         34.7410   42.5840   13.7840 C.2   169  GLY169      0.2611
    150  O         34.2690   41.8460   12.9240 O.2   169  GLY169     -0.2717
    151  N         36.0400   42.8380   13.8690 N.am  170  ASP170     -0.1973
    152  CA        37.0000   42.1530   13.0160 C.3   170  ASP170      0.1709
    153  C         38.1050   41.5170   13.8510 C.2   170  ASP170      0.2293
    154  O         38.6010   42.1230   14.8000 O.2   170  ASP170     -0.2864
    155  CB        37.6100   43.1310   12.0200 C.3   170  ASP170      0.1436
    156  CG        38.6430   42.4780   11.1320 C.2   170  ASP170      0.3671
    157  OD1       39.7620   42.2000   11.6180 O.co2 170  ASP170     -0.2456
    158  OD2       38.3350   42.2360    9.9480 O.co2 170  ASP170     -0.2456
@<TRIPOS>BOND
     1    22    20   ar
     2    22    21   ar
     3    20    18   ar
     4    21    19   ar
     5    18    19   ar
     6    18    17    1
     7    17    14    1
     8    14    13    1
     9    14    15    1
    10    13    11   am
    11    12    11    2
    12    11    10    1
    13     1     2    1
    14    15    23   am
    15    15    16    2
    16    10     9    1
    17     9     3   am
    18    27    28    1
    19    30    29    2
    20    23    24    1
    21    37    36    2
    22     3     2    1
    23     3     4    2
    24     2     5    1
    25    29    28    1
    26    25    24    1
    27    25    26    2
    28    28    31    1
    29    34    35    1
    30    36    35    1
    31     5     6    1
    32    38    35    1
    33    38    39    1
    34     6     8    1
    35     6     7    1
    36    31    33    1
    37    31    32    1
    38    50    51    2
    39    50    49    1
    40    39    40    1
    41    40    42   ar
    42    40    41   ar
    43    49    48    1
    44    49    52    1
    45    56    55    1
    46    53    52    1
    47    53    54    1
    48    45    44    1
    49    45    46    2
    50    54    55    1
    51    44    47    1
    52    44    43    1
    53   119   118    1
    54    87    86    1
    55   118   115    1
    56   112   111   ar
    57    88    86    1
    58   115   116    1
    59   115   114    1
    60    86    85    1
    61   117   116    2
    62   111   113   ar
    63   111   110    1
    64   100    99    2
    65   158   156   ar
    66    85    82    1
    67   103   102    1
    68   103   104    1
    69    64    65    1
    70   127   126    1
    71   127   128    2
    72   110   107    1
    73   126   125    1
    74   106   104   am
    75   106   107    1
    76    67    66    2
    77   130   128    1
    78    70    69    1
    79   124   125    1
    80   124   121    1
    81    69    68    1
    82    69    71    1
    83    99    98    1
    84    82    81    1
    85    82    83    1
    86    92    91    2
    87    98   101    1
    88    98    97    1
    89   128   129    1
    90   104   105    2
    91    68    65    1
    92   156   157   ar
    93   156   155    1
    94   123   122    2
    95   107   108    1
    96    65    66    1
    97   146   144    1
    98   109   108    2
    99    66    72   am
   100    91    97   am
   101    91    90    1
   102    89    83   am
   103    89    90    1
   104    81    74   am
   105   137   136    2
   106    83    84    2
   107   121   122    1
   108   121   120    1
   109   122   131   am
   110   155   152    1
   111    75    74    2
   112    74    73    1
   113    90    93    1
   114   145   144    1
   115   144   143    1
   116    72    73    1
   117   150   149    2
   118   136   138   am
   119   136   135    1
   120    93    94    1
   121   152   153    1
   122   152   151    1
   123   131   132    1
   124    73    76    1
   125   132   135    1
   126   132   133    1
   127    94    95    1
   128   149   151   am
   129   149   148    1
   130   143   140    1
   131   153   154    2
   132   140   139    1
   133   140   141    1
   134   133   134    2
   135    76    77    1
   136    63    61    1
   137   148   147    1
   138    96    95    1
   139    62    61    1
   140    77    78    1
   141   141   142    2
   142    61    58    1
   143    78    79   ar
   144    78    80   ar
   145    59    58    1
   146    59    60    2
   147    58    57    1
