@<TRIPOS>MOLECULE
tmp/5kz7A00.pdb
 147 138 0 0 0
SMALL
GASTEIGER

@<TRIPOS>ATOM
      1  N         45.9420   39.3920   32.1920 N.3    12  ILE12      -0.1231
      2  CA        46.1350   38.0040   31.7550 C.3    12  ILE12       0.1692
      3  C         45.0610   37.5180   30.7450 C.2    12  ILE12       0.2592
      4  O         45.1520   36.4050   30.2310 O.2    12  ILE12      -0.2718
      5  CB        46.2970   37.0350   32.9610 C.3    12  ILE12       0.0266
      6  CG1       45.0530   36.9970   33.8580 C.3    12  ILE12       0.0019
      7  CG2       47.5670   37.3620   33.7630 C.3    12  ILE12       0.0020
      8  CD1       44.9630   35.7810   34.7390 C.3    12  ILE12       0.0001
      9  N         44.0870   38.3670   30.4540 N.am   13  GLY13      -0.1957
     10  CA        43.0170   38.0720   29.5140 C.3    13  GLY13       0.1869
     11  C         42.0110   39.1950   29.3500 C.2    13  GLY13       0.2309
     12  O         41.7730   39.9770   30.2780 O.2    13  GLY13      -0.2863
     13  N         39.9450   39.7070   32.7500 N.3    20  VAL20      -0.1245
     14  CA        40.6880   39.1850   33.8940 C.3    20  VAL20       0.1561
     15  C         42.0100   39.8900   34.0150 C.2    20  VAL20       0.2260
     16  O         42.8010   39.8750   33.0760 O.2    20  VAL20      -0.2867
     17  CB        40.8720   37.6460   33.8530 C.3    20  VAL20       0.0252
     18  CG1       41.5340   37.1370   35.1280 C.3    20  VAL20       0.0019
     19  CG2       39.5460   36.9350   33.6350 C.3    20  VAL20       0.0019
     20  N         43.7010   36.8470   40.7420 N.3    33  ALA33      -0.1245
     21  CA        43.2330   37.1410   39.3970 C.3    33  ALA33       0.1562
     22  C         41.7920   37.6690   39.5530 C.2    33  ALA33       0.2260
     23  O         40.9200   36.9380   40.0400 O.2    33  ALA33      -0.2867
     24  CB        43.2700   35.8890   38.5360 C.3    33  ALA33       0.0290
     25  N         38.3360   38.9180   37.9570 N.3    35  LYS35      -0.1245
     26  CA        37.4330   38.8100   36.8090 C.3    35  LYS35       0.1561
     27  C         36.5290   40.0530   36.8740 C.2    35  LYS35       0.2260
     28  O         35.6650   40.1450   37.7530 O.2    35  LYS35      -0.2867
     29  CB        36.6170   37.5020   36.9010 C.3    35  LYS35       0.0271
     30  CG        36.4280   36.7810   35.5800 C.3    35  LYS35       0.0035
     31  CD        36.2850   35.2640   35.7580 C.3    35  LYS35       0.0206
     32  CE        35.7350   34.6420   34.4890 C.3    35  LYS35       0.1093
     33  NZ        35.7150   33.1630   34.5390 N.3    35  LYS35      -0.1314
     34  N         39.3770   26.5160   41.1870 N.3    66  VAL66      -0.1245
     35  CA        39.8350   27.8590   41.5620 C.3    66  VAL66       0.1561
     36  C         38.9420   28.4350   42.6640 C.2    66  VAL66       0.2260
     37  O         37.7120   28.4930   42.5340 O.2    66  VAL66      -0.2867
     38  CB        40.0970   28.8680   40.4020 C.3    66  VAL66       0.0252
     39  CG1       41.0880   28.3040   39.3950 C.3    66  VAL66       0.0019
     40  CG2       38.8130   29.3290   39.7090 C.3    66  VAL66       0.0019
     41  N         39.5650   35.6910   42.3800 N.3    82  MET82      -0.1230
     42  CA        39.8860   34.2680   42.4490 C.3    82  MET82       0.1702
     43  C         41.3570   33.9750   42.4950 C.2    82  MET82       0.2592
     44  O         42.1660   34.8410   42.1430 O.2    82  MET82      -0.2718
     45  CB        39.2990   33.5580   41.2300 C.3    82  MET82       0.0401
     46  CG        37.8130   33.5390   41.2150 C.3    82  MET82       0.0596
     47  SD        37.2540   33.5570   39.5210 S.3    82  MET82      -0.1393
     48  CE        35.5230   33.5570   39.8060 C.3    82  MET82       0.0692
     49  N         41.7190   32.7380   42.8940 N.am   83  GLU83      -0.1966
     50  CA        43.1260   32.3650   42.9410 C.3    83  GLU83       0.1733
     51  C         43.7000   32.3220   41.5340 C.2    83  GLU83       0.2616
     52  O         43.0370   31.8470   40.6110 O.2    83  GLU83      -0.2715
     53  CB        43.3960   31.0910   43.7650 C.3    83  GLU83       0.0429
     54  CG        42.9010   29.7720   43.1980 C.3    83  GLU83       0.1163
     55  CD        43.4760   28.5610   43.9080 C.2    83  GLU83       0.3649
     56  OE1       42.6950   27.6530   44.2760 O.co2  83  GLU83      -0.2457
     57  OE2       44.7130   28.5180   44.0920 O.co2  83  GLU83      -0.2457
     58  N         44.8980   32.8980   41.3630 N.am   84  TYR84      -0.1960
     59  CA        45.5840   32.9590   40.0760 C.3    84  TYR84       0.1771
     60  C         46.4030   31.6630   39.8620 C.2    84  TYR84       0.2619
     61  O         47.2110   31.2970   40.7260 O.2    84  TYR84      -0.2715
     62  CB        46.4350   34.2540   40.0030 C.3    84  TYR84       0.0574
     63  CG        47.4310   34.2860   38.8670 C.ar   84  TYR84      -0.0198
     64  CD1       47.0160   34.4470   37.5510 C.ar   84  TYR84      -0.0009
     65  CD2       48.7920   34.1430   39.1080 C.ar   84  TYR84      -0.0009
     66  CE1       47.9300   34.4590   36.4980 C.ar   84  TYR84       0.0417
     67  CE2       49.7160   34.1550   38.0640 C.ar   84  TYR84       0.0417
     68  CZ        49.2800   34.3040   36.7590 C.ar   84  TYR84       0.1957
     69  OH        50.1810   34.3170   35.7220 O.3    84  TYR84      -0.2866
     70  N         46.1660   30.9610   38.7310 N.am   85  ALA85      -0.1963
     71  CA        46.8720   29.7190   38.3760 C.3    85  ALA85       0.1728
     72  C         48.0270   30.0500   37.4240 C.2    85  ALA85       0.2616
     73  O         47.8290   30.1580   36.2080 O.2    85  ALA85      -0.2715
     74  CB        45.9070   28.7190   37.7480 C.3    85  ALA85       0.0334
     75  N         49.2190   30.2480   38.0300 N.am   86  SER86      -0.1950
     76  CA        50.5190   30.6210   37.4660 C.3    86  SER86       0.1924
     77  C         51.0010   29.8150   36.2570 C.2    86  SER86       0.2314
     78  O         51.5790   30.4070   35.3400 O.2    86  SER86      -0.2863
     79  CB        51.5920   30.5850   38.5470 C.3    86  SER86       0.2116
     80  OG        51.1070   30.0830   39.7820 O.3    86  SER86      -0.2180
     81  N         49.3670   28.3220   33.7760 N.3    88  GLY88      -0.1210
     82  CA        48.6910   28.6700   32.5320 C.3    88  GLY88       0.1956
     83  C         47.6570   27.6690   32.0760 C.2    88  GLY88       0.2614
     84  O         47.1180   26.9280   32.8950 O.2    88  GLY88      -0.2717
     85  N         47.3690   27.6400   30.7630 N.am   89  GLU89      -0.1933
     86  CA        46.3760   26.7230   30.1810 C.3    89  GLU89       0.1818
     87  C         46.9670   25.3520   29.9510 C.2    89  GLU89       0.2332
     88  O         48.1140   25.2570   29.5060 O.2    89  GLU89      -0.2860
     89  CB        45.8830   27.2360   28.8240 C.2    89  GLU89       0.0097
     90  CG        45.1930   28.5840   28.8560 C.2    89  GLU89       0.0837
     91  CD        44.8380   29.1740   27.5020 C.2    89  GLU89       0.3877
     92  OE1       44.7170   30.4210   27.4200 O.co2  89  GLU89      -0.2406
     93  OE2       44.6780   28.4010   26.5270 O.co2  89  GLU89      -0.2406
     94  N         47.8150   25.1020   26.1120 N.3    92  ASP92      -0.1239
     95  CA        49.1280   25.5680   25.6700 C.3    92  ASP92       0.1674
     96  C         50.2190   24.5820   26.0270 C.2    92  ASP92       0.2266
     97  O         51.2130   24.4950   25.3080 O.2    92  ASP92      -0.2867
     98  CB        49.4470   26.9490   26.2490 C.3    92  ASP92       0.1410
     99  CG        48.4300   28.0370   25.9130 C.2    92  ASP92       0.3668
    100  OD1       48.0460   28.1560   24.7220 O.co2  92  ASP92      -0.2456
    101  OD2       48.0260   28.7810   26.8390 O.co2  92  ASP92      -0.2456
    102  N         40.3030   23.7960   27.5440 N.3   132  GLU132     -0.1231
    103  CA        40.5070   25.2470   27.6260 C.3   132  GLU132      0.1699
    104  C         39.4820   25.8430   28.6140 C.2   132  GLU132      0.2592
    105  O         38.8220   26.8600   28.3740 O.2   132  GLU132     -0.2718
    106  CB        40.5320   25.9290   26.2330 C.3   132  GLU132      0.0402
    107  CG        39.2840   25.7580   25.3560 C.3   132  GLU132      0.1161
    108  CD        39.0060   24.4210   24.6720 C.2   132  GLU132      0.3649
    109  OE1       39.8200   23.4650   24.8040 O.co2 132  GLU132     -0.2457
    110  OE2       37.9460   24.3460   23.9960 O.co2 132  GLU132     -0.2457
    111  N         39.3710   25.1440   29.7360 N.am  133  ASN133     -0.1960
    112  CA        38.5240   25.3780   30.9030 C.3   133  ASN133      0.1819
    113  C         39.3760   24.8530   32.0900 C.2   133  ASN133      0.2621
    114  O         39.0360   25.0870   33.2600 O.2   133  ASN133     -0.2715
    115  CB        37.1950   24.5780   30.7470 C.3   133  ASN133      0.1195
    116  CG        36.1080   24.7910   31.7920 C.2   133  ASN133      0.2630
    117  OD1       36.2310   24.3910   32.9650 O.2   133  ASN133     -0.2716
    118  ND2       34.9990   25.4050   31.3760 N.am  133  ASN133     -0.0877
    119  N         40.5010   24.1390   31.7520 N.am  134  LEU134     -0.1963
    120  CA        41.4560   23.5540   32.6960 C.3   134  LEU134      0.1728
    121  C         42.7250   24.4000   32.7750 C.2   134  LEU134      0.2616
    122  O         43.3080   24.7340   31.7440 O.2   134  LEU134     -0.2715
    123  CB        41.7920   22.1010   32.3120 C.3   134  LEU134      0.0311
    124  CG        40.6670   21.0610   32.4130 C.3   134  LEU134      0.0022
    125  CD1       40.8120   19.9860   31.3580 C.3   134  LEU134      0.0001
    126  CD2       40.6370   20.4090   33.7700 C.3   134  LEU134      0.0001
    127  N         43.1370   24.7580   34.0060 N.am  135  LEU135     -0.1977
    128  CA        44.3260   25.5730   34.3120 C.3   135  LEU135      0.1596
    129  C         45.3630   24.7940   35.1300 C.2   135  LEU135      0.2287
    130  O         45.0650   23.7290   35.6730 O.2   135  LEU135     -0.2864
    131  CB        43.9470   26.8580   35.0980 C.3   135  LEU135      0.0297
    132  CG        43.2390   27.9940   34.3740 C.3   135  LEU135      0.0022
    133  CD1       42.7350   29.0190   35.3580 C.3   135  LEU135      0.0001
    134  CD2       44.1530   28.6610   33.3670 C.3   135  LEU135      0.0001
    135  N         38.8390   26.1270   36.1360 N.3   145  ALA145     -0.1231
    136  CA        38.5130   27.5390   36.0400 C.3   145  ALA145      0.1694
    137  C         37.0670   27.8890   36.3650 C.2   145  ALA145      0.2592
    138  O         36.7360   28.0240   37.5420 O.2   145  ALA145     -0.2718
    139  CB        38.9130   28.0870   34.6800 C.3   145  ALA145      0.0304
    140  N         36.2050   28.0710   35.3630 N.am  146  ASP146     -0.1974
    141  CA        34.8560   28.4970   35.6840 C.3   146  ASP146      0.1709
    142  C         33.7540   27.8040   34.9260 C.2   146  ASP146      0.2293
    143  O         34.0100   26.9880   34.0330 O.2   146  ASP146     -0.2864
    144  CB        34.7450   30.0260   35.4890 C.3   146  ASP146      0.1436
    145  CG        35.4660   30.8490   36.5400 C.2   146  ASP146      0.3671
    146  OD1       34.9080   31.0200   37.6370 O.co2 146  ASP146     -0.2456
    147  OD2       36.5960   31.3240   36.2560 O.co2 146  ASP146     -0.2456
@<TRIPOS>BOND
     1   110   108   ar
     2   108   109   ar
     3   108   107    1
     4   100    99   ar
     5    97    96    2
     6   107   106    1
     7    95    96    1
     8    95    94    1
     9    95    98    1
    10    99    98    1
    11    99   101   ar
    12   106   103    1
    13    93    91   ar
    14    92    91   ar
    15    91    90    1
    16   102   103    1
    17   103   104    1
    18   105   104    2
    19   104   111   am
    20    89    90    2
    21    89    86    1
    22    11    10    1
    23    11    12    2
    24    88    87    2
    25    10     9    1
    26   111   112    1
    27    87    86    1
    28    86    85    1
    29     4     3    2
    30     9     3   am
    31     3     2    1
    32   115   112    1
    33   115   116    1
    34    85    83   am
    35   112   113    1
    36   125   124    1
    37   118   116   am
    38   122   121    2
    39   119   113   am
    40   119   120    1
    41     2     1    1
    42     2     5    1
    43   116   117    2
    44    83    82    1
    45    83    84    2
    46   113   114    2
    47   123   124    1
    48   123   120    1
    49   124   126    1
    50    82    81    1
    51   120   121    1
    52    13    14    1
    53   121   127   am
    54     5     7    1
    55     5     6    1
    56    16    15    2
    57   134   132    1
    58    19    17    1
    59    17    14    1
    60    17    18    1
    61     6     8    1
    62    14    15    1
    63   127   128    1
    64   143   142    2
    65   128   131    1
    66   128   129    1
    67   132   131    1
    68   132   133    1
    69    32    33    1
    70    32    31    1
    71   139   136    1
    72   142   141    1
    73   129   130    2
    74    78    77    2
    75   140   141    1
    76   140   137   am
    77   144   141    1
    78   144   145    1
    79    30    31    1
    80    30    29    1
    81    69    68    1
    82   136   135    1
    83   136   137    1
    84    73    72    2
    85   147   145   ar
    86    77    76    1
    87   137   138    2
    88    66    68   ar
    89    66    64   ar
    90   145   146   ar
    91    68    67   ar
    92    26    27    1
    93    26    29    1
    94    26    25    1
    95    27    28    2
    96    72    75   am
    97    72    71    1
    98    76    75    1
    99    76    79    1
   100    64    63   ar
   101    74    71    1
   102    67    65   ar
   103    71    70    1
   104    24    21    1
   105    79    80    1
   106    70    60   am
   107    63    65   ar
   108    63    62    1
   109    39    38    1
   110    21    22    1
   111    21    20    1
   112    47    48    1
   113    47    46    1
   114    22    23    2
   115    40    38    1
   116    60    59    1
   117    60    61    2
   118    62    59    1
   119    59    58    1
   120    38    35    1
   121    52    51    2
   122    34    35    1
   123    46    45    1
   124    45    42    1
   125    58    51   am
   126    51    50    1
   127    35    36    1
   128    44    43    2
   129    41    42    1
   130    42    43    1
   131    43    49   am
   132    37    36    2
   133    49    50    1
   134    50    53    1
   135    54    53    1
   136    54    55    1
   137    55    57   ar
   138    55    56   ar
