@<TRIPOS>MOLECULE
tmp/5kz8B00.pdb
 139 129 0 0 0
SMALL
GASTEIGER

@<TRIPOS>ATOM
      1  N         49.9160   34.4090    4.3460 N.3    12  ILE12      -0.1231
      2  CA        48.6310   34.9190    4.8300 C.3    12  ILE12       0.1692
      3  C         48.0280   34.0260    5.9310 C.2    12  ILE12       0.2592
      4  O         47.1910   34.5060    6.6890 O.2    12  ILE12      -0.2718
      5  CB        47.6180   35.2420    3.6940 C.3    12  ILE12       0.0266
      6  CG1       47.7170   34.2460    2.5100 C.3    12  ILE12       0.0019
      7  CG2       47.8030   36.6940    3.2310 C.3    12  ILE12       0.0020
      8  CD1       46.6870   34.4260    1.3920 C.3    12  ILE12       0.0001
      9  N         48.4580   32.7680    6.0120 N.am   13  GLY13      -0.1957
     10  CA        47.9800   31.7970    6.9980 C.3    13  GLY13       0.1869
     11  C         48.8460   30.5540    7.1010 C.2    13  GLY13       0.2309
     12  O         49.5570   30.2260    6.1500 O.2    13  GLY13      -0.2863
     13  N         49.1990   28.7520    3.6670 N.3    20  VAL20      -0.1245
     14  CA        48.7150   29.5830    2.5550 C.3    20  VAL20       0.1561
     15  C         49.6690   30.7730    2.3960 C.2    20  VAL20       0.2260
     16  O         49.6700   31.6800    3.2220 O.2    20  VAL20      -0.2867
     17  CB        47.2350   30.0310    2.7070 C.3    20  VAL20       0.0252
     18  CG1       46.7350   30.7120    1.4390 C.3    20  VAL20       0.0019
     19  CG2       46.3300   28.8610    3.0630 C.3    20  VAL20       0.0019
     20  N         47.4030   33.4120   -4.3700 N.3    33  ALA33      -0.1245
     21  CA        47.4700   32.9270   -2.9980 C.3    33  ALA33       0.1562
     22  C         47.6440   31.4320   -3.1230 C.2    33  ALA33       0.2260
     23  O         46.7240   30.7570   -3.5690 O.2    33  ALA33      -0.2867
     24  CB        46.1860   33.2640   -2.2510 C.3    33  ALA33       0.0290
     25  N         48.0770   27.6780   -1.6560 N.3    35  LYS35      -0.1245
     26  CA        47.7880   26.7850   -0.5280 C.3    35  LYS35       0.1561
     27  C         48.7960   25.6050   -0.6480 C.2    35  LYS35       0.2260
     28  O         48.8740   24.9770   -1.7150 O.2    35  LYS35      -0.2867
     29  CB        46.3220   26.3030   -0.5970 C.3    35  LYS35       0.0271
     30  CG        45.7420   25.8510    0.7260 C.3    35  LYS35       0.0035
     31  CD        44.3090   26.3270    0.8740 C.3    35  LYS35       0.0206
     32  CE        43.7220   25.7740    2.1400 C.3    35  LYS35       0.1093
     33  NZ        42.3680   26.3110    2.4200 N.3    35  LYS35      -0.1314
     34  N         36.3740   31.9840   -4.7930 N.3    66  VAL66      -0.1245
     35  CA        37.8140   31.9960   -5.1000 C.3    66  VAL66       0.1561
     36  C         38.0930   31.0690   -6.2950 C.2    66  VAL66       0.2260
     37  O         37.7330   29.8850   -6.2750 O.2    66  VAL66      -0.2867
     38  CB        38.7920   31.7340   -3.9160 C.3    66  VAL66       0.0252
     39  CG1       38.9790   32.9760   -3.0520 C.3    66  VAL66       0.0019
     40  CG2       38.3920   30.5160   -3.0790 C.3    66  VAL66       0.0019
     41  N         45.4070   29.5560   -5.9910 N.3    82  MET82      -0.1230
     42  CA        44.0800   30.1610   -6.0490 C.3    82  MET82       0.1702
     43  C         44.0970   31.6700   -6.0940 C.2    82  MET82       0.2592
     44  O         45.1570   32.2830   -6.0000 O.2    82  MET82      -0.2718
     45  CB        43.2220   29.6770   -4.8730 C.3    82  MET82       0.0401
     46  CG        42.8330   28.2310   -4.9690 C.3    82  MET82       0.0596
     47  SD        42.1350   27.7060   -3.4090 S.3    82  MET82      -0.1393
     48  CE        41.9620   25.9860   -3.7060 C.3    82  MET82       0.0692
     49  N         42.9080   32.2620   -6.2430 N.am   83  GLU83      -0.1966
     50  CA        42.6760   33.6970   -6.3010 C.3    83  GLU83       0.1733
     51  C         42.9020   34.3450   -4.9210 C.2    83  GLU83       0.2616
     52  O         42.4010   33.8330   -3.9170 O.2    83  GLU83      -0.2715
     53  CB        41.2480   33.9530   -6.8220 C.3    83  GLU83       0.0429
     54  CG        40.8450   35.4100   -6.8540 C.3    83  GLU83       0.1163
     55  CD        39.4610   35.6920   -7.3900 C.2    83  GLU83       0.3649
     56  OE1       38.5440   34.8540   -7.2140 O.co2  83  GLU83      -0.2457
     57  OE2       39.2980   36.7800   -7.9860 O.co2  83  GLU83      -0.2457
     58  N         43.6580   35.4660   -4.8840 N.am   84  TYR84      -0.1960
     59  CA        43.9430   36.1790   -3.6450 C.3    84  TYR84       0.1771
     60  C         42.8770   37.2510   -3.3600 C.2    84  TYR84       0.2619
     61  O         42.6010   38.1040   -4.2070 O.2    84  TYR84      -0.2715
     62  CB        45.3830   36.7550   -3.6410 C.3    84  TYR84       0.0574
     63  CG        45.7040   37.6590   -2.4650 C.ar   84  TYR84      -0.0198
     64  CD1       45.8030   37.1470   -1.1710 C.ar   84  TYR84      -0.0009
     65  CD2       45.9270   39.0200   -2.6460 C.ar   84  TYR84      -0.0009
     66  CE1       46.0940   37.9750   -0.0830 C.ar   84  TYR84       0.0417
     67  CE2       46.2240   39.8570   -1.5670 C.ar   84  TYR84       0.0417
     68  CZ        46.3000   39.3320   -0.2850 C.ar   84  TYR84       0.1957
     69  OH        46.5800   40.1570    0.7840 O.3    84  TYR84      -0.2866
     70  N         42.2710   37.1940   -2.1640 N.am   85  ALA85      -0.1963
     71  CA        41.2560   38.1490   -1.7250 C.3    85  ALA85       0.1728
     72  C         41.9200   39.0960   -0.7130 C.2    85  ALA85       0.2616
     73  O         42.0370   38.7640    0.4580 O.2    85  ALA85      -0.2715
     74  CB        40.0890   37.4020   -1.1030 C.3    85  ALA85       0.0334
     75  N         42.3670   40.2660   -1.1820 N.am   86  SER86      -0.1950
     76  CA        43.1010   41.2910   -0.4120 C.3    86  SER86       0.1924
     77  C         42.3840   41.9290    0.8100 C.2    86  SER86       0.2314
     78  O         43.0560   42.3630    1.7540 O.2    86  SER86      -0.2863
     79  CB        43.5980   42.4080   -1.3320 C.3    86  SER86       0.2116
     80  OG        43.0790   42.3430   -2.6600 O.3    86  SER86      -0.2180
     81  N         40.6250   40.4880    3.0870 N.3    88  GLY88      -0.1210
     82  CA        40.6040   39.5880    4.2350 C.3    88  GLY88       0.1956
     83  C         39.2500   38.9950    4.4980 C.2    88  GLY88       0.2611
     84  O         38.4070   39.0000    3.6070 O.2    88  GLY88      -0.2717
     85  N         39.0180   38.4590    5.6990 N.am   89  GLU89      -0.1979
     86  CA        37.7090   37.8560    5.9580 C.3    89  GLU89       0.1602
     87  C         36.6730   38.8970    6.4020 C.2    89  GLU89       0.2287
     88  O         37.0170   39.9630    6.9260 O.2    89  GLU89      -0.2864
     89  CB        37.7460   36.6160    6.8740 C.3    89  GLU89       0.0415
     90  CG        38.3570   36.7860    8.2450 C.3    89  GLU89       0.1163
     91  CD        38.6370   35.4670    8.9390 C.2    89  GLU89       0.3649
     92  OE1       38.0220   35.2080    9.9980 O.co2  89  GLU89      -0.2457
     93  OE2       39.4780   34.6930    8.4290 O.co2  89  GLU89      -0.2457
     94  N         36.4060   39.5750   10.2260 N.3    92  ASP92      -0.1239
     95  CA        37.3200   40.6230   10.6700 C.3    92  ASP92       0.1674
     96  C         36.8430   42.0150   10.2560 C.2    92  ASP92       0.2266
     97  O         37.1240   42.9630   10.9820 O.2    92  ASP92      -0.2867
     98  CB        38.7710   40.3470   10.2370 C.3    92  ASP92       0.1410
     99  CG        39.3960   39.0720   10.7990 C.2    92  ASP92       0.3668
    100  OD1       38.9260   38.5870   11.8580 O.co2  92  ASP92      -0.2456
    101  OD2       40.3590   38.5610   10.1810 O.co2  92  ASP92      -0.2456
    102  N         33.9170   33.7780    8.6210 N.3   132  GLU132     -0.1231
    103  CA        35.3440   33.5380    8.4610 C.3   132  GLU132      0.1699
    104  C         35.6050   32.9650    7.0760 C.2   132  GLU132      0.2592
    105  O         36.6320   33.2550    6.4780 O.2   132  GLU132     -0.2718
    106  CB        35.8420   32.5530    9.5370 C.3   132  GLU132      0.0402
    107  CG        35.5100   32.9680   10.9600 C.3   132  GLU132      0.1161
    108  CD        34.2330   32.3920   11.5430 C.2   132  GLU132      0.3649
    109  OE1       34.3250   31.3260   12.1930 O.co2 132  GLU132     -0.2457
    110  OE2       33.1450   32.9810   11.3460 O.co2 132  GLU132     -0.2457
    111  N         34.6520   32.1610    6.5750 N.am  133  ASN133     -0.1974
    112  CA        34.6080   31.4620    5.2870 C.3   133  ASN133      0.1688
    113  C         34.3670   32.3890    4.0910 C.2   133  ASN133      0.2292
    114  O         34.4800   31.9540    2.9470 O.2   133  ASN133     -0.2864
    115  CB        33.4720   30.4410    5.3320 C.3   133  ASN133      0.1181
    116  CG        33.9090   29.0050    5.5220 C.2   133  ASN133      0.2629
    117  OD1       34.5030   28.3660    4.6180 O.2   133  ASN133     -0.2716
    118  ND2       33.6120   28.4390    6.6930 N.am  133  ASN133     -0.0877
    119  N         35.3640   35.8890    2.1220 N.3   135  LEU135     -0.1245
    120  CA        36.4420   36.8570    1.9770 C.3   135  LEU135      0.1561
    121  C         36.0170   38.0600    1.1440 C.2   135  LEU135      0.2260
    122  O         34.9790   38.0240    0.4870 O.2   135  LEU135     -0.2867
    123  CB        37.7060   36.1960    1.3800 C.3   135  LEU135      0.0270
    124  CG        38.3480   35.0560    2.1650 C.3   135  LEU135      0.0019
    125  CD1       39.1070   34.1420    1.2580 C.3   135  LEU135      0.0001
    126  CD2       39.2580   35.5840    3.2360 C.3   135  LEU135      0.0001
    127  N         35.5340   31.4720    0.2930 N.3   145  ALA145     -0.1231
    128  CA        36.6820   30.6240    0.5730 C.3   145  ALA145      0.1694
    129  C         36.3490   29.1610    0.4810 C.2   145  ALA145      0.2592
    130  O         35.2640   28.7190    0.8810 O.2   145  ALA145     -0.2718
    131  CB        37.2760   30.9470    1.9340 C.3   145  ALA145      0.0304
    132  N         37.3250   28.4230   -0.0570 N.am  146  ASP146     -0.1974
    133  CA        37.3760   26.9920   -0.3190 C.3   146  ASP146      0.1709
    134  C         36.6810   26.1060    0.7460 C.2   146  ASP146      0.2293
    135  O         36.5230   26.5060    1.9100 O.2   146  ASP146     -0.2864
    136  CB        38.8370   26.5470   -0.5650 C.3   146  ASP146      0.1436
    137  CG        39.9430   26.9860    0.4380 C.2   146  ASP146      0.3671
    138  OD1       39.6510   27.0600    1.6960 O.co2 146  ASP146     -0.2456
    139  OD2       41.1180   27.2250   -0.0200 O.co2 146  ASP146     -0.2456
@<TRIPOS>BOND
     1    57    55   ar
     2    55    56   ar
     3    55    54    1
     4    54    53    1
     5    53    50    1
     6    50    49    1
     7    50    51    1
     8    36    37    2
     9    36    35    1
    10    49    43   am
    11    43    42    1
    12    43    44    2
    13    42    41    1
    14    42    45    1
    15    35    34    1
    16    35    38    1
    17    46    45    1
    18    46    47    1
    19    51    58   am
    20    51    52    2
    21    58    59    1
    22    20    21    1
    23    61    60    2
    24    38    40    1
    25    38    39    1
    26    48    47    1
    27    59    62    1
    28    59    60    1
    29    62    63    1
    30    23    22    2
    31    60    70   am
    32    22    21    1
    33    21    24    1
    34    80    79    1
    35    65    63   ar
    36    65    67   ar
    37    63    64   ar
    38    70    71    1
    39    71    74    1
    40    71    72    1
    41    28    27    2
    42    25    26    1
    43    67    68   ar
    44    79    76    1
    45    75    72   am
    46    75    76    1
    47    64    66   ar
    48    72    73    2
    49    27    26    1
    50    29    26    1
    51    29    30    1
    52   136   133    1
    53   136   137    1
    54    76    77    1
    55   133   132    1
    56   133   134    1
    57    68    66   ar
    58    68    69    1
    59   132   129   am
    60   139   137   ar
    61   127   128    1
    62   137   138   ar
    63   129   128    1
    64   129   130    2
    65   122   121    2
    66   128   131    1
    67    30    31    1
    68   134   135    2
    69    77    78    2
    70    31    32    1
    71   121   120    1
    72   125   124    1
    73   123   120    1
    74   123   124    1
    75     8     6    1
    76    18    17    1
    77   120   119    1
    78    32    33    1
    79   124   126    1
    80    15    14    1
    81    15    16    2
    82     6     5    1
    83    14    17    1
    84    14    13    1
    85    17    19    1
    86   114   113    2
    87    81    82    1
    88     7     5    1
    89    84    83    2
    90     5     2    1
    91   113   112    1
    92    82    83    1
    93     1     2    1
    94    83    85   am
    95   117   116    2
    96     2     3    1
    97   112   115    1
    98   112   111    1
    99   115   116    1
   100   116   118   am
   101    85    86    1
   102     3     9   am
   103     3     4    2
   104    86    87    1
   105    86    89    1
   106     9    10    1
   107    12    11    2
   108    87    88    2
   109   105   104    2
   110   111   104   am
   111    89    90    1
   112    10    11    1
   113   104   103    1
   114    90    91    1
   115    93    91   ar
   116   103   102    1
   117   103   106    1
   118    91    92   ar
   119   106   107    1
   120   101    99   ar
   121    94    95    1
   122    98    95    1
   123    98    99    1
   124    96    95    1
   125    96    97    2
   126    99   100   ar
   127   107   108    1
   128   110   108   ar
   129   108   109   ar
