@<TRIPOS>MOLECULE
tmp/5kzcB02.pdb
 84 83 0 0 0
SMALL
GASTEIGER

@<TRIPOS>ATOM
      1  N         92.1900  115.7570   41.4680 N.3    13  HIS13      -0.1226
      2  CA        93.3290  116.3590   42.1570 C.3    13  HIS13       0.1752
      3  C         94.6620  115.7370   41.7310 C.2    13  HIS13       0.2596
      4  O         95.7230  116.3100   41.9720 O.2    13  HIS13      -0.2718
      5  CB        93.1550  116.2500   43.6740 C.3    13  HIS13       0.0759
      6  CG        93.1940  114.8460   44.1900 C.ar   13  HIS13       0.0818
      7  ND1       92.1030  114.0030   44.1430 N.ar   13  HIS13      -0.2268
      8  CD2       94.1900  114.1390   44.7740 C.ar   13  HIS13       0.1154
      9  CE1       92.4280  112.8370   44.6710 C.ar   13  HIS13       0.1986
     10  NE2       93.6890  112.8930   45.0620 N.ar   13  HIS13      -0.2212
     11  N         94.5990  114.5740   41.0900 N.am   14  CYS14      -0.1956
     12  CA        95.7950  113.9200   40.5800 C.3    14  CYS14       0.1843
     13  C         96.3140  114.6230   39.3310 C.2    14  CYS14       0.2626
     14  O         97.4860  114.4730   38.9720 O.2    14  CYS14      -0.2714
     15  CB        95.5250  112.4490   40.2720 C.3    14  CYS14       0.0997
     16  SG        95.8790  111.3290   41.6510 S.3    14  CYS14      -0.0797
     17  N         95.4430  115.3820   38.6670 N.am   15  SER15      -0.1936
     18  CA        95.8460  116.1610   37.4990 C.3    15  SER15       0.2055
     19  C         96.9320  117.1550   37.8790 C.2    15  SER15       0.2644
     20  O         96.7880  117.9050   38.8470 O.2    15  SER15      -0.2714
     21  CB        94.6550  116.9020   36.9000 C.3    15  SER15       0.2130
     22  OG        93.6110  116.0030   36.5640 O.3    15  SER15      -0.2179
     23  N         98.0180  117.1670   37.1180 N.am   16  SER16      -0.1935
     24  CA        99.1570  117.9930   37.4790 C.3    16  SER16       0.2055
     25  C         99.9680  118.4730   36.2890 C.2    16  SER16       0.2643
     26  O         99.6390  118.2100   35.1360 O.2    16  SER16      -0.2714
     27  CB       100.0750  117.2300   38.4320 C.3    16  SER16       0.2130
     28  OG       101.1750  118.0360   38.8150 O.3    16  SER16      -0.2179
     29  N        101.0390  119.1890   36.5990 N.am   17  ASN17      -0.1971
     30  CA       101.9690  119.6730   35.6000 C.3    17  ASN17       0.1688
     31  C        103.0760  118.6600   35.3170 C.2    17  ASN17       0.2292
     32  O        103.6060  118.0290   36.2350 O.2    17  ASN17      -0.2864
     33  CB       102.5780  120.9970   36.0590 C.3    17  ASN17       0.1181
     34  CG       101.6270  122.1720   35.8990 C.2    17  ASN17       0.2629
     35  OD1      101.4370  122.6710   34.7930 O.2    17  ASN17      -0.2716
     36  ND2      101.0370  122.6310   36.9980 N.am   17  ASN17      -0.0877
     37  N        106.4420  113.7280   43.5610 N.3    56  VAL56      -0.1245
     38  CA       105.7260  112.6470   42.8910 C.3    56  VAL56       0.1561
     39  C        106.6350  111.5420   42.3730 C.2    56  VAL56       0.2260
     40  O        107.5500  111.7920   41.5900 O.2    56  VAL56      -0.2867
     41  CB       104.9060  113.1840   41.7040 C.3    56  VAL56       0.0252
     42  CG1      104.3160  112.0330   40.8980 C.3    56  VAL56       0.0019
     43  CG2      103.8170  114.1210   42.1980 C.3    56  VAL56       0.0019
     44  N        107.0270  114.4620   37.2640 N.3    63  LEU63      -0.1231
     45  CA       105.8740  115.2770   37.6240 C.3    63  LEU63       0.1693
     46  C        106.1240  116.1140   38.8560 C.2    63  LEU63       0.2592
     47  O        106.8830  115.7330   39.7420 O.2    63  LEU63      -0.2718
     48  CB       104.6360  114.4170   37.8400 C.3    63  LEU63       0.0284
     49  CG       104.0930  113.6870   36.6210 C.3    63  LEU63       0.0019
     50  CD1      102.8190  112.9600   37.0140 C.3    63  LEU63       0.0001
     51  CD2      103.8630  114.6380   35.4360 C.3    63  LEU63       0.0001
     52  N        105.4680  117.2670   38.8880 N.am   64  ASN64      -0.1974
     53  CA       105.5680  118.1990   40.0020 C.3    64  ASN64       0.1688
     54  C        107.0100  118.4900   40.3930 C.2    64  ASN64       0.2292
     55  O        107.3330  118.5830   41.5740 O.2    64  ASN64      -0.2864
     56  CB       104.7900  117.6600   41.2060 C.3    64  ASN64       0.1181
     57  CG       103.2930  117.9190   41.0960 C.2    64  ASN64       0.2629
     58  OD1      102.8550  118.7140   40.2620 O.2    64  ASN64      -0.2716
     59  ND2      102.5020  117.2540   41.9400 N.am   64  ASN64      -0.0877
     60  N        102.4960  106.4210   37.9130 N.3   149  PHE149     -0.1227
     61  CA       102.7850  107.4020   38.9540 C.3   149  PHE149      0.1736
     62  C        101.9920  107.1270   40.2290 C.2   149  PHE149      0.2595
     63  O        101.0970  106.2840   40.2470 O.2   149  PHE149     -0.2718
     64  CB       102.5010  108.8190   38.4460 C.3   149  PHE149      0.0547
     65  CG       101.0530  109.0730   38.1250 C.ar  149  PHE149     -0.0202
     66  CD1      100.5140  108.6640   36.9150 C.ar  149  PHE149     -0.0042
     67  CD2      100.2340  109.7340   39.0260 C.ar  149  PHE149     -0.0042
     68  CE1       99.1850  108.8990   36.6140 C.ar  149  PHE149     -0.0003
     69  CE2       98.9030  109.9720   38.7310 C.ar  149  PHE149     -0.0003
     70  CZ        98.3790  109.5530   37.5230 C.ar  149  PHE149     -0.0000
     71  N        102.3310  107.8450   41.2950 N.am  150  ASN150     -0.1960
     72  CA       101.6830  107.6620   42.5890 C.3   150  ASN150      0.1819
     73  C        100.9690  108.9260   43.0560 C.2   150  ASN150      0.2621
     74  O        101.5500  110.0110   43.0650 O.2   150  ASN150     -0.2715
     75  CB       102.7060  107.2270   43.6400 C.3   150  ASN150      0.1195
     76  CG       102.0920  107.0560   45.0170 C.2   150  ASN150      0.2630
     77  OD1      100.9210  106.6990   45.1500 O.2   150  ASN150     -0.2716
     78  ND2      102.8820  107.3170   46.0500 N.am  150  ASN150     -0.0877
     79  N         99.7070  108.7780   43.4460 N.am  151  CYS151     -0.1968
     80  CA        98.9200  109.9030   43.9330 C.3   151  CYS151      0.1712
     81  C         98.1630  109.5340   45.2040 C.2   151  CYS151      0.2296
     82  O         97.2540  108.7010   45.1800 O.2   151  CYS151     -0.2864
     83  CB        97.9410  110.3770   42.8570 C.3   151  CYS151      0.0983
     84  SG        96.9390  111.8110   43.3210 S.3   151  CYS151     -0.0798
@<TRIPOS>BOND
     1    35    34    2
     2    26    25    2
     3    31    30    1
     4    31    32    2
     5    51    49    1
     6    30    33    1
     7    30    29    1
     8    34    33    1
     9    34    36   am
    10    25    29   am
    11    25    24    1
    12    22    21    1
    13    68    66   ar
    14    68    70   ar
    15    49    50    1
    16    49    48    1
    17    21    18    1
    18    66    65   ar
    19    23    24    1
    20    23    19   am
    21    44    45    1
    22    24    27    1
    23    18    19    1
    24    18    17    1
    25    70    69   ar
    26    45    48    1
    27    45    46    1
    28    19    20    2
    29    60    61    1
    30    65    64    1
    31    65    67   ar
    32    27    28    1
    33    64    61    1
    34    17    13   am
    35    69    67   ar
    36    46    52   am
    37    46    47    2
    38    52    53    1
    39    61    62    1
    40    14    13    2
    41    13    12    1
    42    53    54    1
    43    53    56    1
    44    62    63    2
    45    62    71   am
    46    58    57    2
    47    15    12    1
    48    15    16    1
    49    54    55    2
    50    12    11    1
    51    42    41    1
    52    11     3   am
    53    57    56    1
    54    57    59   am
    55    71    72    1
    56     1     2    1
    57    40    39    2
    58    16    84    1
    59    41    43    1
    60    41    38    1
    61     3     4    2
    62     3     2    1
    63     2     5    1
    64    39    38    1
    65    72    73    1
    66    72    75    1
    67    83    84    1
    68    83    80    1
    69    38    37    1
    70    73    74    2
    71    73    79   am
    72    79    80    1
    73    75    76    1
    74     5     6    1
    75    80    81    1
    76     7     6   ar
    77     7     9   ar
    78     6     8   ar
    79     9    10   ar
    80     8    10   ar
    81    76    77    2
    82    76    78   am
    83    82    81    2
