@<TRIPOS>MOLECULE
tmp/5kzdB00.pdb
 154 147 0 0 0
SMALL
GASTEIGER

@<TRIPOS>ATOM
      1  N         67.2340  -10.9270  -16.5810 N.3    10  ALA10      -0.1245
      2  CA        67.4920  -11.1550  -17.9970 C.3    10  ALA10       0.1562
      3  C         68.4640  -10.0650  -18.4200 C.2    10  ALA10       0.2260
      4  O         68.0880   -8.8940  -18.5710 O.2    10  ALA10      -0.2867
      5  CB        66.2010  -11.1210  -18.8160 C.3    10  ALA10       0.0290
      6  N         70.5520  -14.4780  -16.5660 N.3    43  TYR43      -0.1241
      7  CA        70.0960  -15.2180  -17.7140 C.3    43  TYR43       0.1605
      8  C         70.6410  -14.4730  -18.9230 C.2    43  TYR43       0.2264
      9  O         70.1050  -13.4290  -19.3110 O.2    43  TYR43      -0.2867
     10  CB        68.5710  -15.2970  -17.7210 C.3    43  TYR43       0.0534
     11  CG        67.9720  -16.1400  -18.8200 C.ar   43  TYR43      -0.0201
     12  CD1       67.8140  -17.5160  -18.6640 C.ar   43  TYR43      -0.0009
     13  CD2       67.5400  -15.5540  -20.0120 C.ar   43  TYR43      -0.0009
     14  CE1       67.2420  -18.2870  -19.6780 C.ar   43  TYR43       0.0417
     15  CE2       66.9740  -16.3010  -21.0050 C.ar   43  TYR43       0.0417
     16  CZ        66.8290  -17.6660  -20.8400 C.ar   43  TYR43       0.1957
     17  OH        66.2500  -18.3970  -21.8450 O.3    43  TYR43      -0.2866
     18  N         69.3940  -13.7290  -23.7510 N.3    46  GLY46      -0.1210
     19  CA        67.9960  -13.9910  -24.0220 C.3    46  GLY46       0.1956
     20  C         67.4410  -12.8670  -24.8720 C.2    46  GLY46       0.2613
     21  O         68.1970  -12.0050  -25.3120 O.2    46  GLY46      -0.2717
     22  N         66.1290  -12.8960  -25.1050 N.am   47  SER47      -0.1938
     23  CA        65.3800  -11.8270  -25.7700 C.3    47  SER47       0.2055
     24  C         65.7890  -10.4430  -25.2740 C.2    47  SER47       0.2643
     25  O         66.1090   -9.5330  -26.0510 O.2    47  SER47      -0.2714
     26  CB        63.8750  -12.0140  -25.5320 C.3    47  SER47       0.2130
     27  OG        63.4490  -13.3400  -25.7970 O.3    47  SER47      -0.2179
     28  N         65.7800  -10.3210  -23.9560 N.am   48  SER48      -0.1949
     29  CA        66.0200   -9.0790  -23.2490 C.3    48  SER48       0.1924
     30  C         67.4100   -8.4940  -23.5180 C.2    48  SER48       0.2314
     31  O         67.6290   -7.2860  -23.3770 O.2    48  SER48      -0.2863
     32  CB        65.8010   -9.3440  -21.7580 C.3    48  SER48       0.2116
     33  OG        66.2470   -8.2830  -20.9540 O.3    48  SER48      -0.2180
     34  N         61.8100  -23.7160  -23.6110 N.3   136  TYR136     -0.1241
     35  CA        60.7920  -22.6510  -23.5860 C.3   136  TYR136      0.1605
     36  C         59.3550  -23.1850  -23.6030 C.2   136  TYR136      0.2264
     37  O         59.1250  -24.3860  -23.8070 O.2   136  TYR136     -0.2867
     38  CB        60.9520  -21.7150  -24.7830 C.3   136  TYR136      0.0534
     39  CG        62.0660  -20.7110  -24.6490 C.ar  136  TYR136     -0.0201
     40  CD1       63.3390  -21.1090  -24.2690 C.ar  136  TYR136     -0.0009
     41  CD2       61.8520  -19.3730  -24.9410 C.ar  136  TYR136     -0.0009
     42  CE1       64.3630  -20.2070  -24.1790 C.ar  136  TYR136      0.0417
     43  CE2       62.8720  -18.4640  -24.8570 C.ar  136  TYR136      0.0417
     44  CZ        64.1260  -18.8920  -24.4700 C.ar  136  TYR136      0.1957
     45  OH        65.1540  -17.9950  -24.3630 O.3   136  TYR136     -0.2866
     46  N         61.5510  -22.5750  -18.9850 N.3   156  LYS156     -0.1245
     47  CA        61.2610  -21.1570  -18.7880 C.3   156  LYS156      0.1561
     48  C         59.8610  -20.9080  -19.3380 C.2   156  LYS156      0.2260
     49  O         59.6530  -20.8620  -20.5550 O.2   156  LYS156     -0.2867
     50  CB        62.2810  -20.2400  -19.4800 C.3   156  LYS156      0.0271
     51  CG        61.9870  -18.7500  -19.2470 C.3   156  LYS156      0.0035
     52  CD        62.9120  -17.7990  -20.0340 C.3   156  LYS156      0.0206
     53  CE        62.4760  -17.6640  -21.4790 C.3   156  LYS156      0.1093
     54  NZ        63.4760  -16.9070  -22.2850 N.3   156  LYS156     -0.1314
     55  N         56.7420  -18.9030  -20.2330 N.3   158  THR158     -0.1218
     56  CA        56.4350  -17.5180  -20.6140 C.3   158  THR158      0.1862
     57  C         54.9890  -17.2900  -21.0720 C.2   158  THR158      0.2287
     58  O         54.5870  -16.1520  -21.3150 O.2   158  THR158     -0.2866
     59  CB        57.3440  -17.0620  -21.7450 C.3   158  THR158      0.1770
     60  OG1       57.0620  -17.8560  -22.9040 O.3   158  THR158     -0.2211
     61  CG2       58.8050  -17.2560  -21.3520 C.3   158  THR158      0.0375
     62  N         58.5200  -16.3770  -16.7150 N.3   180  GLY180     -0.1210
     63  CA        59.0840  -15.3010  -17.5190 C.3   180  GLY180      0.1956
     64  C         58.3100  -13.9930  -17.5440 C.2   180  GLY180      0.2612
     65  O         58.7410  -13.0260  -18.1750 O.2   180  GLY180     -0.2717
     66  N         57.1740  -13.9460  -16.8580 N.am  181  PHE181     -0.1962
     67  CA        56.3300  -12.7540  -16.8840 C.3   181  PHE181      0.1771
     68  C         56.3850  -11.9580  -15.5610 C.2   181  PHE181      0.2620
     69  O         55.7790  -12.3410  -14.5520 O.2   181  PHE181     -0.2715
     70  CB        54.8860  -13.1410  -17.2300 C.3   181  PHE181      0.0574
     71  CG        54.4680  -14.5180  -16.7240 C.ar  181  PHE181     -0.0200
     72  CD1       54.1980  -14.7340  -15.3760 C.ar  181  PHE181     -0.0042
     73  CD2       54.3410  -15.5920  -17.6050 C.ar  181  PHE181     -0.0042
     74  CE1       53.8060  -16.0000  -14.9190 C.ar  181  PHE181     -0.0003
     75  CE2       53.9510  -16.8460  -17.1530 C.ar  181  PHE181     -0.0003
     76  CZ        53.6850  -17.0540  -15.8050 C.ar  181  PHE181     -0.0000
     77  N         57.1120  -10.8440  -15.5880 N.am  182  ASP182     -0.1957
     78  CA        57.3100   -9.9880  -14.4130 C.3   182  ASP182      0.1840
     79  C         56.0010   -9.5120  -13.7730 C.2   182  ASP182      0.2621
     80  O         55.8510   -9.5180  -12.5500 O.2   182  ASP182     -0.2715
     81  CB        58.1650   -8.7720  -14.7960 C.3   182  ASP182      0.1450
     82  CG        59.5380   -9.1640  -15.3070 C.2   182  ASP182      0.3671
     83  OD1       59.7200  -10.3400  -15.6810 O.co2 182  ASP182     -0.2456
     84  OD2       60.4390   -8.2990  -15.3230 O.co2 182  ASP182     -0.2456
     85  N         55.0420   -9.1330  -14.6020 N.am  183  GLU183     -0.1977
     86  CA        53.8340   -8.4920  -14.1100 C.3   183  GLU183      0.1602
     87  C         52.8550   -9.4780  -13.4740 C.2   183  GLU183      0.2287
     88  O         51.8140   -9.0760  -12.9520 O.2   183  GLU183     -0.2864
     89  CB        53.1550   -7.7100  -15.2540 C.3   183  GLU183      0.0415
     90  CG        52.7320   -8.5530  -16.4820 C.3   183  GLU183      0.1163
     91  CD        53.8230   -8.7080  -17.5610 C.2   183  GLU183      0.3649
     92  OE1       55.0320   -8.5680  -17.2440 O.co2 183  GLU183     -0.2457
     93  OE2       53.4580   -8.9840  -18.7340 O.co2 183  GLU183     -0.2457
     94  N         62.7460  -15.3070  -14.2580 N.3   197  ILE197     -0.1231
     95  CA        63.6920  -14.6180  -15.1160 C.3   197  ILE197      0.1692
     96  C         63.0120  -13.3420  -15.6100 C.2   197  ILE197      0.2593
     97  O         61.8510  -13.3800  -16.0230 O.2   197  ILE197     -0.2718
     98  CB        64.1070  -15.5080  -16.2980 C.3   197  ILE197      0.0266
     99  CG1       64.6380  -16.8450  -15.7790 C.3   197  ILE197      0.0019
    100  CG2       65.1180  -14.7950  -17.1640 C.3   197  ILE197      0.0020
    101  CD1       64.7460  -17.9430  -16.8460 C.3   197  ILE197      0.0001
    102  N         63.6930  -12.2050  -15.5530 N.am  198  GLY198     -0.1942
    103  CA        62.9990  -10.9470  -15.8060 C.3   198  GLY198      0.2014
    104  C         63.8470   -9.7700  -16.2340 C.2   198  GLY198      0.2640
    105  O         64.9050   -9.5040  -15.6650 O.2   198  GLY198     -0.2714
    106  N         63.3750   -9.0500  -17.2440 N.am  199  SER199     -0.1935
    107  CA        64.1100   -7.8930  -17.7200 C.3   199  SER199      0.2055
    108  C         64.0440   -6.7700  -16.6880 C.2   199  SER199      0.2643
    109  O         65.0600   -6.1290  -16.4200 O.2   199  SER199     -0.2714
    110  CB        63.5870   -7.4260  -19.0770 C.3   199  SER199      0.2130
    111  OG        62.1990   -7.1980  -19.0480 O.3   199  SER199     -0.2179
    112  N         62.8720   -6.5720  -16.0790 N.am  200  THR200     -0.1950
    113  CA        62.6760   -5.4720  -15.1380 C.3   200  THR200      0.1897
    114  C         63.3310   -5.6770  -13.7740 C.2   200  THR200      0.2313
    115  O         63.3780   -4.7410  -12.9740 O.2   200  THR200     -0.2863
    116  CB        61.1790   -5.1780  -14.8880 C.3   200  THR200      0.1794
    117  OG1       60.5650   -6.2740  -14.1990 O.3   200  THR200     -0.2208
    118  CG2       60.4660   -4.9310  -16.2040 C.3   200  THR200      0.0378
    119  N         56.2820   -1.6550  -14.5760 N.3   234  ILE234     -0.1245
    120  CA        56.2970   -2.4680  -15.7870 C.3   234  ILE234      0.1561
    121  C         55.4280   -1.8770  -16.9010 C.2   234  ILE234      0.2260
    122  O         55.8430   -1.8150  -18.0500 O.2   234  ILE234     -0.2867
    123  CB        55.8270   -3.9040  -15.4950 C.3   234  ILE234      0.0252
    124  CG1       56.8080   -4.6100  -14.5540 C.3   234  ILE234      0.0019
    125  CG2       55.6950   -4.6870  -16.7980 C.3   234  ILE234      0.0019
    126  CD1       56.2960   -5.9210  -14.0470 C.3   234  ILE234      0.0001
    127  N         56.9800   -0.6660  -20.3780 N.3   238  LEU238     -0.1245
    128  CA        56.4110   -1.2250  -21.6100 C.3   238  LEU238      0.1561
    129  C         55.8820   -0.1370  -22.5400 C.2   238  LEU238      0.2260
    130  O         55.9170   -0.2780  -23.7630 O.2   238  LEU238     -0.2867
    131  CB        55.2810   -2.1960  -21.3010 C.3   238  LEU238      0.0270
    132  CG        55.7000   -3.5420  -20.7320 C.3   238  LEU238      0.0019
    133  CD1       54.4860   -4.2000  -20.1680 C.3   238  LEU238      0.0001
    134  CD2       56.3320   -4.4130  -21.8210 C.3   238  LEU238      0.0001
    135  N         60.5100   -1.1120  -23.8150 N.3   242  ILE242     -0.1231
    136  CA        60.9560   -1.6840  -22.5490 C.3   242  ILE242      0.1692
    137  C         62.4790   -1.7190  -22.3720 C.2   242  ILE242      0.2592
    138  O         62.9900   -1.2260  -21.3650 O.2   242  ILE242     -0.2718
    139  CB        60.3580   -3.1160  -22.3340 C.3   242  ILE242      0.0266
    140  CG1       61.0420   -3.8010  -21.1550 C.3   242  ILE242      0.0019
    141  CG2       60.4260   -3.9810  -23.6030 C.3   242  ILE242      0.0020
    142  CD1       60.1090   -4.6080  -20.2940 C.3   242  ILE242      0.0001
    143  N         63.2080   -2.2650  -23.3330 N.am  243  TYR243     -0.1976
    144  CA        64.6600   -2.4000  -23.1720 C.3   243  TYR243      0.1639
    145  C         65.3790   -1.0410  -23.1060 C.2   243  TYR243      0.2290
    146  O         66.1020   -0.7870  -22.1480 O.2   243  TYR243     -0.2864
    147  CB        65.2540   -3.2590  -24.2940 C.3   243  TYR243      0.0560
    148  CG        64.5590   -4.5770  -24.4490 C.ar  243  TYR243     -0.0198
    149  CD1       64.0620   -5.2630  -23.3370 C.ar  243  TYR243     -0.0009
    150  CD2       64.3840   -5.1410  -25.7130 C.ar  243  TYR243     -0.0009
    151  CE1       63.4160   -6.5030  -23.4830 C.ar  243  TYR243      0.0417
    152  CE2       63.7400   -6.3650  -25.8740 C.ar  243  TYR243      0.0417
    153  CZ        63.2560   -7.0370  -24.7620 C.ar  243  TYR243      0.1957
    154  OH        62.6130   -8.2330  -24.9440 O.3   243  TYR243     -0.2866
@<TRIPOS>BOND
     1    25    24    2
     2   152   150   ar
     3   152   153   ar
     4    27    26    1
     5    23    26    1
     6    23    24    1
     7    23    22    1
     8   150   148   ar
     9    21    20    2
    10    24    28   am
    11    22    20   am
    12   154   153    1
    13    41    43   ar
    14    41    39   ar
    15    20    19    1
    16    43    44   ar
    17    38    39    1
    18    38    35    1
    19   153   151   ar
    20    39    40   ar
    21    44    45    1
    22    44    42   ar
    23   148   147    1
    24   148   149   ar
    25   147   144    1
    26    40    42   ar
    27    19    18    1
    28    28    29    1
    29   135   136    1
    30    37    36    2
    31   130   129    2
    32    34    35    1
    33    36    35    1
    34   141   139    1
    35    30    31    2
    36    30    29    1
    37   151   149   ar
    38   143   144    1
    39   143   137   am
    40    29    32    1
    41   144   145    1
    42   145   146    2
    43    60    59    1
    44   136   137    1
    45   136   139    1
    46   129   128    1
    47   137   138    2
    48   139   140    1
    49    54    53    1
    50    17    16    1
    51   134   132    1
    52    32    33    1
    53    59    61    1
    54    59    56    1
    55   128   131    1
    56   128   127    1
    57    53    52    1
    58    58    57    2
    59   131   132    1
    60   140   142    1
    61    57    56    1
    62    15    16   ar
    63    15    13   ar
    64    16    14   ar
    65   132   133    1
    66    56    55    1
    67    49    48    2
    68    52    51    1
    69    13    11   ar
    70    14    12   ar
    71    50    51    1
    72    50    47    1
    73    48    47    1
    74     9     8    2
    75   110   111    1
    76   110   107    1
    77    46    47    1
    78     8     7    1
    79    11    12   ar
    80    11    10    1
    81     5     2    1
    82    93    91   ar
    83     4     3    2
    84     3     2    1
    85    65    64    2
    86   122   121    2
    87     2     1    1
    88    10     7    1
    89   107   106    1
    90   107   108    1
    91     7     6    1
    92    73    75   ar
    93    73    71   ar
    94    91    92   ar
    95    91    90    1
    96    64    63    1
    97    64    66   am
    98    63    62    1
    99   106   104   am
   100    70    67    1
   101    70    71    1
   102   100    98    1
   103    75    76   ar
   104   121   120    1
   105    67    66    1
   106    67    68    1
   107   101    99    1
   108   125   123    1
   109    71    72   ar
   110   108   109    2
   111   108   112   am
   112    90    89    1
   113    98    99    1
   114    98    95    1
   115   104   103    1
   116   104   105    2
   117   118   116    1
   118   112   113    1
   119    97    96    2
   120   103   102    1
   121    76    74   ar
   122   120   123    1
   123   120   119    1
   124    83    82   ar
   125    96   102   am
   126    96    95    1
   127    77    68   am
   128    77    78    1
   129    68    69    2
   130   123   124    1
   131    72    74   ar
   132    84    82   ar
   133    82    81    1
   134    89    86    1
   135   113   116    1
   136   113   114    1
   137    95    94    1
   138   116   117    1
   139    81    78    1
   140    85    86    1
   141    85    79   am
   142   124   126    1
   143    78    79    1
   144    86    87    1
   145   114   115    2
   146    79    80    2
   147    87    88    2
