@<TRIPOS>MOLECULE
tmp/5kziA00.pdb
 162 150 0 0 0
SMALL
GASTEIGER

@<TRIPOS>ATOM
      1  N        -40.9750    4.5490    5.1560 N.3    12  LEU12      -0.1231
      2  CA       -41.4580    3.2000    5.4640 C.3    12  LEU12       0.1693
      3  C        -40.3810    2.3720    6.1530 C.2    12  LEU12       0.2592
      4  O        -40.6830    1.5620    7.0210 O.2    12  LEU12      -0.2718
      5  CB       -41.9430    2.4930    4.1920 C.3    12  LEU12       0.0284
      6  CG       -43.1580    3.1440    3.5360 C.3    12  LEU12       0.0019
      7  CD1      -43.3600    2.6290    2.1170 C.3    12  LEU12       0.0001
      8  CD2      -44.4120    2.9260    4.3760 C.3    12  LEU12       0.0001
      9  N        -39.1260    2.5680    5.7640 N.am   13  GLY13      -0.1957
     10  CA       -38.0170    1.8490    6.3790 C.3    13  GLY13       0.1869
     11  C        -36.6900    2.2070    5.7590 C.2    13  GLY13       0.2309
     12  O        -36.6320    2.6860    4.6290 O.2    13  GLY13      -0.2863
     13  N        -30.4870   -1.8760    2.7400 N.3    17  PHE17      -0.1241
     14  CA       -31.1300   -1.7240    1.4260 C.3    17  PHE17       0.1605
     15  C        -31.2770   -0.2800    0.9260 C.2    17  PHE17       0.2264
     16  O        -31.5420   -0.0650   -0.2520 O.2    17  PHE17      -0.2867
     17  CB       -32.5160   -2.3910    1.4320 C.3    17  PHE17       0.0534
     18  CG       -33.4420   -1.8920    2.5230 C.ar   17  PHE17      -0.0203
     19  CD1      -34.1980   -0.7350    2.3450 C.ar   17  PHE17      -0.0042
     20  CD2      -33.5770   -2.6000    3.7120 C.ar   17  PHE17      -0.0042
     21  CE1      -35.0470   -0.2780    3.3500 C.ar   17  PHE17      -0.0003
     22  CE2      -34.4230   -2.1520    4.7180 C.ar   17  PHE17      -0.0003
     23  CZ       -35.1640   -0.9900    4.5350 C.ar   17  PHE17      -0.0000
     24  N        -36.6310    3.8760    2.0200 N.3    20  VAL20      -0.1245
     25  CA       -37.8600    3.6820    1.2720 C.3    20  VAL20       0.1561
     26  C        -38.9820    4.4940    1.8860 C.2    20  VAL20       0.2260
     27  O        -39.2400    4.3750    3.0850 O.2    20  VAL20      -0.2867
     28  CB       -38.2590    2.1990    1.2610 C.3    20  VAL20       0.0252
     29  CG1      -39.6010    2.0100    0.5720 C.3    20  VAL20       0.0019
     30  CG2      -37.1670    1.3820    0.5850 C.3    20  VAL20       0.0019
     31  N        -44.2540    3.4330   -3.7150 N.3    33  ALA33      -0.1245
     32  CA       -43.1460    3.4200   -2.7790 C.3    33  ALA33       0.1562
     33  C        -41.9560    3.9860   -3.5260 C.2    33  ALA33       0.2260
     34  O        -41.7770    3.6960   -4.7050 O.2    33  ALA33      -0.2867
     35  CB       -42.8630    2.0010   -2.2980 C.3    33  ALA33       0.0290
     36  N        -37.8890    4.3410   -3.4290 N.3    35  LYS35      -0.1245
     37  CA       -36.7080    3.7310   -2.8340 C.3    35  LYS35       0.1561
     38  C        -35.4620    4.4520   -3.3030 C.2    35  LYS35       0.2260
     39  O        -35.2480    4.5930   -4.5020 O.2    35  LYS35      -0.2867
     40  CB       -36.6370    2.2450   -3.2240 C.3    35  LYS35       0.0271
     41  CG       -35.3300    1.5650   -2.8560 C.3    35  LYS35       0.0035
     42  CD       -35.4620    0.0570   -2.8950 C.3    35  LYS35       0.0206
     43  CE       -34.1210   -0.6170   -2.6690 C.3    35  LYS35       0.1093
     44  NZ       -34.2550   -2.0930   -2.6070 N.3    35  LYS35      -0.1314
     45  N        -30.5490   -4.4010   -9.3720 N.3    57  GLU57      -0.1245
     46  CA       -31.9360   -4.4040   -8.8950 C.3    57  GLU57       0.1567
     47  C        -32.9380   -3.9960   -9.9790 C.2    57  GLU57       0.2260
     48  O        -34.0170   -4.5740  -10.0890 O.2    57  GLU57      -0.2867
     49  CB       -32.0820   -3.4780   -7.6770 C.3    57  GLU57       0.0388
     50  CG       -33.4830   -3.4370   -7.0880 C.3    57  GLU57       0.1160
     51  CD       -33.5550   -2.7130   -5.7460 C.2    57  GLU57       0.3649
     52  OE1      -32.5690   -2.0600   -5.3330 O.co2  57  GLU57      -0.2457
     53  OE2      -34.6210   -2.7970   -5.1060 O.co2  57  GLU57      -0.2457
     54  N        -43.2810   -7.4160   -6.7650 N.3    72  ILE72      -0.1245
     55  CA       -43.4770   -5.9680   -6.7770 C.3    72  ILE72       0.1561
     56  C        -43.1750   -5.3970   -8.1710 C.2    72  ILE72       0.2260
     57  O        -42.1830   -5.7620   -8.7880 O.2    72  ILE72      -0.2867
     58  CB       -42.5850   -5.2890   -5.7090 C.3    72  ILE72       0.0252
     59  CG1      -43.0980   -3.8730   -5.4020 C.3    72  ILE72       0.0019
     60  CG2      -41.1070   -5.3300   -6.1080 C.3    72  ILE72       0.0019
     61  CD1      -44.3680   -3.8960   -4.5800 C.3    72  ILE72       0.0001
     62  N        -41.9250    2.2320   -7.0910 N.3    88  LEU88      -0.1231
     63  CA       -42.5130    0.9020   -7.0520 C.3    88  LEU88       0.1693
     64  C        -43.9950    0.9920   -6.7580 C.2    88  LEU88       0.2592
     65  O        -44.4560    1.9480   -6.1330 O.2    88  LEU88      -0.2718
     66  CB       -41.8150    0.0590   -5.9770 C.3    88  LEU88       0.0284
     67  CG       -40.3010   -0.0440   -6.2110 C.3    88  LEU88       0.0019
     68  CD1      -39.4870    0.1940   -4.9490 C.3    88  LEU88       0.0001
     69  CD2      -39.9520   -1.3740   -6.8490 C.3    88  LEU88       0.0001
     70  N        -44.7390   -0.0190   -7.1940 N.am   89  GLU89      -0.1966
     71  CA       -46.1450   -0.1300   -6.8430 C.3    89  GLU89       0.1733
     72  C        -46.2620   -0.1910   -5.3280 C.2    89  GLU89       0.2616
     73  O        -45.3270   -0.6130   -4.6360 O.2    89  GLU89      -0.2715
     74  CB       -46.7950   -1.3620   -7.5050 C.3    89  GLU89       0.0429
     75  CG       -47.1890   -2.4850   -6.5560 C.3    89  GLU89       0.1163
     76  CD       -47.5650   -3.7700   -7.2750 C.2    89  GLU89       0.3649
     77  OE1      -46.6610   -4.4140   -7.8490 O.co2  89  GLU89      -0.2457
     78  OE2      -48.7590   -4.1480   -7.2400 O.co2  89  GLU89      -0.2457
     79  N        -47.4040    0.2550   -4.8180 N.am   90  ARG90      -0.1977
     80  CA       -47.7160    0.1410   -3.3990 C.3    90  ARG90       0.1597
     81  C        -49.1790   -0.2560   -3.2430 C.2    90  ARG90       0.2287
     82  O        -50.0650    0.5710   -3.4220 O.2    90  ARG90      -0.2864
     83  CB       -47.4360    1.4560   -2.6590 C.3    90  ARG90       0.0334
     84  CG       -47.8170    1.4280   -1.1810 C.3    90  ARG90       0.0492
     85  CD       -47.2280    2.6030   -0.4140 C.3    90  ARG90       0.2205
     86  NE       -47.7600    3.8960   -0.8670 N.pl3  90  ARG90      -0.0865
     87  CZ       -48.9060    4.4400   -0.4510 C.cat  90  ARG90       0.5346
     88  NH1      -49.6800    3.8190    0.4340 N.pl3  90  ARG90       0.1354
     89  NH2      -49.2840    5.6250   -0.9250 N.pl3  90  ARG90       0.1354
     90  N        -51.7200   -2.4490    3.0770 N.3    94  VAL94      -0.1231
     91  CA       -50.6740   -3.4580    2.9770 C.3    94  VAL94       0.1692
     92  C        -49.9750   -3.5680    4.3240 C.2    94  VAL94       0.2592
     93  O        -49.9850   -2.6280    5.1230 O.2    94  VAL94      -0.2718
     94  CB       -49.6710   -3.1080    1.8380 C.3    94  VAL94       0.0266
     95  CG1      -48.7910   -1.9220    2.2090 C.3    94  VAL94       0.0020
     96  CG2      -48.8210   -4.3100    1.4550 C.3    94  VAL94       0.0020
     97  N        -49.4250   -4.7420    4.5960 N.am   95  GLN95      -0.1966
     98  CA       -48.5650   -4.9420    5.7410 C.3    95  GLN95       0.1733
     99  C        -47.5220   -5.9770    5.3540 C.2    95  GLN95       0.2616
    100  O        -47.8530   -6.9370    4.6570 O.2    95  GLN95      -0.2715
    101  CB       -49.3710   -5.4420    6.9270 C.3    95  GLN95       0.0408
    102  CG       -48.5640   -5.5490    8.2080 C.3    95  GLN95       0.0908
    103  CD       -49.4190   -5.9780    9.3770 C.2    95  GLN95       0.2608
    104  OE1      -50.1690   -6.9450    9.2780 O.2    95  GLN95      -0.2717
    105  NE2      -49.3200   -5.2540   10.4890 N.am   95  GLN95      -0.0878
    106  N        -46.2770   -5.7880    5.7900 N.am   96  ASP96      -0.1971
    107  CA       -45.2470   -6.7650    5.4680 C.3    96  ASP96       0.1709
    108  C        -45.4020   -7.9530    6.4060 C.2    96  ASP96       0.2293
    109  O        -46.0060   -7.8280    7.4790 O.2    96  ASP96      -0.2864
    110  CB       -43.8280   -6.1620    5.4130 C.3    96  ASP96       0.1436
    111  CG       -43.2290   -5.8060    6.7810 C.2    96  ASP96       0.3671
    112  OD1      -43.5040   -6.4590    7.8150 O.co2  96  ASP96      -0.2456
    113  OD2      -42.4030   -4.8660    6.7860 O.co2  96  ASP96      -0.2456
    114  N        -44.2450   -7.7190   10.2050 N.3    99  ASP99      -0.1239
    115  CA       -45.1780   -7.0270   11.0960 C.3    99  ASP99       0.1674
    116  C        -46.4270   -7.8560   11.3100 C.2    99  ASP99       0.2266
    117  O        -46.9730   -7.8880   12.4070 O.2    99  ASP99      -0.2867
    118  CB       -45.5810   -5.6600   10.5420 C.3    99  ASP99       0.1410
    119  CG       -44.4420   -4.6680   10.5290 C.2    99  ASP99       0.3668
    120  OD1      -43.4450   -4.8520   11.2550 O.co2  99  ASP99      -0.2456
    121  OD2      -44.5520   -3.6840    9.7800 O.co2  99  ASP99      -0.2456
    122  N        -39.6260  -10.0230    6.1820 N.3   139  GLU139     -0.1231
    123  CA       -39.4800   -8.5820    5.9590 C.3   139  GLU139      0.1699
    124  C        -39.5920   -8.1780    4.4840 C.2   139  GLU139      0.2592
    125  O        -39.8940   -7.0180    4.1850 O.2   139  GLU139     -0.2718
    126  CB       -38.1410   -8.0920    6.5150 C.3   139  GLU139      0.0402
    127  CG       -38.0400   -8.1310    8.0370 C.3   139  GLU139      0.1161
    128  CD       -36.6540   -7.7530    8.5300 C.2   139  GLU139      0.3649
    129  OE1      -35.6940   -8.5150    8.3030 O.co2 139  GLU139     -0.2457
    130  OE2      -36.5170   -6.6790    9.1430 O.co2 139  GLU139     -0.2457
    131  N        -39.3510   -9.1230    3.5730 N.am  140  ASN140     -0.1974
    132  CA       -39.4110   -8.8550    2.1300 C.3   140  ASN140      0.1688
    133  C        -40.6230   -9.4660    1.4260 C.2   140  ASN140      0.2292
    134  O        -40.6110   -9.7030    0.2110 O.2   140  ASN140     -0.2864
    135  CB       -38.1160   -9.3160    1.4690 C.3   140  ASN140      0.1181
    136  CG       -36.9390   -8.4300    1.8220 C.2   140  ASN140      0.2629
    137  OD1      -37.1160   -7.2700    2.1840 O.2   140  ASN140     -0.2716
    138  ND2      -35.7300   -8.9660    1.7050 N.am  140  ASN140     -0.0877
    139  N        -44.7690   -8.6910    1.1040 N.3   142  LEU142     -0.1245
    140  CA       -45.8870   -7.7800    1.3220 C.3   142  LEU142      0.1561
    141  C        -47.1840   -8.5310    1.2510 C.2   142  LEU142      0.2260
    142  O        -47.3640   -9.3440    0.3540 O.2   142  LEU142     -0.2867
    143  CB       -45.9520   -6.7300    0.2170 C.3   142  LEU142      0.0270
    144  CG       -45.0850   -5.4960    0.2960 C.3   142  LEU142      0.0019
    145  CD1      -45.4800   -4.5470   -0.8320 C.3   142  LEU142      0.0001
    146  CD2      -45.2360   -4.8350    1.6550 C.3   142  LEU142      0.0001
    147  N        -40.6800   -8.2390   -2.3750 N.3   153  ILE153     -0.1231
    148  CA       -40.0280   -6.9430   -2.5130 C.3   153  ILE153      0.1692
    149  C        -38.5320   -7.0730   -2.2410 C.2   153  ILE153      0.2592
    150  O        -38.0520   -8.1170   -1.7810 O.2   153  ILE153     -0.2718
    151  CB       -40.6440   -5.8780   -1.5670 C.3   153  ILE153      0.0266
    152  CG1      -40.6160   -6.3510   -0.1080 C.3   153  ILE153      0.0019
    153  CG2      -42.0660   -5.5690   -2.0000 C.3   153  ILE153      0.0020
    154  CD1      -40.8370   -5.2480    0.9080 C.3   153  ILE153      0.0001
    155  N        -37.8180   -5.9840   -2.5110 N.am  154  ASP154     -0.1974
    156  CA       -36.3720   -5.8670   -2.3130 C.3   154  ASP154      0.1709
    157  C        -35.5160   -6.8550   -3.0880 C.2   154  ASP154      0.2293
    158  O        -34.9740   -7.8010   -2.5240 O.2   154  ASP154     -0.2864
    159  CB       -35.9710   -5.9390   -0.8460 C.3   154  ASP154      0.1436
    160  CG       -34.5140   -5.5230   -0.6220 C.2   154  ASP154      0.3671
    161  OD1      -33.8510   -5.0750   -1.5880 O.co2 154  ASP154     -0.2456
    162  OD2      -34.0400   -5.6110    0.5230 O.co2 154  ASP154     -0.2456
@<TRIPOS>BOND
     1    48    47    2
     2    47    46    1
     3    45    46    1
     4    46    49    1
     5    57    56    2
     6    56    55    1
     7    77    76   ar
     8    49    50    1
     9    74    71    1
    10    74    75    1
    11    76    78   ar
    12    76    75    1
    13    70    71    1
    14    70    64   am
    15    62    63    1
    16    50    51    1
    17    63    64    1
    18    63    66    1
    19    69    67    1
    20    71    72    1
    21    55    54    1
    22    55    58    1
    23    64    65    2
    24    67    66    1
    25    67    68    1
    26    60    58    1
    27    51    52   ar
    28    51    53   ar
    29    58    59    1
    30    59    61    1
    31    72    79   am
    32    72    73    2
    33    79    80    1
    34    34    33    2
    35    39    38    2
    36    31    32    1
    37    33    32    1
    38    36    37    1
    39    82    81    2
    40    80    81    1
    41    80    83    1
    42    38    37    1
    43    40    41    1
    44    40    37    1
    45   157   158    2
    46   157   156    1
    47    42    41    1
    48    42    43    1
    49    32    35    1
    50    43    44    1
    51    83    84    1
    52   148   147    1
    53   148   149    1
    54   148   151    1
    55   155   156    1
    56   155   149   am
    57   156   159    1
    58   149   150    2
    59   153   151    1
    60   161   160   ar
    61   151   152    1
    62    84    85    1
    63    89    87    1
    64    86    87    2
    65    86    85    1
    66   159   160    1
    67   145   144    1
    68   160   162   ar
    69    87    88    1
    70    16    15    2
    71   152   154    1
    72   134   133    2
    73   143   144    1
    74   143   140    1
    75   144   146    1
    76   142   141    2
    77    29    28    1
    78    30    28    1
    79    15    14    1
    80   139   140    1
    81   141   140    1
    82    28    25    1
    83    25    26    1
    84    25    24    1
    85    14    17    1
    86    14    13    1
    87   133   132    1
    88    17    18    1
    89    96    94    1
    90   135   136    1
    91   135   132    1
    92   138   136   am
    93   136   137    2
    94    94    95    1
    95    94    91    1
    96    26    27    2
    97     7     6    1
    98   132   131    1
    99    19    18   ar
   100    19    21   ar
   101    18    20   ar
   102    91    90    1
   103    91    92    1
   104    21    23   ar
   105     6     5    1
   106     6     8    1
   107   131   124   am
   108    20    22   ar
   109   125   124    2
   110     5     2    1
   111    92    97   am
   112    92    93    2
   113   124   123    1
   114    23    22   ar
   115    97    98    1
   116    12    11    2
   117   100    99    2
   118     1     2    1
   119    99    98    1
   120    99   106   am
   121   110   107    1
   122   110   111    1
   123     2     3    1
   124   107   106    1
   125   107   108    1
   126    98   101    1
   127    11    10    1
   128     9     3   am
   129     9    10    1
   130   123   122    1
   131   123   126    1
   132     3     4    2
   133   108   109    2
   134   126   127    1
   135   111   113   ar
   136   111   112   ar
   137   101   102    1
   138   127   128    1
   139   102   103    1
   140   129   128   ar
   141   128   130   ar
   142   104   103    2
   143   103   105   am
   144   121   119   ar
   145   114   115    1
   146   119   118    1
   147   119   120   ar
   148   118   115    1
   149   115   116    1
   150   116   117    2
