@<TRIPOS>MOLECULE
tmp/5kzlA00.pdb
 185 175 0 0 0
SMALL
GASTEIGER

@<TRIPOS>ATOM
      1  N         27.1130    5.5860   55.8130 N.3     4  ALA4       -0.1245
      2  CA        26.3770    6.4670   56.7380 C.3     4  ALA4        0.1562
      3  C         25.1170    7.0090   56.0480 C.2     4  ALA4        0.2260
      4  O         24.0460    7.0270   56.6520 O.2     4  ALA4       -0.2867
      5  CB        27.2630    7.6090   57.2100 C.3     4  ALA4        0.0290
      6  N         21.1420    6.1730   56.8600 N.3     8  ARG8       -0.1245
      7  CA        20.2550    7.3090   57.1460 C.3     8  ARG8        0.1563
      8  C         19.0160    7.3020   56.2280 C.2     8  ARG8        0.2260
      9  O         17.8810    7.3880   56.7120 O.2     8  ARG8       -0.2867
     10  CB        21.0380    8.6350   57.0270 C.3     8  ARG8        0.0307
     11  CG        20.1870    9.8860   57.1700 C.3     8  ARG8        0.0489
     12  CD        21.0150   11.1540   57.1210 C.3     8  ARG8        0.2205
     13  NE        21.7710   11.3420   58.3610 N.pl3   8  ARG8       -0.0865
     14  CZ        22.6090   12.3480   58.5860 C.cat   8  ARG8        0.5346
     15  NH1       23.2440   12.4430   59.7480 N.pl3   8  ARG8        0.1354
     16  NH2       22.8390   13.2540   57.6420 N.pl3   8  ARG8        0.1354
     17  N         12.4580    4.5580   61.6990 N.3    15  HIS15      -0.1241
     18  CA        12.6440    5.5170   62.7900 C.3    15  HIS15       0.1621
     19  C         11.2610    6.0600   63.1620 C.2    15  HIS15       0.2264
     20  O         10.8870    5.9830   64.3320 O.2    15  HIS15      -0.2867
     21  CB        13.6150    6.6500   62.3560 C.3    15  HIS15       0.0745
     22  CG        14.0110    7.5940   63.4580 C.ar   15  HIS15       0.0817
     23  ND1       13.2030    8.6580   63.8230 N.ar   15  HIS15      -0.2268
     24  CD2       15.1340    7.6300   64.2060 C.ar   15  HIS15       0.1154
     25  CE1       13.8450    9.2900   64.7930 C.ar   15  HIS15       0.1986
     26  NE2       15.0120    8.7070   65.0600 N.ar   15  HIS15      -0.2212
     27  N          8.8510    3.3670   64.8060 N.3    18  ALA18      -0.1231
     28  CA         9.2500    3.0440   66.1870 C.3    18  ALA18       0.1694
     29  C          8.5190    3.9120   67.2570 C.2    18  ALA18       0.2591
     30  O          8.5570    3.5910   68.4530 O.2    18  ALA18      -0.2718
     31  CB        10.7610    3.1410   66.3340 C.3    18  ALA18       0.0304
     32  N          7.7970    4.9580   66.8020 N.am   19  GLU19      -0.1979
     33  CA         7.0030    5.8660   67.6370 C.3    19  GLU19       0.1602
     34  C          5.5000    5.5150   67.6200 C.2    19  GLU19       0.2287
     35  O          4.6980    6.2350   68.2260 O.2    19  GLU19      -0.2864
     36  CB         7.2200    7.3180   67.2100 C.3    19  GLU19       0.0415
     37  CG         8.6410    7.7980   67.4110 C.3    19  GLU19       0.1163
     38  CD         9.2670    8.5080   66.2300 C.2    19  GLU19       0.3649
     39  OE1        8.5280    9.1210   65.4240 O.co2  19  GLU19      -0.2457
     40  OE2       10.5140    8.4660   66.1250 O.co2  19  GLU19      -0.2457
     41  N          6.1690    5.6820   73.5760 N.3    24  ILE24      -0.1245
     42  CA         6.9380    6.7360   72.9120 C.3    24  ILE24       0.1561
     43  C          6.0600    7.9630   72.6040 C.2    24  ILE24       0.2260
     44  O          6.5060    9.0750   72.8510 O.2    24  ILE24      -0.2867
     45  CB         7.7190    6.2050   71.6730 C.3    24  ILE24       0.0252
     46  CG1        8.6210    4.9990   72.0490 C.3    24  ILE24       0.0019
     47  CG2        8.5450    7.3030   70.9940 C.3    24  ILE24       0.0019
     48  CD1        9.8730    5.2980   72.9710 C.3    24  ILE24       0.0001
     49  N          5.7220    9.8300   75.8560 N.3    27  PHE27      -0.1227
     50  CA         7.0650   10.3180   76.1700 C.3    27  PHE27       0.1736
     51  C          7.3240   11.5840   75.3320 C.2    27  PHE27       0.2595
     52  O          7.7550   12.5880   75.8870 O.2    27  PHE27      -0.2718
     53  CB         8.1000    9.2100   75.8630 C.3    27  PHE27       0.0547
     54  CG         9.5300    9.3310   76.3560 C.ar   27  PHE27      -0.0202
     55  CD1        9.9670   10.4710   77.0300 C.ar   27  PHE27      -0.0042
     56  CD2       10.4400    8.3050   76.1440 C.ar   27  PHE27      -0.0042
     57  CE1       11.2970   10.5890   77.4550 C.ar   27  PHE27      -0.0003
     58  CE2       11.7670    8.4240   76.5710 C.ar   27  PHE27      -0.0003
     59  CZ        12.1860    9.5610   77.2280 C.ar   27  PHE27      -0.0000
     60  N          6.9550   11.5750   74.0320 N.am   28  MET28      -0.1979
     61  CA         7.1310   12.7370   73.1530 C.3    28  MET28       0.1605
     62  C          6.2320   13.9220   73.5300 C.2    28  MET28       0.2287
     63  O          6.6170   15.0680   73.3020 O.2    28  MET28      -0.2864
     64  CB         6.9900   12.3520   71.6830 C.3    28  MET28       0.0413
     65  CG         8.1400   11.4940   71.1800 C.3    28  MET28       0.0598
     66  SD         9.7710   12.2040   71.5510 S.3    28  MET28      -0.1393
     67  CE        10.1760   11.3480   73.0510 C.3    28  MET28       0.0692
     68  N         25.0520    1.4690   65.0720 N.3   123  TYR123     -0.1227
     69  CA        24.3650    2.5860   64.4060 C.3   123  TYR123      0.1736
     70  C         22.9850    2.8970   65.0090 C.2   123  TYR123      0.2595
     71  O         22.7380    4.0280   65.4360 O.2   123  TYR123     -0.2718
     72  CB        24.2430    2.3440   62.8700 C.3   123  TYR123      0.0548
     73  CG        23.3120    3.3300   62.1790 C.ar  123  TYR123     -0.0200
     74  CD1       23.7420    4.6130   61.8470 C.ar  123  TYR123     -0.0009
     75  CD2       21.9990    2.9820   61.8680 C.ar  123  TYR123     -0.0009
     76  CE1       22.8780    5.5340   61.2390 C.ar  123  TYR123      0.0417
     77  CE2       21.1180    3.9070   61.2960 C.ar  123  TYR123      0.0417
     78  CZ        21.5760    5.1650   60.9390 C.ar  123  TYR123      0.1957
     79  OH        20.7060    6.0730   60.3700 O.3   123  TYR123     -0.2866
     80  N         22.0750    1.9170   64.9870 N.am  124  VAL124     -0.1966
     81  CA        20.6880    2.1090   65.4060 C.3   124  VAL124      0.1727
     82  C         20.6100    2.5730   66.8380 C.2   124  VAL124      0.2616
     83  O         19.9710    3.5820   67.0940 O.2   124  VAL124     -0.2715
     84  CB        19.7710    0.8880   65.1220 C.3   124  VAL124      0.0290
     85  CG1       18.3590    1.1530   65.6210 C.3   124  VAL124      0.0023
     86  CG2       19.7440    0.5680   63.6310 C.3   124  VAL124      0.0023
     87  N         21.2660    1.8650   67.7570 N.am  125  ARG125     -0.1977
     88  CA        21.2620    2.2790   69.1560 C.3   125  ARG125      0.1597
     89  C         22.2290    3.4650   69.4630 C.2   125  ARG125      0.2287
     90  O         21.7430    4.5140   69.8660 O.2   125  ARG125     -0.2864
     91  CB        21.4950    1.0820   70.1190 C.3   125  ARG125      0.0334
     92  CG        20.2660    0.1360   70.2860 C.3   125  ARG125      0.0492
     93  CD        18.8720    0.7860   70.5100 C.3   125  ARG125      0.2205
     94  NE        18.8800    1.8990   71.4720 N.pl3 125  ARG125     -0.0865
     95  CZ        17.8560    2.7030   71.7550 C.cat 125  ARG125      0.5346
     96  NH1       16.6640    2.5080   71.1890 N.pl3 125  ARG125      0.1354
     97  NH2       18.0160    3.7180   72.5960 N.pl3 125  ARG125      0.1354
     98  N         24.2740    5.6340   67.6260 N.3   127  LEU127     -0.1231
     99  CA        24.1940    6.9310   66.9450 C.3   127  LEU127      0.1693
    100  C         22.8740    7.6430   67.2960 C.2   127  LEU127      0.2592
    101  O         22.8800    8.8580   67.4670 O.2   127  LEU127     -0.2718
    102  CB        24.4630    6.8450   65.4150 C.3   127  LEU127      0.0284
    103  CG        24.5940    8.1990   64.6930 C.3   127  LEU127      0.0019
    104  CD1       25.6460    9.1250   65.3440 C.3   127  LEU127      0.0001
    105  CD2       24.8510    8.0060   63.2180 C.3   127  LEU127      0.0001
    106  N         21.8040    6.8730   67.5090 N.am  128  GLY128     -0.1957
    107  CA        20.5170    7.4060   67.9630 C.3   128  GLY128      0.1869
    108  C         20.6320    8.0270   69.3440 C.2   128  GLY128      0.2309
    109  O         20.1460    9.1400   69.5710 O.2   128  GLY128     -0.2863
    110  N         22.6050   11.2260   69.1630 N.3   131  SER131     -0.1202
    111  CA        21.8120   12.2520   68.4820 C.3   131  SER131      0.2020
    112  C         20.6550   12.8060   69.3150 C.2   131  SER131      0.2619
    113  O         20.4050   14.0060   69.2740 O.2   131  SER131     -0.2717
    114  CB        21.3230   11.7550   67.1250 C.3   131  SER131      0.2103
    115  OG        22.4220   11.2650   66.3730 O.3   131  SER131     -0.2182
    116  N         19.9870   11.9400   70.0730 N.am  132  GLY132     -0.1956
    117  CA        18.8100   12.3030   70.8550 C.3   132  GLY132      0.1869
    118  C         18.9600   12.5660   72.3410 C.2   132  GLY132      0.2309
    119  O         18.0150   13.0490   72.9650 O.2   132  GLY132     -0.2863
    120  N         18.1080   16.1070   74.0310 N.3   135  ILE135     -0.1231
    121  CA        16.6680   16.3430   73.9210 C.3   135  ILE135      0.1692
    122  C         15.8950   15.4300   74.8760 C.2   135  ILE135      0.2591
    123  O         15.0560   15.9190   75.6270 O.2   135  ILE135     -0.2718
    124  CB        16.1680   16.1830   72.4730 C.3   135  ILE135      0.0266
    125  CG1       16.7580   17.2760   71.5610 C.3   135  ILE135      0.0019
    126  CG2       14.6280   16.1450   72.4090 C.3   135  ILE135      0.0020
    127  CD1       16.6650   16.9650   70.0830 C.3   135  ILE135      0.0001
    128  N         16.1830   14.1120   74.8320 N.am  136  LEU136     -0.1980
    129  CA        15.4930   13.0990   75.6260 C.3   136  LEU136      0.1596
    130  C         15.7050   13.2630   77.1310 C.2   136  LEU136      0.2287
    131  O         14.7390   13.0920   77.8820 O.2   136  LEU136     -0.2864
    132  CB        15.8540   11.6800   75.1410 C.3   136  LEU136      0.0297
    133  CG        15.2810   11.2720   73.7560 C.3   136  LEU136      0.0022
    134  CD1       15.8860    9.9410   73.2870 C.3   136  LEU136      0.0001
    135  CD2       13.7440   11.1960   73.7720 C.3   136  LEU136      0.0001
    136  N         29.7100   12.8010   66.6590 N.3   167  LYS167     -0.1245
    137  CA        28.7100   12.3020   65.7090 C.3   167  LYS167      0.1561
    138  C         29.2970   12.2900   64.2950 C.2   167  LYS167      0.2260
    139  O         29.1330   11.3030   63.5790 O.2   167  LYS167     -0.2867
    140  CB        27.4650   13.1970   65.7220 C.3   167  LYS167      0.0271
    141  CG        26.5180   12.9710   66.9110 C.3   167  LYS167      0.0035
    142  CD        25.5640   14.1440   67.1210 C.3   167  LYS167      0.0206
    143  CE        24.6560   14.5000   65.9680 C.3   167  LYS167      0.1093
    144  NZ        23.9480   15.7980   66.2130 N.3   167  LYS167     -0.1314
    145  N         30.1100    9.0150   61.8800 N.3   171  ARG171     -0.1245
    146  CA        29.6150    8.7910   60.5180 C.3   171  ARG171      0.1563
    147  C         30.7860    8.6170   59.5430 C.2   171  ARG171      0.2260
    148  O         30.7210    7.7530   58.6690 O.2   171  ARG171     -0.2867
    149  CB        28.6480    9.8940   60.0690 C.3   171  ARG171      0.0307
    150  CG        27.3980    9.9750   60.9300 C.3   171  ARG171      0.0489
    151  CD        26.4590   11.0290   60.4030 C.3   171  ARG171      0.2205
    152  NE        25.6810   10.5040   59.2760 N.pl3 171  ARG171     -0.0865
    153  CZ        25.6720   11.0120   58.0490 C.cat 171  ARG171      0.5346
    154  NH1       26.3580   12.1170   57.7730 N.pl3 171  ARG171      0.1354
    155  NH2       24.9290   10.4550   57.1010 N.pl3 171  ARG171      0.1354
    156  N         15.5870   -1.8050   64.3160 N.3   195  PHE195     -0.1241
    157  CA        14.4680   -0.8880   64.5740 C.3   195  PHE195      0.1605
    158  C         13.2330   -1.6860   64.9760 C.2   195  PHE195      0.2264
    159  O         12.5580   -1.3140   65.9340 O.2   195  PHE195     -0.2867
    160  CB        14.1400    0.0190   63.3640 C.3   195  PHE195      0.0534
    161  CG        14.9310    1.3080   63.3260 C.ar  195  PHE195     -0.0203
    162  CD1       14.5670    2.3960   64.1180 C.ar  195  PHE195     -0.0042
    163  CD2       16.0250    1.4450   62.4780 C.ar  195  PHE195     -0.0042
    164  CE1       15.3180    3.5830   64.0930 C.ar  195  PHE195     -0.0003
    165  CE2       16.7670    2.6280   62.4460 C.ar  195  PHE195     -0.0003
    166  CZ        16.4260    3.6830   63.2620 C.ar  195  PHE195     -0.0000
    167  N         13.4650   -2.9270   68.5570 N.3   198  ASN198     -0.1240
    168  CA        13.1820   -1.8160   69.4740 C.3   198  ASN198      0.1653
    169  C         11.6870   -1.5540   69.5600 C.2   198  ASN198      0.2266
    170  O         11.1830   -1.3520   70.6580 O.2   198  ASN198     -0.2867
    171  CB        13.9410   -0.5530   69.0530 C.3   198  ASN198      0.1155
    172  CG        15.3480   -0.6030   69.5670 C.2   198  ASN198      0.2627
    173  OD1       15.6090   -0.2040   70.7010 O.2   198  ASN198     -0.2716
    174  ND2       16.2390   -1.2800   68.8390 N.am  198  ASN198     -0.0877
    175  N          9.2410   -1.7260   72.9320 N.3   202  PHE202     -0.1241
    176  CA         8.3510   -0.5960   73.2250 C.3   202  PHE202      0.1605
    177  C          6.8820   -1.0220   73.2840 C.2   202  PHE202      0.2264
    178  O          6.1120   -0.4660   74.0950 O.2   202  PHE202     -0.2867
    179  CB         8.5620    0.5910   72.2640 C.3   202  PHE202      0.0534
    180  CG         9.9370    1.2400   72.2500 C.ar  202  PHE202     -0.0203
    181  CD1       10.7660    1.1930   73.3690 C.ar  202  PHE202     -0.0042
    182  CD2       10.3900    1.9140   71.1260 C.ar  202  PHE202     -0.0042
    183  CE1       12.0350    1.7850   73.3480 C.ar  202  PHE202     -0.0003
    184  CE2       11.6500    2.5230   71.1140 C.ar  202  PHE202     -0.0003
    185  CZ        12.4640    2.4500   72.2200 C.ar  202  PHE202     -0.0000
@<TRIPOS>BOND
     1     1     2    1
     2     3     4    2
     3     3     2    1
     4     8     9    2
     5     8     7    1
     6     2     5    1
     7     6     7    1
     8    10     7    1
     9    10    11    1
    10   155   153    1
    11    12    11    1
    12    12    13    1
    13    16    14    1
    14   154   153    1
    15   153   152    2
    16    13    14    2
    17    14    15    1
    18   148   147    2
    19   152   151    1
    20   147   146    1
    21   149   146    1
    22   149   150    1
    23    79    78    1
    24   151   150    1
    25   146   145    1
    26    78    76   ar
    27    78    77   ar
    28    76    74   ar
    29    77    75   ar
    30    17    18    1
    31    74    73   ar
    32    75    73   ar
    33    73    72    1
    34    21    18    1
    35    21    22    1
    36   165   163   ar
    37   165   166   ar
    38   163   161   ar
    39    18    19    1
    40    72    69    1
    41    19    20    2
    42   105   103    1
    43   166   164   ar
    44   161   160    1
    45   161   162   ar
    46   160   157    1
    47    22    23   ar
    48    22    24   ar
    49   139   138    2
    50    86    84    1
    51    23    25   ar
    52   164   162   ar
    53    24    26   ar
    54   138   137    1
    55   156   157    1
    56    69    70    1
    57    69    68    1
    58   157   158    1
    59   103   104    1
    60   103   102    1
    61    25    26   ar
    62    27    28    1
    63   158   159    2
    64    80    70   am
    65    80    81    1
    66    70    71    2
    67    84    81    1
    68    84    85    1
    69    81    82    1
    70   102    99    1
    71    39    38   ar
    72   137   140    1
    73   137   136    1
    74   140   141    1
    75   143   144    1
    76   143   142    1
    77    40    38   ar
    78    28    31    1
    79    28    29    1
    80    38    37    1
    81   115   114    1
    82    32    29   am
    83    32    33    1
    84    82    83    2
    85    82    87   am
    86   141   142    1
    87    99   100    1
    88    99    98    1
    89   114   111    1
    90    36    37    1
    91    36    33    1
    92    29    30    2
    93   100   101    2
    94   100   106   am
    95   106   107    1
    96    34    33    1
    97    34    35    2
    98    87    88    1
    99   107   108    1
   100   111   110    1
   101   111   112    1
   102   167   168    1
   103   174   172   am
   104   171   168    1
   105   171   172    1
   106    88    89    1
   107    88    91    1
   108   113   112    2
   109   112   116   am
   110   108   109    2
   111    89    90    2
   112   168   169    1
   113   169   170    2
   114   172   173    2
   115   116   117    1
   116   127   125    1
   117    91    92    1
   118    92    93    1
   119    93    94    1
   120   117   118    1
   121    47    45    1
   122   184   182   ar
   123   184   185   ar
   124   182   180   ar
   125    65    66    1
   126    65    64    1
   127    96    95    1
   128    94    95    2
   129    66    67    1
   130   125   124    1
   131    45    46    1
   132    45    42    1
   133    64    61    1
   134    95    97    1
   135    46    48    1
   136   185   183   ar
   137   180   179    1
   138   180   181   ar
   139   179   176    1
   140   118   119    2
   141   126   124    1
   142   124   121    1
   143    43    44    2
   144    43    42    1
   145    42    41    1
   146   175   176    1
   147    61    62    1
   148    61    60    1
   149   176   177    1
   150   177   178    2
   151   134   133    1
   152    63    62    2
   153   183   181   ar
   154   133   135    1
   155   133   132    1
   156   121   120    1
   157   121   122    1
   158    60    51   am
   159   128   122   am
   160   128   129    1
   161   122   123    2
   162   132   129    1
   163    51    52    2
   164    51    50    1
   165   129   130    1
   166    49    50    1
   167    53    50    1
   168    53    54    1
   169    56    54   ar
   170    56    58   ar
   171    54    55   ar
   172    58    59   ar
   173    55    57   ar
   174   130   131    2
   175    59    57   ar
