@<TRIPOS>MOLECULE
tmp/5kzqA00.pdb
 146 138 0 0 0
SMALL
GASTEIGER

@<TRIPOS>ATOM
      1  N        -14.5290  -30.1110   19.2070 N.3    32  ARG32      -0.1245
      2  CA       -15.1510  -29.0250   19.9740 C.3    32  ARG32       0.1563
      3  C        -14.1490  -27.9320   20.3770 C.2    32  ARG32       0.2260
      4  O        -14.5590  -26.8170   20.6900 O.2    32  ARG32      -0.2867
      5  CB       -15.9290  -29.5600   21.1930 C.3    32  ARG32       0.0307
      6  CG       -17.2460  -30.2570   20.8820 C.3    32  ARG32       0.0489
      7  CD       -17.8540  -30.8490   22.1580 C.3    32  ARG32       0.2205
      8  NE       -18.5350  -32.1240   21.9080 N.pl3  32  ARG32      -0.0865
      9  CZ       -17.9290  -33.3120   21.8660 C.cat  32  ARG32       0.5346
     10  NH1      -16.6180  -33.4070   22.0690 N.pl3  32  ARG32       0.1354
     11  NH2      -18.6290  -34.4120   21.6200 N.pl3  32  ARG32       0.1354
     12  N        -13.3320  -25.6360   16.5670 N.3    36  ARG36      -0.1245
     13  CA       -14.0790  -24.4050   16.7970 C.3    36  ARG36       0.1563
     14  C        -13.1680  -23.1880   17.0380 C.2    36  ARG36       0.2260
     15  O        -13.5470  -22.0600   16.6870 O.2    36  ARG36      -0.2867
     16  CB       -15.0470  -24.5660   17.9600 C.3    36  ARG36       0.0307
     17  CG       -16.1450  -25.5640   17.7440 C.3    36  ARG36       0.0489
     18  CD       -16.9540  -25.6130   19.0140 C.3    36  ARG36       0.2205
     19  NE       -18.0280  -26.5940   18.9360 N.pl3  36  ARG36      -0.0865
     20  CZ       -18.7010  -27.0380   19.9860 C.cat  36  ARG36       0.5346
     21  NH1      -18.4090  -26.5990   21.2030 N.pl3  36  ARG36       0.1354
     22  NH2      -19.6540  -27.9400   19.8340 N.pl3  36  ARG36       0.1354
     23  N        -18.1000  -23.2630   25.6920 N.3    96  SER96      -0.1202
     24  CA       -18.7530  -24.2970   24.9060 C.3    96  SER96       0.2020
     25  C        -19.7580  -24.8540   25.8880 C.2    96  SER96       0.2619
     26  O        -20.9610  -24.6730   25.7000 O.2    96  SER96      -0.2717
     27  CB       -17.7920  -25.3860   24.4760 C.3    96  SER96       0.2103
     28  OG       -17.2810  -25.0520   23.2010 O.3    96  SER96      -0.2182
     29  N        -19.2460  -25.4050   27.0030 N.am   97  TYR97      -0.1961
     30  CA       -20.0320  -25.9730   28.0850 C.3    97  TYR97       0.1771
     31  C        -20.7860  -24.9250   28.8690 C.2    97  TYR97       0.2620
     32  O        -20.2910  -23.8150   29.0740 O.2    97  TYR97      -0.2715
     33  CB       -19.1610  -26.8320   29.0080 C.3    97  TYR97       0.0574
     34  CG       -18.5850  -28.0200   28.2810 C.ar   97  TYR97      -0.0198
     35  CD1      -19.3690  -29.1350   27.9980 C.ar   97  TYR97      -0.0009
     36  CD2      -17.2760  -28.0060   27.8130 C.ar   97  TYR97      -0.0009
     37  CE1      -18.8560  -30.2180   27.2820 C.ar   97  TYR97       0.0417
     38  CE2      -16.7550  -29.0790   27.0890 C.ar   97  TYR97       0.0417
     39  CZ       -17.5460  -30.1870   26.8330 C.ar   97  TYR97       0.1957
     40  OH       -17.0220  -31.2460   26.1350 O.3    97  TYR97      -0.2866
     41  N        -21.9980  -25.2800   29.3090 N.am   98  SER98      -0.1950
     42  CA       -22.8220  -24.3420   30.0260 C.3    98  SER98       0.1924
     43  C        -22.2280  -23.9770   31.3450 C.2    98  SER98       0.2314
     44  O        -22.0360  -22.7810   31.5830 O.2    98  SER98      -0.2863
     45  CB       -24.2380  -24.8420   30.1300 C.3    98  SER98       0.2116
     46  OG       -24.8970  -24.4300   28.9490 O.3    98  SER98      -0.2180
     47  N        -22.3080  -22.4410   22.0240 N.3   119  ALA119     -0.1231
     48  CA       -22.6670  -23.8260   22.2990 C.3   119  ALA119      0.1694
     49  C        -23.3960  -24.0430   23.6300 C.2   119  ALA119      0.2593
     50  O        -24.0310  -25.0870   23.7860 O.2   119  ALA119     -0.2718
     51  CB       -21.4270  -24.7030   22.2330 C.3   119  ALA119      0.0304
     52  N        -23.2730  -23.1110   24.5970 N.am  120  SER120     -0.1938
     53  CA       -23.9110  -23.2770   25.9030 C.3   120  SER120      0.2055
     54  C        -25.4300  -23.1310   25.7600 C.2   120  SER120      0.2644
     55  O        -25.9410  -22.0790   25.3040 O.2   120  SER120     -0.2714
     56  CB       -23.2890  -22.3480   26.9410 C.3   120  SER120      0.2130
     57  OG       -21.8730  -22.4650   26.9430 O.3   120  SER120     -0.2179
     58  N        -26.1350  -24.2730   26.0030 N.am  121  THR121     -0.1936
     59  CA       -27.5760  -24.3970   25.7550 C.3   121  THR121      0.2028
     60  C        -28.4120  -24.5100   26.9870 C.2   121  THR121      0.2642
     61  O        -29.6250  -24.6830   26.8490 O.2   121  THR121     -0.2714
     62  CB       -27.8930  -25.5560   24.7990 C.3   121  THR121      0.1808
     63  OG1      -27.4390  -26.7830   25.3580 O.3   121  THR121     -0.2208
     64  CG2      -27.3030  -25.3680   23.4270 C.3   121  THR121      0.0379
     65  N        -27.8050  -24.3660   28.1850 N.am  122  SER122     -0.1949
     66  CA       -28.5070  -24.4610   29.4720 C.3   122  SER122      0.1924
     67  C        -29.5650  -23.3880   29.6140 C.2   122  SER122      0.2314
     68  O        -29.2700  -22.2020   29.5150 O.2   122  SER122     -0.2863
     69  CB       -27.5210  -24.3650   30.6360 C.3   122  SER122      0.2116
     70  OG       -28.1130  -24.3770   31.9240 O.3   122  SER122     -0.2180
     71  N        -32.1550  -25.4530   25.1430 N.3   141  ASP141     -0.1239
     72  CA       -32.8160  -26.7170   24.8600 C.3   141  ASP141      0.1674
     73  C        -34.3200  -26.7060   25.2720 C.2   141  ASP141      0.2266
     74  O        -35.0900  -27.5500   24.8020 O.2   141  ASP141     -0.2867
     75  CB       -32.0320  -27.8800   25.5030 C.3   141  ASP141      0.1410
     76  CG       -30.5420  -27.9570   25.1650 C.2   141  ASP141      0.3668
     77  OD1      -30.1990  -27.9720   23.9390 O.co2 141  ASP141     -0.2456
     78  OD2      -29.7190  -28.0620   26.1210 O.co2 141  ASP141     -0.2456
     79  N        -29.7260  -31.2710   31.5120 N.3   169  TYR169     -0.1241
     80  CA       -30.3890  -31.5110   30.2260 C.3   169  TYR169      0.1605
     81  C        -31.7220  -32.2400   30.3240 C.2   169  TYR169      0.2264
     82  O        -32.7260  -31.7100   29.8390 O.2   169  TYR169     -0.2867
     83  CB       -29.4520  -32.2350   29.2530 C.3   169  TYR169      0.0534
     84  CG       -30.0350  -32.4750   27.8770 C.ar  169  TYR169     -0.0201
     85  CD1      -30.4420  -31.4130   27.0740 C.ar  169  TYR169     -0.0009
     86  CD2      -30.1010  -33.7540   27.3430 C.ar  169  TYR169     -0.0009
     87  CE1      -30.9080  -31.6240   25.7770 C.ar  169  TYR169      0.0417
     88  CE2      -30.6200  -33.9840   26.0700 C.ar  169  TYR169      0.0417
     89  CZ       -31.0220  -32.9160   25.2890 C.ar  169  TYR169      0.1957
     90  OH       -31.4970  -33.1510   24.0240 O.3   169  TYR169     -0.2866
     91  N        -29.8820  -38.0780   27.0720 N.3   224  ARG224     -0.1231
     92  CA       -28.5540  -37.9290   26.4950 C.3   224  ARG224      0.1694
     93  C        -28.3950  -39.0910   25.5210 C.2   224  ARG224      0.2593
     94  O        -29.0360  -40.1270   25.6910 O.2   224  ARG224     -0.2718
     95  CB       -27.4720  -37.9920   27.5970 C.3   224  ARG224      0.0321
     96  CG       -27.6620  -36.9680   28.6820 C.3   224  ARG224      0.0489
     97  CD       -26.6510  -37.1520   29.8040 C.3   224  ARG224      0.2205
     98  NE       -26.9360  -36.2130   30.8810 N.pl3 224  ARG224     -0.0865
     99  CZ       -26.5490  -34.9440   30.8880 C.cat 224  ARG224      0.5346
    100  NH1      -25.8420  -34.4470   29.8830 N.pl3 224  ARG224      0.1354
    101  NH2      -26.9040  -34.1590   31.8930 N.pl3 224  ARG224      0.1354
    102  N        -27.5520  -38.9150   24.4990 N.am  225  SER225     -0.1938
    103  CA       -27.2460  -39.9170   23.4740 C.3   225  SER225      0.2055
    104  C        -27.0070  -41.3590   24.0610 C.2   225  SER225      0.2642
    105  O        -27.5210  -42.3480   23.5190 O.2   225  SER225     -0.2714
    106  CB       -26.0360  -39.4450   22.6700 C.3   225  SER225      0.2130
    107  OG       -25.8690  -40.1680   21.4630 O.3   225  SER225     -0.2179
    108  N        -26.2530  -41.4400   25.1930 N.am  226  GLU226     -0.1976
    109  CA       -25.8560  -42.6520   25.9330 C.3   226  GLU226      0.1602
    110  C        -27.0710  -43.4280   26.4410 C.2   226  GLU226      0.2287
    111  O        -27.1590  -44.6450   26.2560 O.2   226  GLU226     -0.2864
    112  CB       -24.9390  -42.2830   27.1300 C.3   226  GLU226      0.0415
    113  CG       -23.6560  -41.5450   26.7680 C.3   226  GLU226      0.1163
    114  CD       -23.6870  -40.0230   26.7320 C.2   226  GLU226      0.3649
    115  OE1      -24.7350  -39.4360   26.3750 O.co2 226  GLU226     -0.2457
    116  OE2      -22.6290  -39.4150   27.0140 O.co2 226  GLU226     -0.2457
    117  N        -32.6700  -33.7520   20.8850 N.3   248  ASP248     -0.1225
    118  CA       -31.4170  -33.8060   20.1240 C.3   248  ASP248      0.1805
    119  C        -30.3790  -34.7000   20.7900 C.2   248  ASP248      0.2598
    120  O        -29.2620  -34.8230   20.2810 O.2   248  ASP248     -0.2718
    121  CB       -30.8560  -32.4060   19.8420 C.3   248  ASP248      0.1424
    122  CG       -30.2190  -31.7430   21.0400 C.2   248  ASP248      0.3668
    123  OD1      -30.9520  -31.3890   21.9720 O.co2 248  ASP248     -0.2456
    124  OD2      -28.9820  -31.5520   21.0270 O.co2 248  ASP248     -0.2456
    125  N        -30.7530  -35.3100   21.9200 N.am  249  GLY249     -0.1957
    126  CA       -29.9180  -36.2810   22.6070 C.3   249  GLY249      0.1869
    127  C        -29.7700  -37.4460   21.6620 C.2   249  GLY249      0.2309
    128  O        -28.6590  -37.8140   21.2790 O.2   249  GLY249     -0.2863
    129  N        -17.5790  -29.9010   12.5070 N.3   328  GLU328     -0.1245
    130  CA       -18.2540  -29.8620   13.8150 C.3   328  GLU328      0.1567
    131  C        -19.5980  -29.1210   13.7920 C.2   328  GLU328      0.2260
    132  O        -19.7030  -28.0190   13.2530 O.2   328  GLU328     -0.2867
    133  CB       -17.3240  -29.2650   14.8790 C.3   328  GLU328      0.0388
    134  CG       -17.5720  -29.7430   16.2970 C.3   328  GLU328      0.1160
    135  CD       -18.8910  -29.3540   16.9410 C.2   328  GLU328      0.3649
    136  OE1      -19.2140  -28.1460   16.9190 O.co2 328  GLU328     -0.2457
    137  OE2      -19.6210  -30.2530   17.4270 O.co2 328  GLU328     -0.2457
    138  N        -21.5610  -27.2870   15.6640 N.3   330  LYS330     -0.1245
    139  CA       -21.6890  -25.9210   16.1180 C.3   330  LYS330      0.1561
    140  C        -20.7310  -24.9390   15.4590 C.2   330  LYS330      0.2260
    141  O        -20.7720  -23.7500   15.8280 O.2   330  LYS330     -0.2867
    142  CB       -21.5770  -25.8800   17.6270 C.3   330  LYS330      0.0271
    143  CG       -22.9170  -25.9430   18.3170 C.3   330  LYS330      0.0035
    144  CD       -22.9400  -26.7790   19.6090 C.3   330  LYS330      0.0206
    145  CE       -24.3070  -27.3710   19.8180 C.3   330  LYS330      0.1093
    146  NZ       -24.7080  -28.2580   18.6720 N.3   330  LYS330     -0.1314
@<TRIPOS>BOND
     1   129   130    1
     2   132   131    2
     3   131   130    1
     4   130   133    1
     5   133   134    1
     6   140   141    2
     7   140   139    1
     8   138   139    1
     9   139   142    1
    10   134   135    1
    11    12    13    1
    12    15    14    2
    13    13    14    1
    14    13    16    1
    15   136   135   ar
    16   135   137   ar
    17   142   143    1
    18    17    16    1
    19    17    18    1
    20   143   144    1
    21   146   145    1
    22    19    18    1
    23    19    20    2
    24     1     2    1
    25   144   145    1
    26    22    20    1
    27   121   118    1
    28   121   122    1
    29     2     3    1
    30     2     5    1
    31    20    21    1
    32   118   119    1
    33   118   117    1
    34   120   119    2
    35     3     4    2
    36   119   125   am
    37     6     5    1
    38     6     7    1
    39   124   122   ar
    40   122   123   ar
    41   128   127    2
    42   107   106    1
    43    11     9    1
    44   127   126    1
    45     9     8    2
    46     9    10    1
    47     8     7    1
    48   125   126    1
    49    47    48    1
    50    51    48    1
    51    48    49    1
    52   106   103    1
    53    28    27    1
    54    64    62    1
    55   103   104    1
    56   103   102    1
    57   105   104    2
    58    49    50    2
    59    49    52   am
    60    77    76   ar
    61    90    89    1
    62   104   108   am
    63    27    24    1
    64   102    93   am
    65    52    53    1
    66    62    63    1
    67    62    59    1
    68    74    73    2
    69    72    71    1
    70    72    73    1
    71    72    75    1
    72    24    23    1
    73    24    25    1
    74    76    75    1
    75    76    78   ar
    76   108   109    1
    77    89    87   ar
    78    89    88   ar
    79    55    54    2
    80    93    94    2
    81    93    92    1
    82    26    25    2
    83    59    58    1
    84    59    60    1
    85    54    53    1
    86    54    58   am
    87    87    85   ar
    88    25    29   am
    89    53    56    1
    90   109   110    1
    91   109   112    1
    92    88    86   ar
    93    40    39    1
    94   111   110    2
    95   115   114   ar
    96    92    91    1
    97    92    95    1
    98   114   113    1
    99   114   116   ar
   100   113   112    1
   101    39    38   ar
   102    39    37   ar
   103    61    60    2
   104    56    57    1
   105    60    65   am
   106    29    30    1
   107    85    84   ar
   108    38    36   ar
   109    37    35   ar
   110    86    84   ar
   111    95    96    1
   112    36    34   ar
   113    84    83    1
   114    35    34   ar
   115    30    31    1
   116    30    33    1
   117    65    66    1
   118    34    33    1
   119    96    97    1
   120    31    32    2
   121    31    41   am
   122    46    45    1
   123    83    80    1
   124    41    42    1
   125    66    67    1
   126    66    69    1
   127    68    67    2
   128    97    98    1
   129    82    81    2
   130   100    99    1
   131    42    45    1
   132    42    43    1
   133    80    81    1
   134    80    79    1
   135    69    70    1
   136    98    99    2
   137    99   101    1
   138    43    44    2
