@<TRIPOS>MOLECULE
tmp/5kzuC01.pdb
 113 107 0 0 0
SMALL
GASTEIGER

@<TRIPOS>ATOM
      1  N         56.6590  105.7330    9.5920 N.3    35  THR35      -0.1218
      2  CA        56.0990  106.6810    8.6390 C.3    35  THR35       0.1862
      3  C         54.5920  106.6240    8.8150 C.2    35  THR35       0.2287
      4  O         53.9540  105.6530    8.4020 O.2    35  THR35      -0.2866
      5  CB        56.4920  106.3370    7.2040 C.3    35  THR35       0.1770
      6  OG1       57.9150  106.3850    7.0800 O.3    35  THR35      -0.2211
      7  CG2       55.8360  107.3270    6.2170 C.3    35  THR35       0.0375
      8  N         53.8610  102.8880    7.7670 N.3    54  TYR54      -0.1241
      9  CA        54.9990  102.0680    7.3490 C.3    54  TYR54       0.1605
     10  C         55.9720  101.9430    8.5130 C.2    54  TYR54       0.2264
     11  O         56.3140  102.9430    9.1480 O.2    54  TYR54      -0.2867
     12  CB        55.7660  102.6690    6.1700 C.3    54  TYR54       0.0534
     13  CG        54.9760  103.0420    4.9380 C.ar   54  TYR54      -0.0201
     14  CD1       53.7790  102.4230    4.6390 C.ar   54  TYR54      -0.0009
     15  CD2       55.4650  104.0070    4.0500 C.ar   54  TYR54      -0.0009
     16  CE1       53.0750  102.7570    3.4990 C.ar   54  TYR54       0.0417
     17  CE2       54.7700  104.3510    2.8960 C.ar   54  TYR54       0.0417
     18  CZ        53.5780  103.7190    2.6240 C.ar   54  TYR54       0.1957
     19  OH        52.8590  104.0410    1.4950 O.3    54  TYR54      -0.2866
     20  N         59.7000  100.9310    9.1320 N.3    56  GLN56      -0.1231
     21  CA        61.0090  100.5600    8.6040 C.3    56  GLN56       0.1698
     22  C         61.7550   99.7260    9.6320 C.2    56  GLN56       0.2592
     23  O         61.8710  100.1180   10.7930 O.2    56  GLN56      -0.2718
     24  CB        61.8310  101.8020    8.2670 C.3    56  GLN56       0.0381
     25  CG        61.3810  102.5630    7.0400 C.3    56  GLN56       0.0905
     26  CD        62.0180  103.9500    6.9910 C.2    56  GLN56       0.2608
     27  OE1       61.8050  104.7830    7.8930 O.2    56  GLN56      -0.2717
     28  NE2       62.8320  104.1930    5.9560 N.am   56  GLN56      -0.0878
     29  N         62.2670   98.5860    9.2070 N.am   57  GLN57      -0.1966
     30  CA        63.1180   97.7440   10.0380 C.3    57  GLN57       0.1733
     31  C         64.3680   97.4160    9.2430 C.2    57  GLN57       0.2616
     32  O         64.2910   97.1320    8.0410 O.2    57  GLN57      -0.2715
     33  CB        62.4370   96.4360   10.4420 C.3    57  GLN57       0.0408
     34  CG        61.1020   96.5820   11.1060 C.3    57  GLN57       0.0908
     35  CD        60.5900   95.2550   11.6530 C.2    57  GLN57       0.2608
     36  OE1       61.1410   94.1980   11.3610 O.2    57  GLN57      -0.2717
     37  NE2       59.5460   95.3150   12.4670 N.am   57  GLN57      -0.0878
     38  N         65.5070   97.4210    9.9230 N.am   58  ARG58      -0.1977
     39  CA        66.7910   97.2490    9.2720 C.3    58  ARG58       0.1597
     40  C         67.7020   96.5510   10.2700 C.2    58  ARG58       0.2287
     41  O         67.7220   96.9320   11.4440 O.2    58  ARG58      -0.2864
     42  CB        67.3400   98.6160    8.8500 C.3    58  ARG58       0.0334
     43  CG        68.6660   98.6200    8.1230 C.3    58  ARG58       0.0492
     44  CD        68.9640  100.0340    7.6320 C.3    58  ARG58       0.2205
     45  NE        69.7970  100.7870    8.5680 N.pl3  58  ARG58      -0.0865
     46  CZ        69.4240  101.9100    9.1760 C.cat  58  ARG58       0.5346
     47  NH1       68.2160  102.4360    8.9510 N.pl3  58  ARG58       0.1354
     48  NH2       70.2700  102.5040   10.0150 N.pl3  58  ARG58       0.1354
     49  N         66.0680   90.5970   -3.6800 N.3    78  ARG78      -0.1245
     50  CA        64.8230   90.5760   -2.9330 C.3    78  ARG78       0.1563
     51  C         64.4860   89.1470   -2.5430 C.2    78  ARG78       0.2260
     52  O         64.7580   88.2100   -3.2940 O.2    78  ARG78      -0.2867
     53  CB        63.6880   91.1730   -3.7480 C.3    78  ARG78       0.0307
     54  CG        63.6180   92.6710   -3.6540 C.3    78  ARG78       0.0489
     55  CD        64.7130   93.2710   -4.4430 C.3    78  ARG78       0.2205
     56  NE        64.5280   94.6890   -4.6710 N.pl3  78  ARG78      -0.0865
     57  CZ        65.5370   95.5230   -4.8550 C.cat  78  ARG78       0.5346
     58  NH1       66.7720   95.0590   -4.8250 N.pl3  78  ARG78       0.1354
     59  NH2       65.3120   96.8060   -5.0750 N.pl3  78  ARG78       0.1354
     60  N         64.6160   93.4610    1.3460 N.3   107  VAL107     -0.1245
     61  CA        65.7700   93.7190    0.4970 C.3   107  VAL107      0.1561
     62  C         67.0100   93.2970    1.2720 C.2   107  VAL107      0.2260
     63  O         67.1570   93.6420    2.4480 O.2   107  VAL107     -0.2867
     64  CB        65.8450   95.2060    0.0980 C.3   107  VAL107      0.0252
     65  CG1       67.1580   95.5080   -0.6370 C.3   107  VAL107      0.0019
     66  CG2       64.6480   95.5950   -0.7560 C.3   107  VAL107      0.0019
     67  N         66.5780   94.8500    4.7970 N.3   115  MET115     -0.1230
     68  CA        65.6880   96.0020    4.8740 C.3   115  MET115      0.1702
     69  C         64.2600   95.5660    4.5770 C.2   115  MET115      0.2592
     70  O         64.0010   94.9120    3.5590 O.2   115  MET115     -0.2718
     71  CB        66.1380   97.1020    3.9130 C.3   115  MET115      0.0401
     72  CG        67.3810   97.8710    4.3950 C.3   115  MET115      0.0596
     73  SD        68.9250   97.5690    3.5080 S.3   115  MET115     -0.1393
     74  CE        68.4990   98.1040    1.8460 C.3   115  MET115      0.0692
     75  N         63.3370   95.9640    5.4480 N.am  116  PHE116     -0.1962
     76  CA        61.9890   95.4060    5.5050 C.3   116  PHE116      0.1771
     77  C         61.0760   96.5480    5.9250 C.2   116  PHE116      0.2619
     78  O         61.3420   97.1900    6.9440 O.2   116  PHE116     -0.2715
     79  CB        61.9560   94.2290    6.5070 C.3   116  PHE116      0.0574
     80  CG        60.6310   93.4820    6.6020 C.ar  116  PHE116     -0.0200
     81  CD1       59.9070   93.1320    5.4720 C.ar  116  PHE116     -0.0042
     82  CD2       60.1460   93.0810    7.8530 C.ar  116  PHE116     -0.0042
     83  CE1       58.7040   92.4300    5.5890 C.ar  116  PHE116     -0.0003
     84  CE2       58.9570   92.3800    7.9770 C.ar  116  PHE116     -0.0003
     85  CZ        58.2340   92.0510    6.8350 C.ar  116  PHE116     -0.0000
     86  N         60.0430   96.8470    5.1330 N.am  117  ILE117     -0.1977
     87  CA        59.1660   97.9730    5.4630 C.3   117  ILE117      0.1596
     88  C         57.7000   97.5790    5.3100 C.2   117  ILE117      0.2287
     89  O         57.0250   98.0020    4.3640 O.2   117  ILE117     -0.2864
     90  CB        59.5140   99.2230    4.6330 C.3   117  ILE117      0.0276
     91  CG1       58.5930  100.3970    4.9950 C.3   117  ILE117      0.0022
     92  CG2       59.5310   98.9390    3.1070 C.3   117  ILE117      0.0022
     93  CD1       58.9780  101.7000    4.2850 C.3   117  ILE117      0.0001
     94  N         58.3190  110.2450   10.7840 N.3   163  ASP163     -0.1239
     95  CA        58.1640  110.7210    9.4140 C.3   163  ASP163      0.1674
     96  C         56.6900  111.0230    9.1460 C.2   163  ASP163      0.2266
     97  O         55.8490  110.1140    9.1380 O.2   163  ASP163     -0.2867
     98  CB        58.7140  109.6680    8.4640 C.3   163  ASP163      0.1410
     99  CG        58.5720  110.0430    6.9940 C.2   163  ASP163      0.3668
    100  OD1       57.9150  111.0560    6.6520 O.co2 163  ASP163     -0.2456
    101  OD2       59.1280  109.2770    6.1750 O.co2 163  ASP163     -0.2456
    102  N         55.8680  112.9660    6.3320 N.3   165  SER165     -0.1202
    103  CA        55.8250  113.4180    4.9470 C.3   165  SER165      0.2020
    104  C         54.7880  112.6860    4.0970 C.2   165  SER165      0.2619
    105  O         54.5200  113.1240    2.9700 O.2   165  SER165     -0.2717
    106  CB        57.2090  113.2590    4.3140 C.3   165  SER165      0.2103
    107  OG        57.5430  111.8880    4.1610 O.3   165  SER165     -0.2182
    108  N         54.2100  111.5830    4.5840 N.am  166  SER166     -0.1951
    109  CA        53.1770  110.8680    3.8420 C.3   166  SER166      0.1924
    110  C         51.8640  110.8320    4.6020 C.2   166  SER166      0.2314
    111  O         51.0010  110.0010    4.2850 O.2   166  SER166     -0.2863
    112  CB        53.6020  109.4370    3.5100 C.3   166  SER166      0.2116
    113  OG        54.8860  109.4080    2.9400 O.3   166  SER166     -0.2180
@<TRIPOS>BOND
     1    59    57    1
     2    57    58    1
     3    57    56    2
     4    56    55    1
     5    55    54    1
     6    53    54    1
     7    53    50    1
     8    49    50    1
     9    52    51    2
    10    50    51    1
    11    66    64    1
    12    65    64    1
    13    64    61    1
    14    61    62    1
    15    61    60    1
    16    62    63    2
    17    19    18    1
    18    74    73    1
    19    18    17   ar
    20    18    16   ar
    21    17    15   ar
    22   113   112    1
    23   105   104    2
    24    92    90    1
    25    16    14   ar
    26    73    72    1
    27   112   109    1
    28    70    69    2
    29   109   108    1
    30   109   110    1
    31    71    72    1
    32    71    68    1
    33    15    13   ar
    34   104   108   am
    35   104   103    1
    36   107   106    1
    37    93    91    1
    38   111   110    2
    39   106   103    1
    40    89    88    2
    41    69    68    1
    42    69    75   am
    43    90    91    1
    44    90    87    1
    45    14    13   ar
    46    67    68    1
    47    13    12    1
    48   103   102    1
    49    86    87    1
    50    86    77   am
    51    88    87    1
    52    75    76    1
    53    81    83   ar
    54    81    80   ar
    55    76    77    1
    56    76    79    1
    57    83    85   ar
    58    77    78    2
    59    28    26   am
    60    12     9    1
    61   101    99   ar
    62     7     5    1
    63    79    80    1
    64    80    82   ar
    65   100    99   ar
    66    85    84   ar
    67    26    25    1
    68    26    27    2
    69    99    98    1
    70    25    24    1
    71     6     5    1
    72     5     2    1
    73     9     8    1
    74     9    10    1
    75    44    43    1
    76    44    45    1
    77    82    84   ar
    78    32    31    2
    79    43    42    1
    80    24    21    1
    81     4     3    2
    82    98    95    1
    83    10    11    2
    84    45    46    2
    85    21    20    1
    86    21    22    1
    87     2     3    1
    88     2     1    1
    89    42    39    1
    90    47    46    1
    91    97    96    2
    92    96    95    1
    93    46    48    1
    94    29    22   am
    95    29    30    1
    96    31    38   am
    97    31    30    1
    98    39    38    1
    99    39    40    1
   100    95    94    1
   101    22    23    2
   102    30    33    1
   103    40    41    2
   104    33    34    1
   105    34    35    1
   106    36    35    2
   107    35    37   am
