@<TRIPOS>MOLECULE
tmp/5kzvA00.pdb
 133 128 0 0 0
SMALL
GASTEIGER

@<TRIPOS>ATOM
      1  N          8.9660   11.0260   39.2940 N.3    33  ASP33      -0.1239
      2  CA         8.9060   11.2960   37.8580 C.3    33  ASP33       0.1674
      3  C          7.7530   10.5420   37.1790 C.2    33  ASP33       0.2266
      4  O          7.5470   10.6840   35.9720 O.2    33  ASP33      -0.2867
      5  CB        10.2480   10.9330   37.1850 C.3    33  ASP33       0.1410
      6  CG        10.5630    9.4240   37.2190 C.2    33  ASP33       0.3668
      7  OD1        9.8630    8.6460   37.9190 O.co2  33  ASP33      -0.2456
      8  OD2       11.5490    9.0080   36.5570 O.co2  33  ASP33      -0.2456
      9  N          9.6970    5.1020   31.9720 N.3    43  LYS43      -0.1245
     10  CA        10.9010    5.6320   32.6220 C.3    43  LYS43       0.1561
     11  C         11.9240    4.5080   32.8370 C.2    43  LYS43       0.2260
     12  O         13.1210    4.6860   32.5990 O.2    43  LYS43      -0.2867
     13  CB        10.5750    6.2910   33.9690 C.3    43  LYS43       0.0271
     14  CG         9.6420    7.5190   33.9010 C.3    43  LYS43       0.0035
     15  CD        10.2630    8.6720   33.1270 C.3    43  LYS43       0.0206
     16  CE         9.2070    9.7300   32.8590 C.3    43  LYS43       0.1093
     17  NZ         9.6950   10.7700   31.9330 N.3    43  LYS43      -0.1314
     18  N         13.8260    3.9350   29.7170 N.3    46  LEU46      -0.1231
     19  CA        14.9370    4.8750   29.5650 C.3    46  LEU46       0.1693
     20  C         16.1490    4.4400   30.3940 C.2    46  LEU46       0.2592
     21  O         17.2880    4.4510   29.9060 O.2    46  LEU46      -0.2718
     22  CB        14.5200    6.2820   29.9740 C.3    46  LEU46       0.0284
     23  CG        13.7420    7.0620   28.9240 C.3    46  LEU46       0.0019
     24  CD1       13.2000    8.3430   29.5270 C.3    46  LEU46       0.0001
     25  CD2       14.6390    7.3890   27.7390 C.3    46  LEU46       0.0001
     26  N         15.9060    4.0940   31.6550 N.am   47  TRP47      -0.1976
     27  CA        16.9880    3.6090   32.5230 C.3    47  TRP47       0.1640
     28  C         17.7000    2.3880   31.9600 C.2    47  TRP47       0.2290
     29  O         18.9150    2.2090   32.1730 O.2    47  TRP47      -0.2864
     30  CB        16.4560    3.2770   33.9240 C.3    47  TRP47       0.0576
     31  CG        16.2100    4.4460   34.8070 C.ar   47  TRP47       0.0006
     32  CD1       14.9930    4.9150   35.2410 C.ar   47  TRP47       0.0946
     33  CD2       17.1990    5.2990   35.4000 C.ar   47  TRP47       0.0152
     34  NE1       15.1680    5.9930   36.0570 N.ar   47  TRP47      -0.2442
     35  CE2       16.5120    6.2550   36.1730 C.ar   47  TRP47       0.0810
     36  CE3       18.6000    5.3450   35.3510 C.ar   47  TRP47       0.0012
     37  CZ2       17.1770    7.2610   36.8940 C.ar   47  TRP47       0.0191
     38  CZ3       19.2620    6.3350   36.0620 C.ar   47  TRP47       0.0001
     39  CH2       18.5480    7.2890   36.8190 C.ar   47  TRP47       0.0015
     40  N         18.9260    1.7670   29.2690 N.3    49  GLY49      -0.1210
     41  CA        20.1510    2.0580   28.5350 C.3    49  GLY49       0.1956
     42  C         21.3980    1.6770   29.3200 C.2    49  GLY49       0.2611
     43  O         22.4560    1.3830   28.7370 O.2    49  GLY49      -0.2717
     44  N         21.2880    1.6560   30.6460 N.am   50  LEU50      -0.1979
     45  CA        22.4100    1.2380   31.4920 C.3    50  LEU50       0.1596
     46  C         22.6870   -0.2730   31.4590 C.2    50  LEU50       0.2287
     47  O         23.6170   -0.7460   32.1270 O.2    50  LEU50      -0.2864
     48  CB        22.1670    1.6750   32.9400 C.3    50  LEU50       0.0297
     49  CG        22.3590    3.1700   33.2320 C.3    50  LEU50       0.0022
     50  CD1       21.8320    3.5230   34.6230 C.3    50  LEU50       0.0001
     51  CD2       23.8270    3.5430   33.1040 C.3    50  LEU50       0.0001
     52  N         23.9380   -1.6010   29.0420 N.3    52  ASN52      -0.1225
     53  CA        25.2260   -1.5850   28.3500 C.3    52  ASN52       0.1785
     54  C         26.4000   -1.1970   29.2560 C.2    52  ASN52       0.2597
     55  O         27.5150   -1.0260   28.7860 O.2    52  ASN52      -0.2718
     56  CB        25.1720   -0.6430   27.1600 C.3    52  ASN52       0.1169
     57  CG        24.3800   -1.2120   26.0060 C.2    52  ASN52       0.2627
     58  OD1       24.4650   -2.4070   25.7120 O.2    52  ASN52      -0.2716
     59  ND2       23.6080   -0.3620   25.3390 N.am   52  ASN52      -0.0877
     60  N         26.1340   -1.0400   30.5480 N.am   53  ALA53      -0.1979
     61  CA        27.1780   -0.7940   31.5430 C.3    53  ALA53       0.1597
     62  C         26.9350   -1.7450   32.7170 C.2    53  ALA53       0.2287
     63  O         26.3710   -1.3450   33.7220 O.2    53  ALA53      -0.2864
     64  CB        27.1700    0.6720   31.9980 C.3    53  ALA53       0.0319
     65  N         10.7100    2.3430   41.8610 N.3    68  TYR68      -0.1241
     66  CA         9.6950    2.4380   40.8070 C.3    68  TYR68       0.1605
     67  C          8.5790    1.4050   40.9500 C.2    68  TYR68       0.2264
     68  O          7.4390    1.6670   40.5500 O.2    68  TYR68      -0.2867
     69  CB        10.3340    2.2840   39.4240 C.3    68  TYR68       0.0534
     70  CG        10.9980    3.5430   38.9270 C.ar   68  TYR68      -0.0201
     71  CD1       12.3180    3.8370   39.2670 C.ar   68  TYR68      -0.0009
     72  CD2       10.3050    4.4490   38.1250 C.ar   68  TYR68      -0.0009
     73  CE1       12.9350    4.9870   38.8180 C.ar   68  TYR68       0.0417
     74  CE2       10.9240    5.6090   37.6580 C.ar   68  TYR68       0.0417
     75  CZ        12.2390    5.8750   38.0170 C.ar   68  TYR68       0.1957
     76  OH        12.8840    7.0200   37.5750 O.3    68  TYR68      -0.2866
     77  N         28.5520    7.5180   36.0900 N.3    94  ILE94      -0.1231
     78  CA        28.2800    8.0510   34.7590 C.3    94  ILE94       0.1692
     79  C         26.9200    8.7700   34.7240 C.2    94  ILE94       0.2591
     80  O         26.7240    9.7370   33.9690 O.2    94  ILE94      -0.2718
     81  CB        28.3260    6.9170   33.7010 C.3    94  ILE94       0.0266
     82  CG1       28.2490    7.4880   32.2790 C.3    94  ILE94       0.0019
     83  CG2       27.2270    5.8880   33.9740 C.3    94  ILE94       0.0020
     84  CD1       29.3930    8.4160   31.9300 C.3    94  ILE94       0.0001
     85  N         25.9890    8.3150   35.5560 N.am   95  VAL95      -0.1980
     86  CA        24.6680    8.9450   35.6450 C.3    95  VAL95       0.1595
     87  C         24.7810   10.4050   36.1000 C.2    95  VAL95       0.2287
     88  O         24.1320   11.3060   35.5470 O.2    95  VAL95      -0.2864
     89  CB        23.7610    8.1760   36.6110 C.3    95  VAL95       0.0276
     90  CG1       22.4490    8.9260   36.8330 C.3    95  VAL95       0.0022
     91  CG2       23.5030    6.7850   36.0670 C.3    95  VAL95       0.0022
     92  N         26.4440   12.4420   33.1720 N.3    98  GLU98      -0.1231
     93  CA        25.6500   12.5450   31.9510 C.3    98  GLU98       0.1699
     94  C         24.4760   13.4990   32.0850 C.2    98  GLU98       0.2592
     95  O         24.0670   14.1170   31.1080 O.2    98  GLU98      -0.2718
     96  CB        25.1180   11.1710   31.5320 C.3    98  GLU98       0.0402
     97  CG        26.1210   10.3000   30.7760 C.3    98  GLU98       0.1161
     98  CD        25.8480   10.2590   29.2730 C.2    98  GLU98       0.3649
     99  OE1       26.3770   11.1380   28.5500 O.co2  98  GLU98      -0.2457
    100  OE2       25.1010    9.3500   28.8220 O.co2  98  GLU98      -0.2457
    101  N         23.9150   13.6090   33.2820 N.am   99  ARG99      -0.1966
    102  CA        22.6930   14.3930   33.4550 C.3    99  ARG99       0.1729
    103  C         22.4790   14.8120   34.9050 C.2    99  ARG99       0.2616
    104  O         22.0460   15.9380   35.1890 O.2    99  ARG99      -0.2715
    105  CB        21.4810   13.5900   32.9650 C.3    99  ARG99       0.0348
    106  CG        20.1550   14.2260   33.3290 C.3    99  ARG99       0.0492
    107  CD        18.9380   13.4940   32.7720 C.3    99  ARG99       0.2205
    108  NE        17.7510   14.2170   33.2080 N.pl3  99  ARG99      -0.0865
    109  CZ        17.1680   15.1950   32.5210 C.cat  99  ARG99       0.5346
    110  NH1       17.6200   15.5350   31.3190 N.pl3  99  ARG99       0.1354
    111  NH2       16.1180   15.8220   33.0290 N.pl3  99  ARG99       0.1354
    112  N         22.7590   13.8910   35.8130 N.am  100  GLY100     -0.1955
    113  CA        22.5260   14.0970   37.2290 C.3   100  GLY100      0.1869
    114  C         21.4430   13.1750   37.7660 C.2   100  GLY100      0.2309
    115  O         20.4710   12.8630   37.0750 O.2   100  GLY100     -0.2863
    116  N         18.1530   12.2620   39.6580 N.3   102  PRO102     -0.2116
    117  CA        16.9630   12.9960   40.0950 C.3   102  PRO102      0.1372
    118  C         16.9360   13.0920   41.6190 C.2   102  PRO102      0.2244
    119  O         17.5570   12.2490   42.2720 O.2   102  PRO102     -0.2868
    120  CB        15.8070   12.1390   39.5800 C.3   102  PRO102      0.0268
    121  CG        16.4140   11.2220   38.5510 C.3   102  PRO102      0.0207
    122  CD        17.8140   10.9930   38.9910 C.3   102  PRO102      0.0892
    123  N         14.8240   12.3290   43.8960 N.3   104  PHE104     -0.1241
    124  CA        14.2770   11.1600   44.5900 C.3   104  PHE104      0.1605
    125  C         15.1900    9.9220   44.4670 C.2   104  PHE104      0.2264
    126  O         14.8620    8.8520   44.9820 O.2   104  PHE104     -0.2867
    127  CB        12.8480   10.8440   44.0940 C.3   104  PHE104      0.0534
    128  CG        12.7660   10.4220   42.6450 C.ar  104  PHE104     -0.0203
    129  CD1       12.7070   11.3660   41.6280 C.ar  104  PHE104     -0.0042
    130  CD2       12.7230    9.0730   42.3070 C.ar  104  PHE104     -0.0042
    131  CE1       12.6300   10.9580   40.2900 C.ar  104  PHE104     -0.0003
    132  CE2       12.6450    8.6610   40.9820 C.ar  104  PHE104     -0.0003
    133  CZ        12.6050    9.6110   39.9700 C.ar  104  PHE104     -0.0000
@<TRIPOS>BOND
     1    59    57   am
     2    58    57    2
     3    57    56    1
     4    56    53    1
     5    25    23    1
     6    53    52    1
     7    53    54    1
     8    41    40    1
     9    41    42    1
    10    99    98   ar
    11    43    42    2
    12    55    54    2
    13   100    98   ar
    14    23    24    1
    15    23    22    1
    16    54    60   am
    17    98    97    1
    18    42    44   am
    19    19    18    1
    20    19    22    1
    21    19    20    1
    22    21    20    2
    23    20    26   am
    24    60    61    1
    25    44    45    1
    26    97    96    1
    27    95    94    2
    28   110   109    1
    29    46    45    1
    30    46    47    2
    31    45    48    1
    32    96    93    1
    33    61    64    1
    34    61    62    1
    35    26    27    1
    36    84    82    1
    37    17    16    1
    38    93    94    1
    39    93    92    1
    40    28    29    2
    41    28    27    1
    42     9    10    1
    43    94   101   am
    44    82    81    1
    45   109   111    1
    46   109   108    2
    47    27    30    1
    48    12    11    2
    49    10    11    1
    50    10    13    1
    51    62    63    2
    52   107   108    1
    53   107   106    1
    54    16    15    1
    55    48    49    1
    56   105   106    1
    57   105   102    1
    58    51    49    1
    59    15    14    1
    60    49    50    1
    61   101   102    1
    62   102   103    1
    63    81    83    1
    64    81    78    1
    65    14    13    1
    66    30    31    1
    67    80    79    2
    68    79    78    1
    69    79    85   am
    70    78    77    1
    71    31    32   ar
    72    31    33   ar
    73   103   104    2
    74   103   112   am
    75    32    34   ar
    76    36    33   ar
    77    36    38   ar
    78    33    35   ar
    79    88    87    2
    80    85    86    1
    81    86    87    1
    82    86    89    1
    83   112   113    1
    84     4     3    2
    85    34    35   ar
    86    38    39   ar
    87    91    89    1
    88    35    37   ar
    89     8     6   ar
    90    89    90    1
    91    39    37   ar
    92   115   114    2
    93     3     2    1
    94     5     6    1
    95     5     2    1
    96     6     7   ar
    97   113   114    1
    98    76    75    1
    99    74    75   ar
   100    74    72   ar
   101     2     1    1
   102    75    73   ar
   103    72    70   ar
   104   121   122    1
   105   121   120    1
   106    73    71   ar
   107    70    71   ar
   108    70    69    1
   109   122   116    1
   110    69    66    1
   111   120   117    1
   112   116   117    1
   113   133   131   ar
   114   133   132   ar
   115   117   118    1
   116   131   129   ar
   117    68    67    2
   118    66    67    1
   119    66    65    1
   120   132   130   ar
   121   118   119    2
   122   129   128   ar
   123   130   128   ar
   124   128   127    1
   125   123   124    1
   126   127   124    1
   127   125   124    1
   128   125   126    2
