@<TRIPOS>MOLECULE
tmp/5kzxA11.pdb
 152 149 0 0 0
SMALL
GASTEIGER

@<TRIPOS>ATOM
      1  N        -11.5740  -14.1720  -22.0910 N.3   191  ASP191     -0.1239
      2  CA       -11.7780  -14.3230  -23.5430 C.3   191  ASP191      0.1674
      3  C        -11.5100  -12.9480  -24.1520 C.2   191  ASP191      0.2266
      4  O        -12.3690  -12.0670  -24.1070 O.2   191  ASP191     -0.2867
      5  CB       -13.2030  -14.7510  -23.8530 C.3   191  ASP191      0.1410
      6  CG       -13.4750  -14.8840  -25.3570 C.2   191  ASP191      0.3668
      7  OD1      -12.5940  -14.4920  -26.1650 O.co2 191  ASP191     -0.2456
      8  OD2      -14.5530  -15.4320  -25.7140 O.co2 191  ASP191     -0.2456
      9  N        -14.0460  -22.1200  -39.1780 N.3   285  TRP285     -0.1241
     10  CA       -15.4020  -21.7320  -38.9390 C.3   285  TRP285      0.1605
     11  C        -15.9220  -21.4200  -40.3250 C.2   285  TRP285      0.2264
     12  O        -15.3620  -20.5740  -41.0190 O.2   285  TRP285     -0.2867
     13  CB       -15.4090  -20.4970  -38.0190 C.3   285  TRP285      0.0550
     14  CG       -16.7260  -20.1030  -37.4490 C.ar  285  TRP285      0.0003
     15  CD1      -17.9220  -20.7430  -37.5820 C.ar  285  TRP285      0.0946
     16  CD2      -16.9640  -18.9760  -36.6150 C.ar  285  TRP285      0.0152
     17  NE1      -18.8990  -20.0580  -36.9050 N.ar  285  TRP285     -0.2442
     18  CE2      -18.3360  -18.9650  -36.3090 C.ar  285  TRP285      0.0810
     19  CE3      -16.1480  -17.9460  -36.1210 C.ar  285  TRP285      0.0012
     20  CZ2      -18.9100  -17.9870  -35.5060 C.ar  285  TRP285      0.0191
     21  CZ3      -16.7220  -16.9590  -35.3430 C.ar  285  TRP285      0.0001
     22  CH2      -18.0850  -16.9910  -35.0390 C.ar  285  TRP285      0.0015
     23  N        -15.9360  -26.6020  -36.6490 N.3   313  ASP313     -0.1225
     24  CA       -16.2970  -25.5900  -35.6900 C.3   313  ASP313      0.1805
     25  C        -17.8280  -25.6740  -35.4550 C.2   313  ASP313      0.2597
     26  O        -18.4400  -26.7060  -35.7060 O.2   313  ASP313     -0.2718
     27  CB       -15.8730  -24.2320  -36.2940 C.3   313  ASP313      0.1424
     28  CG       -15.6060  -23.1570  -35.2460 C.2   313  ASP313      0.3668
     29  OD1      -16.3840  -23.0500  -34.2770 O.co2 313  ASP313     -0.2456
     30  OD2      -14.6400  -22.3910  -35.4220 O.co2 313  ASP313     -0.2456
     31  N        -18.4410  -24.5800  -35.0080 N.am  314  LEU314     -0.1979
     32  CA       -19.8570  -24.5350  -34.6300 C.3   314  LEU314      0.1596
     33  C        -20.8280  -25.0060  -35.7150 C.2   314  LEU314      0.2287
     34  O        -21.9700  -25.3760  -35.4100 O.2   314  LEU314     -0.2864
     35  CB       -20.2500  -23.0930  -34.2340 C.3   314  LEU314      0.0297
     36  CG       -19.6030  -22.4940  -32.9830 C.3   314  LEU314      0.0022
     37  CD1      -19.9110  -21.0140  -32.8880 C.3   314  LEU314      0.0001
     38  CD2      -20.0330  -23.2310  -31.7190 C.3   314  LEU314      0.0001
     39  N        -15.5780  -28.7760  -32.2070 N.3   350  ILE350     -0.1245
     40  CA       -15.6690  -27.8420  -31.1190 C.3   350  ILE350      0.1561
     41  C        -16.7580  -28.2560  -30.1190 C.2   350  ILE350      0.2260
     42  O        -17.8310  -28.7410  -30.5060 O.2   350  ILE350     -0.2867
     43  CB       -15.8890  -26.4030  -31.6280 C.3   350  ILE350      0.0252
     44  CG1      -15.4760  -25.4070  -30.5490 C.3   350  ILE350      0.0019
     45  CG2      -17.3290  -26.2000  -32.0990 C.3   350  ILE350      0.0019
     46  CD1      -15.3900  -23.9840  -31.0200 C.3   350  ILE350      0.0001
     47  N        -22.9960  -18.5940  -27.6210 N.3   390  TRP390     -0.1241
     48  CA       -23.4200  -18.8390  -29.0090 C.3   390  TRP390      0.1605
     49  C        -24.8710  -19.3000  -29.2170 C.2   390  TRP390      0.2264
     50  O        -25.5150  -18.8590  -30.1670 O.2   390  TRP390     -0.2867
     51  CB       -22.4200  -19.7420  -29.7400 C.3   390  TRP390      0.0550
     52  CG       -21.1410  -19.0080  -30.0240 C.ar  390  TRP390      0.0003
     53  CD1      -19.9310  -19.2200  -29.4450 C.ar  390  TRP390      0.0946
     54  CD2      -20.9730  -17.8890  -30.9150 C.ar  390  TRP390      0.0152
     55  NE1      -19.0100  -18.3260  -29.9380 N.ar  390  TRP390     -0.2442
     56  CE2      -19.6210  -17.4970  -30.8410 C.ar  390  TRP390      0.0810
     57  CE3      -21.8320  -17.1920  -31.7680 C.ar  390  TRP390      0.0012
     58  CZ2      -19.1010  -16.4370  -31.5900 C.ar  390  TRP390      0.0191
     59  CZ3      -21.3130  -16.1390  -32.5350 C.ar  390  TRP390      0.0001
     60  CH2      -19.9610  -15.7680  -32.4250 C.ar  390  TRP390      0.0015
     61  N        -12.2870  -30.3640  -28.8320 N.3   425  TRP425     -0.1241
     62  CA       -11.7540  -29.0140  -28.8660 C.3   425  TRP425      0.1605
     63  C        -12.6360  -28.2050  -27.9080 C.2   425  TRP425      0.2264
     64  O        -13.7850  -27.8920  -28.2320 O.2   425  TRP425     -0.2867
     65  CB       -11.8300  -28.5090  -30.3040 C.3   425  TRP425      0.0550
     66  CG       -11.5440  -27.0960  -30.5120 C.ar  425  TRP425      0.0003
     67  CD1      -10.7740  -26.2910  -29.7470 C.ar  425  TRP425      0.0946
     68  CD2      -11.9620  -26.3110  -31.6250 C.ar  425  TRP425      0.0152
     69  NE1      -10.7460  -25.0420  -30.2600 N.ar  425  TRP425     -0.2442
     70  CE2      -11.4430  -25.0220  -31.4340 C.ar  425  TRP425      0.0810
     71  CE3      -12.7270  -26.5710  -32.7590 C.ar  425  TRP425      0.0012
     72  CZ2      -11.6730  -23.9790  -32.3220 C.ar  425  TRP425      0.0191
     73  CZ3      -12.9470  -25.5380  -33.6560 C.ar  425  TRP425      0.0001
     74  CH2      -12.4270  -24.2520  -33.4260 C.ar  425  TRP425      0.0015
     75  N        -13.5430  -24.9800  -26.0780 N.3   427  ASP427     -0.1225
     76  CA       -13.3780  -23.5330  -26.2450 C.3   427  ASP427      0.1805
     77  C        -14.1740  -22.8020  -25.1700 C.2   427  ASP427      0.2597
     78  O        -14.8940  -23.4490  -24.4190 O.2   427  ASP427     -0.2718
     79  CB       -13.9160  -23.1640  -27.6300 C.3   427  ASP427      0.1424
     80  CG       -13.6430  -21.7150  -28.0080 C.2   427  ASP427      0.3668
     81  OD1      -12.6440  -21.1280  -27.5260 O.co2 427  ASP427     -0.2456
     82  OD2      -14.4630  -21.1720  -28.7710 O.co2 427  ASP427     -0.2456
     83  N        -14.0190  -21.4760  -25.0710 N.am  428  MET428     -0.1979
     84  CA       -14.9650  -20.5930  -24.3500 C.3   428  MET428      0.1605
     85  C        -14.9750  -20.8610  -22.8320 C.2   428  MET428      0.2287
     86  O        -15.9110  -20.4960  -22.1610 O.2   428  MET428     -0.2864
     87  CB       -16.4230  -20.7280  -24.8820 C.3   428  MET428      0.0413
     88  CG       -16.6870  -20.4370  -26.3460 C.3   428  MET428      0.0598
     89  SD       -16.2410  -18.7630  -26.7940 S.3   428  MET428     -0.1393
     90  CE       -17.6500  -17.8760  -26.1580 C.3   428  MET428      0.0692
     91  N         -8.8120  -23.9460  -24.7690 N.3   509  ARG509     -0.1245
     92  CA        -8.3950  -22.5410  -24.7870 C.3   509  ARG509      0.1563
     93  C         -7.8800  -22.0870  -23.4280 C.2   509  ARG509      0.2260
     94  O         -6.7310  -21.6910  -23.2920 O.2   509  ARG509     -0.2867
     95  CB        -9.5210  -21.6090  -25.2480 C.3   509  ARG509      0.0307
     96  CG        -8.9490  -20.2990  -25.7680 C.3   509  ARG509      0.0489
     97  CD        -9.9440  -19.5130  -26.5750 C.3   509  ARG509      0.2205
     98  NE       -11.0120  -19.0110  -25.7280 N.pl3 509  ARG509     -0.0865
     99  CZ       -12.0370  -18.2930  -26.1640 C.cat 509  ARG509      0.5346
    100  NH1      -12.1290  -17.9560  -27.4500 N.pl3 509  ARG509      0.1354
    101  NH2      -12.9560  -17.8790  -25.3060 N.pl3 509  ARG509      0.1354
    102  N         -4.1990  -24.3180  -27.6520 N.3   522  TRP522     -0.1241
    103  CA        -3.8630  -23.4570  -28.7710 C.3   522  TRP522      0.1605
    104  C         -3.9860  -22.0180  -28.2610 C.2   522  TRP522      0.2264
    105  O         -4.7350  -21.7540  -27.3410 O.2   522  TRP522     -0.2867
    106  CB        -4.6990  -23.7570  -30.0330 C.3   522  TRP522      0.0550
    107  CG        -5.9050  -22.8860  -30.2530 C.ar  522  TRP522      0.0003
    108  CD1       -6.0390  -21.8920  -31.1960 C.ar  522  TRP522      0.0946
    109  CD2       -7.1420  -22.9310  -29.5420 C.ar  522  TRP522      0.0152
    110  NE1       -7.2760  -21.3080  -31.0900 N.ar  522  TRP522     -0.2442
    111  CE2       -7.9750  -21.9230  -30.0930 C.ar  522  TRP522      0.0810
    112  CE3       -7.6300  -23.7090  -28.4840 C.ar  522  TRP522      0.0012
    113  CZ2       -9.2610  -21.6880  -29.6300 C.ar  522  TRP522      0.0191
    114  CZ3       -8.9210  -23.4860  -28.0370 C.ar  522  TRP522      0.0001
    115  CH2       -9.7150  -22.4750  -28.6010 C.ar  522  TRP522      0.0015
    116  N         -7.2690  -16.5280  -30.5390 N.3   525  ASP525     -0.1239
    117  CA        -7.6500  -15.7430  -31.7120 C.3   525  ASP525      0.1674
    118  C         -6.5700  -14.7840  -32.1580 C.2   525  ASP525      0.2266
    119  O         -6.7270  -13.5610  -32.0600 O.2   525  ASP525     -0.2867
    120  CB        -8.9580  -15.0030  -31.4400 C.3   525  ASP525      0.1410
    121  CG       -10.1460  -15.9400  -31.2760 C.2   525  ASP525      0.3668
    122  OD1      -10.0120  -17.1540  -31.5190 O.co2 525  ASP525     -0.2456
    123  OD2      -11.2210  -15.4540  -30.8930 O.co2 525  ASP525     -0.2456
    124  N         -2.8780  -21.1080  -34.3940 N.3   554  ASP554     -0.1239
    125  CA        -3.5920  -21.3370  -35.6590 C.3   554  ASP554      0.1674
    126  C         -2.6780  -20.9710  -36.8190 C.2   554  ASP554      0.2266
    127  O         -2.3000  -19.7860  -36.9940 O.2   554  ASP554     -0.2867
    128  CB        -4.8720  -20.5200  -35.7310 C.3   554  ASP554      0.1410
    129  CG        -5.9190  -20.9800  -34.7200 C.2   554  ASP554      0.3668
    130  OD1       -5.8410  -22.1350  -34.2500 O.co2 554  ASP554     -0.2456
    131  OD2       -6.8270  -20.1890  -34.4200 O.co2 554  ASP554     -0.2456
    132  N         -5.6650  -16.8040  -37.3370 N.3   558  PHE558     -0.1241
    133  CA        -7.1100  -16.9590  -37.2350 C.3   558  PHE558      0.1605
    134  C         -7.8660  -15.7520  -37.7820 C.2   558  PHE558      0.2264
    135  O         -8.6070  -15.8680  -38.7430 O.2   558  PHE558     -0.2867
    136  CB        -7.5240  -17.2340  -35.7760 C.3   558  PHE558      0.0534
    137  CG        -8.9990  -17.3850  -35.5890 C.ar  558  PHE558     -0.0203
    138  CD1       -9.6810  -18.4540  -36.1800 C.ar  558  PHE558     -0.0042
    139  CD2       -9.7230  -16.4500  -34.8630 C.ar  558  PHE558     -0.0042
    140  CE1      -11.0520  -18.5860  -36.0210 C.ar  558  PHE558     -0.0003
    141  CE2      -11.0960  -16.5820  -34.6910 C.ar  558  PHE558     -0.0003
    142  CZ       -11.7680  -17.6470  -35.2840 C.ar  558  PHE558     -0.0000
    143  N         -6.3140  -23.1330  -38.7340 N.3   583  HIS583     -0.1241
    144  CA        -7.7120  -22.8200  -38.3750 C.3   583  HIS583      0.1621
    145  C         -7.9530  -21.3800  -38.7830 C.2   583  HIS583      0.2264
    146  O         -7.0120  -20.5880  -38.8400 O.2   583  HIS583     -0.2867
    147  CB        -7.9660  -23.0980  -36.8820 C.3   583  HIS583      0.0745
    148  CG        -9.3000  -22.6240  -36.3840 C.ar  583  HIS583      0.0817
    149  ND1      -10.4850  -22.9530  -37.0040 N.ar  583  HIS583     -0.2268
    150  CD2       -9.6340  -21.8320  -35.3340 C.ar  583  HIS583      0.1154
    151  CE1      -11.4930  -22.3790  -36.3620 C.ar  583  HIS583      0.1986
    152  NE2      -11.0050  -21.6990  -35.3390 N.ar  583  HIS583     -0.2212
@<TRIPOS>BOND
     1    12    11    2
     2    11    10    1
     3     9    10    1
     4    10    13    1
     5   146   145    2
     6   145   144    1
     7   135   134    2
     8   143   144    1
     9   144   147    1
    10    13    14    1
    11   134   133    1
    12    15    14   ar
    13    15    17   ar
    14    14    16   ar
    15   132   133    1
    16   133   136    1
    17   149   148   ar
    18   149   151   ar
    19   127   126    2
    20    17    18   ar
    21   147   148    1
    22   126   125    1
    23    23    24    1
    24    16    18   ar
    25    16    19   ar
    26   148   150   ar
    27   151   152   ar
    28    18    20   ar
    29    27    24    1
    30    27    28    1
    31   138   140   ar
    32   138   137   ar
    33    19    21   ar
    34   140   142   ar
    35   136   137    1
    36   128   125    1
    37   128   129    1
    38    33    34    2
    39    33    32    1
    40    26    25    2
    41    24    25    1
    42   125   124    1
    43   137   139   ar
    44    20    22   ar
    45    25    31   am
    46    30    28   ar
    47    21    22   ar
    48   152   150   ar
    49   142   141   ar
    50    28    29   ar
    51    31    32    1
    52   139   141   ar
    53   129   131   ar
    54   129   130   ar
    55    32    35    1
    56    35    36    1
    57    73    74   ar
    58    73    71   ar
    59    74    72   ar
    60    36    37    1
    61    36    38    1
    62    71    68   ar
    63    59    60   ar
    64    59    57   ar
    65    60    58   ar
    66    72    70   ar
    67    39    40    1
    68   118   119    2
    69   118   117    1
    70    45    43    1
    71    57    54   ar
    72   117   120    1
    73   117   116    1
    74    43    40    1
    75    43    44    1
    76    68    70   ar
    77    68    66   ar
    78    58    56   ar
    79   122   121   ar
    80   120   121    1
    81    70    69   ar
    82   121   123   ar
    83   108   110   ar
    84   108   107   ar
    85    40    41    1
    86   110   111   ar
    87    46    44    1
    88    54    56   ar
    89    54    52   ar
    90    56    55   ar
    91    66    65    1
    92    66    67   ar
    93    42    41    2
    94    65    62    1
    95    69    67   ar
    96   107   106    1
    97   107   109   ar
    98    50    49    2
    99   111   113   ar
   100   111   109   ar
   101   106   103    1
   102    52    51    1
   103    52    53   ar
   104    55    53   ar
   105    51    48    1
   106   113   115   ar
   107   109   112   ar
   108    49    48    1
   109    48    47    1
   110    62    61    1
   111    62    63    1
   112    82    80   ar
   113   103   104    1
   114   103   102    1
   115   115   114   ar
   116   112   114   ar
   117   104   105    2
   118    64    63    2
   119    80    79    1
   120    80    81   ar
   121    79    76    1
   122   100    99    1
   123    89    88    1
   124    89    90    1
   125    97    96    1
   126    97    98    1
   127    88    87    1
   128    76    75    1
   129    76    77    1
   130     7     6   ar
   131    99    98    2
   132    99   101    1
   133    96    95    1
   134     8     6   ar
   135     6     5    1
   136    95    92    1
   137    77    83   am
   138    77    78    2
   139    83    84    1
   140    87    84    1
   141    92    91    1
   142    92    93    1
   143    84    85    1
   144     3     4    2
   145     3     2    1
   146     5     2    1
   147     2     1    1
   148    93    94    2
   149    85    86    2
