@<TRIPOS>MOLECULE
tmp/5kzxA12.pdb
 85 84 0 0 0
SMALL
GASTEIGER

@<TRIPOS>ATOM
      1  N          5.3580   -0.1970   -3.6600 N.3    13  ASP13      -0.1239
      2  CA         4.2070    0.6950   -3.6720 C.3    13  ASP13       0.1674
      3  C          3.3580    0.5570   -2.4080 C.2    13  ASP13       0.2266
      4  O          2.8470   -0.5210   -2.1150 O.2    13  ASP13      -0.2867
      5  CB         3.3570    0.4020   -4.9150 C.3    13  ASP13       0.1410
      6  CG         2.2670    1.4300   -5.1590 C.2    13  ASP13       0.3668
      7  OD1        2.2460    2.4900   -4.4950 O.co2  13  ASP13      -0.2456
      8  OD2        1.4360    1.1940   -6.0720 O.co2  13  ASP13      -0.2456
      9  N          0.7280    2.6460   -2.1300 N.3    15  ALA15      -0.1231
     10  CA        -0.6320    2.9190   -2.6030 C.3    15  ALA15       0.1679
     11  C         -0.9760    2.1150   -3.8570 C.2    15  ALA15       0.2434
     12  O         -1.2910    2.6950   -4.9100 O.2    15  ALA15      -0.2733
     13  CB        -0.8260    4.4190   -2.8060 C.3    15  ALA15       0.0304
     14  N         -0.9630    0.7620   -3.7410 N.am   16  PRO16      -0.2729
     15  CA        -1.3490   -0.0860   -4.8730 C.3    16  PRO16       0.1401
     16  C         -2.8660   -0.1490   -5.0700 C.2    16  PRO16       0.2269
     17  O         -3.3390   -0.6050   -6.1210 O.2    16  PRO16      -0.2865
     18  CB        -0.8130   -1.4610   -4.4650 C.3    16  PRO16       0.0296
     19  CG        -0.9380   -1.4630   -2.9610 C.3    16  PRO16       0.0237
     20  CD        -0.6090   -0.0510   -2.5540 C.3    16  PRO16       0.0939
     21  N         -5.1200    2.6060   -4.7040 N.3    18  LYS18      -0.1245
     22  CA        -5.7750    3.8460   -5.1570 C.3    18  LYS18       0.1561
     23  C         -4.7870    4.9860   -5.3610 C.2    18  LYS18       0.2260
     24  O         -3.6360    4.9410   -4.8920 O.2    18  LYS18      -0.2867
     25  CB        -6.8420    4.3140   -4.1470 C.3    18  LYS18       0.0271
     26  CG        -6.2840    4.7340   -2.7950 C.3    18  LYS18       0.0035
     27  CD        -7.3790    5.1020   -1.8060 C.3    18  LYS18       0.0206
     28  CE        -6.9130    6.2270   -0.9060 C.3    18  LYS18       0.1093
     29  NZ        -7.7950    6.3840    0.2750 N.3    18  LYS18      -0.1314
     30  N         -3.2930    8.3820   -4.4020 N.3    20  ILE20      -0.1245
     31  CA        -3.0450    8.8920   -3.0730 C.3    20  ILE20       0.1561
     32  C         -2.4430   10.2990   -3.1580 C.2    20  ILE20       0.2260
     33  O         -1.7290   10.6140   -4.1120 O.2    20  ILE20      -0.2867
     34  CB        -2.1240    7.8960   -2.3120 C.3    20  ILE20       0.0252
     35  CG1       -2.3040    8.0350   -0.8080 C.3    20  ILE20       0.0019
     36  CG2       -0.6580    8.0510   -2.7140 C.3    20  ILE20       0.0019
     37  CD1       -1.8430    6.8410   -0.0140 C.3    20  ILE20       0.0001
     38  N          1.8370    1.3290  -14.9910 N.3    38  MET38      -0.1230
     39  CA         2.4780    1.8640  -13.7480 C.3    38  MET38       0.1702
     40  C          3.9630    2.1700  -13.9270 C.2    38  MET38       0.2593
     41  O          4.5880    1.7740  -14.8990 O.2    38  MET38      -0.2718
     42  CB         2.2670    0.9180  -12.5430 C.3    38  MET38       0.0401
     43  CG         2.3370   -0.5760  -12.8270 C.3    38  MET38       0.0596
     44  SD         2.6900   -1.5670  -11.3390 S.3    38  MET38      -0.1393
     45  CE         4.4440   -1.2670  -11.2240 C.3    38  MET38       0.0692
     46  N          4.5000    2.9350  -12.9860 N.am   39  GLY39      -0.1942
     47  CA         5.9310    3.2130  -12.9090 C.3    39  GLY39       0.2014
     48  C          6.4050    3.0540  -11.4740 C.2    39  GLY39       0.2639
     49  O          5.7400    2.4490  -10.6450 O.2    39  GLY39      -0.2714
     50  N          7.5760    3.5960  -11.2000 N.am   40  GLN40      -0.1963
     51  CA         8.1110    3.6960   -9.8600 C.3    40  GLN40       0.1718
     52  C          7.1100    4.3470   -8.9000 C.2    40  GLN40       0.2458
     53  O          6.5800    5.4080   -9.2060 O.2    40  GLN40      -0.2730
     54  CB         9.3780    4.5370   -9.9420 C.3    40  GLN40       0.0407
     55  CG        10.0750    4.8810   -8.6440 C.3    40  GLN40       0.0908
     56  CD        11.1470    5.9190   -8.8850 C.2    40  GLN40       0.2608
     57  OE1       11.2000    6.9730   -8.2300 O.2    40  GLN40      -0.2717
     58  NE2       12.0020    5.6350   -9.8480 N.am   40  GLN40      -0.0878
     59  N          6.8560    3.7160   -7.7270 N.am   41  PRO41      -0.2716
     60  CA         5.8470    4.2760   -6.8530 C.3    41  PRO41       0.1536
     61  C          6.3180    5.5670   -6.1900 C.2    41  PRO41       0.2599
     62  O          7.4090    5.6300   -5.6430 O.2    41  PRO41      -0.2715
     63  CB         5.6230    3.1750   -5.8150 C.3    41  PRO41       0.0310
     64  CG         6.9250    2.4760   -5.7420 C.3    41  PRO41       0.0237
     65  CD         7.4640    2.5010   -7.1500 C.3    41  PRO41       0.0939
     66  N          5.4730    6.5820   -6.2580 N.am   42  TRP42      -0.1960
     67  CA         5.7020    7.8380   -5.5780 C.3    42  TRP42       0.1771
     68  C          5.4790    7.6750   -4.0730 C.2    42  TRP42       0.2619
     69  O          6.0770    8.4130   -3.2820 O.2    42  TRP42      -0.2715
     70  CB         4.7200    8.9020   -6.0800 C.3    42  TRP42       0.0590
     71  CG         4.8550    9.3500   -7.5180 C.ar   42  TRP42       0.0006
     72  CD1        5.3580    8.6500   -8.5710 C.ar   42  TRP42       0.0946
     73  CD2        4.4230   10.6090   -8.0420 C.ar   42  TRP42       0.0152
     74  NE1        5.2840    9.4080   -9.7300 N.ar   42  TRP42      -0.2442
     75  CE2        4.7070   10.6120   -9.4280 C.ar   42  TRP42       0.0810
     76  CE3        3.8130   11.7320   -7.4740 C.ar   42  TRP42       0.0012
     77  CZ2        4.4130   11.7050  -10.2550 C.ar   42  TRP42       0.0191
     78  CZ3        3.5210   12.8220   -8.2930 C.ar   42  TRP42       0.0001
     79  CH2        3.8250   12.7950   -9.6720 C.ar   42  TRP42       0.0015
     80  N          4.6060    6.7350   -3.6970 N.am   43  CYS43      -0.1968
     81  CA         4.2760    6.4520   -2.2930 C.3    43  CYS43       0.1712
     82  C          4.7980    5.0660   -1.9710 C.2    43  CYS43       0.2296
     83  O          4.3410    4.0950   -2.5520 O.2    43  CYS43      -0.2864
     84  CB         2.7760    6.5090   -2.0520 C.3    43  CYS43       0.0983
     85  SG         2.3200    6.2430   -0.3070 S.3    43  CYS43      -0.0798
@<TRIPOS>BOND
     1    38    39    1
     2    41    40    2
     3    40    39    1
     4    40    46   am
     5    39    42    1
     6    46    47    1
     7    47    48    1
     8    43    42    1
     9    43    44    1
    10    48    50   am
    11    48    49    2
    12    44    45    1
    13    50    51    1
    14    77    79   ar
    15    77    75   ar
    16    54    51    1
    17    54    55    1
    18    51    52    1
    19    58    56   am
    20    74    75   ar
    21    74    72   ar
    22    79    78   ar
    23    75    73   ar
    24    53    52    2
    25    52    59   am
    26    56    55    1
    27    56    57    2
    28    72    71   ar
    29    78    76   ar
    30    73    71   ar
    31    73    76   ar
    32    59    65    1
    33    59    60    1
    34    71    70    1
    35    65    64    1
    36    60    61    1
    37    60    63    1
    38    66    61   am
    39    66    67    1
    40    61    62    2
    41    17    16    2
    42    70    67    1
    43     8     6   ar
    44    63    64    1
    45    67    68    1
    46    23    22    1
    47    23    24    2
    48     6     5    1
    49     6     7   ar
    50    22    21    1
    51    22    25    1
    52    16    15    1
    53     5     2    1
    54    12    11    2
    55    15    18    1
    56    15    14    1
    57    18    19    1
    58    30    31    1
    59    25    26    1
    60    33    32    2
    61    68    80   am
    62    68    69    2
    63    11    14   am
    64    11    10    1
    65    14    20    1
    66    80    81    1
    67     2     1    1
    68     2     3    1
    69    32    31    1
    70    31    34    1
    71    19    20    1
    72    13    10    1
    73    26    27    1
    74    36    34    1
    75    10     9    1
    76    83    82    2
    77     3     4    2
    78    34    35    1
    79    81    84    1
    80    81    82    1
    81    84    85    1
    82    27    28    1
    83    28    29    1
    84    35    37    1
