@<TRIPOS>MOLECULE
tmp/5kzxA02.pdb
 68 65 0 0 0
SMALL
GASTEIGER

@<TRIPOS>ATOM
      1  N          3.0890   -4.8650  -14.5920 N.3   184  ARG184     -0.1245
      2  CA         1.9650   -5.4760  -13.8590 C.3   184  ARG184      0.1563
      3  C          1.4610   -6.6270  -14.7150 C.2   184  ARG184      0.2260
      4  O          0.9660   -6.4090  -15.7940 O.2   184  ARG184     -0.2867
      5  CB         0.8540   -4.4420  -13.6370 C.3   184  ARG184      0.0307
      6  CG        -0.3860   -4.8860  -12.8570 C.3   184  ARG184      0.0489
      7  CD        -1.5030   -3.8460  -13.0590 C.3   184  ARG184      0.2205
      8  NE        -2.1380   -4.0080  -14.3690 N.pl3 184  ARG184     -0.0865
      9  CZ        -2.4550   -3.0180  -15.2130 C.cat 184  ARG184      0.5346
     10  NH1       -2.1840   -1.7530  -14.9090 N.pl3 184  ARG184      0.1354
     11  NH2       -3.0350   -3.3110  -16.3790 N.pl3 184  ARG184      0.1354
     12  N        -10.2920  -12.7710  -24.6360 N.3   192  LEU192     -0.1245
     13  CA        -9.9020  -11.5880  -25.4040 C.3   192  LEU192      0.1561
     14  C         -8.9010  -12.0220  -26.4540 C.2   192  LEU192      0.2260
     15  O         -8.0030  -12.7870  -26.1570 O.2   192  LEU192     -0.2867
     16  CB        -9.2600  -10.5450  -24.4930 C.3   192  LEU192      0.0270
     17  CG        -8.8400   -9.2280  -25.1690 C.3   192  LEU192      0.0019
     18  CD1      -10.0390   -8.3520  -25.4310 C.3   192  LEU192      0.0001
     19  CD2       -7.8220   -8.4890  -24.3170 C.3   192  LEU192      0.0001
     20  N         -3.6440   -9.5260  -27.0980 N.3   195  THR195     -0.1204
     21  CA        -3.1100   -8.1880  -27.2680 C.3   195  THR195      0.1979
     22  C         -2.1210   -7.9460  -26.1040 C.2   195  THR195      0.2460
     23  O         -2.2850   -8.5480  -25.0330 O.2   195  THR195     -0.2732
     24  CB        -4.2390   -7.1390  -27.3020 C.3   195  THR195      0.1783
     25  OG1       -3.6940   -5.8800  -27.6820 O.3   195  THR195     -0.2211
     26  CG2       -4.9420   -6.9710  -25.9710 C.3   195  THR195      0.0376
     27  N         -1.0740   -7.1170  -26.3150 N.am  196  PRO196     -0.2717
     28  CA        -0.1020   -6.8230  -25.2310 C.3   196  PRO196      0.1536
     29  C         -0.6700   -6.1930  -23.9470 C.2   196  PRO196      0.2599
     30  O         -1.6140   -5.4160  -23.9860 O.2   196  PRO196     -0.2715
     31  CB         0.8840   -5.8520  -25.9060 C.3   196  PRO196      0.0310
     32  CG         0.8400   -6.2250  -27.3500 C.3   196  PRO196      0.0237
     33  CD        -0.5890   -6.6180  -27.6230 C.3   196  PRO196      0.0939
     34  N         -0.0860   -6.5350  -22.8080 N.am  197  GLY197     -0.1941
     35  CA        -0.5150   -5.9740  -21.5300 C.3   197  GLY197      0.2014
     36  C         -1.8510   -6.4900  -21.0010 C.2   197  GLY197      0.2638
     37  O         -2.3080   -5.9910  -19.9860 O.2   197  GLY197     -0.2714
     38  N         -2.4480   -7.5080  -21.6410 N.am  198  ALA198     -0.1977
     39  CA        -3.7720   -8.0280  -21.2280 C.3   198  ALA198      0.1597
     40  C         -3.6840   -9.3750  -20.5480 C.2   198  ALA198      0.2287
     41  O         -2.9310  -10.2190  -20.9790 O.2   198  ALA198     -0.2864
     42  CB        -4.6780   -8.1710  -22.4400 C.3   198  ALA198      0.0319
     43  N         -5.2650   -5.8090  -12.4980 N.3   455  GLY455     -0.1210
     44  CA        -5.2900   -5.0070  -13.7070 C.3   455  GLY455      0.1956
     45  C         -5.9700   -5.7030  -14.8830 C.2   455  GLY455      0.2612
     46  O         -5.4230   -5.7340  -16.0000 O.2   455  GLY455     -0.2717
     47  N         -7.1730   -6.2260  -14.6450 N.am  456  VAL456     -0.1965
     48  CA        -7.9010   -7.0020  -15.6700 C.3   456  VAL456      0.1727
     49  C         -8.5070   -6.0980  -16.7380 C.2   456  VAL456      0.2616
     50  O         -8.9180   -4.9870  -16.4400 O.2   456  VAL456     -0.2715
     51  CB        -9.0280   -7.8720  -15.0520 C.3   456  VAL456      0.0290
     52  CG1       -8.4550   -8.8130  -14.0050 C.3   456  VAL456      0.0023
     53  CG2      -10.1450   -7.0290  -14.4450 C.3   456  VAL456      0.0023
     54  N         -8.5500   -6.5750  -17.9850 N.am  457  VAL457     -0.1963
     55  CA        -9.2760   -5.8930  -19.0240 C.3   457  VAL457      0.1727
     56  C        -10.7280   -5.6870  -18.5990 C.2   457  VAL457      0.2617
     57  O        -11.3740   -6.6010  -18.1040 O.2   457  VAL457     -0.2715
     58  CB        -9.1930   -6.6210  -20.3820 C.3   457  VAL457      0.0290
     59  CG1      -10.0650   -5.9180  -21.4260 C.3   457  VAL457      0.0023
     60  CG2       -7.7350   -6.7180  -20.8430 C.3   457  VAL457      0.0023
     61  N        -11.2010   -4.4490  -18.7340 N.am  458  GLY458     -0.1940
     62  CA       -12.5400   -4.0830  -18.3240 C.3   458  GLY458      0.2014
     63  C        -12.6340   -3.5900  -16.8990 C.2   458  GLY458      0.2639
     64  O        -13.6770   -3.0970  -16.5010 O.2   458  GLY458     -0.2714
     65  N        -11.5730   -3.7320  -16.1050 N.am  459  GLY459     -0.1954
     66  CA       -11.5850   -3.2130  -14.7380 C.3   459  GLY459      0.1869
     67  C        -12.5120   -3.8570  -13.7020 C.2   459  GLY459      0.2309
     68  O        -12.6700   -3.3080  -12.6050 O.2   459  GLY459     -0.2863
@<TRIPOS>BOND
     1    25    24    1
     2    33    32    1
     3    33    27    1
     4    32    31    1
     5    24    21    1
     6    24    26    1
     7    21    20    1
     8    21    22    1
     9    14    15    2
    10    14    13    1
    11    27    22   am
    12    27    28    1
    13    22    23    2
    14    31    28    1
    15    18    17    1
    16    13    12    1
    17    13    16    1
    18    28    29    1
    19    17    16    1
    20    17    19    1
    21    30    29    2
    22    29    34   am
    23    34    35    1
    24    42    39    1
    25    38    39    1
    26    38    36   am
    27    35    36    1
    28    59    58    1
    29    39    40    1
    30    36    37    2
    31    41    40    2
    32    60    58    1
    33    58    55    1
    34    55    56    1
    35    55    54    1
    36    61    56   am
    37    61    62    1
    38    56    57    2
    39    62    63    1
    40    54    49   am
    41    63    64    2
    42    63    65   am
    43    49    50    2
    44    49    48    1
    45    11     9    1
    46    65    66    1
    47    46    45    2
    48     4     3    2
    49    48    51    1
    50    48    47    1
    51     9    10    1
    52     9     8    2
    53    51    53    1
    54    51    52    1
    55    45    47   am
    56    45    44    1
    57    66    67    1
    58     3     2    1
    59     1     2    1
    60     8     7    1
    61     2     5    1
    62    44    43    1
    63    67    68    2
    64     5     6    1
    65     7     6    1
