@<TRIPOS>MOLECULE
tmp/5kzyA00.pdb
 109 105 0 0 0
SMALL
GASTEIGER

@<TRIPOS>ATOM
      1  N         -6.9690   -0.6350    2.3830 N.3    33  ASP33      -0.1239
      2  CA        -5.8690   -0.3550    3.2970 C.3    33  ASP33       0.1674
      3  C         -6.3540    0.4790    4.4800 C.2    33  ASP33       0.2266
      4  O         -5.5770    0.8230    5.3720 O.2    33  ASP33      -0.2867
      5  CB        -4.7370    0.3670    2.5650 C.3    33  ASP33       0.1410
      6  CG        -5.2010    1.6440    1.8900 C.2    33  ASP33       0.3668
      7  OD1       -6.4260    1.8890    1.8570 O.co2  33  ASP33      -0.2456
      8  OD2       -4.3440    2.3950    1.3740 O.co2  33  ASP33      -0.2456
      9  N         -3.6240    7.7920    4.9940 N.3    43  LYS43      -0.1245
     10  CA        -3.0370    7.2290    3.7860 C.3    43  LYS43       0.1561
     11  C         -3.0280    8.2340    2.6400 C.2    43  LYS43       0.2260
     12  O         -2.1730    8.1720    1.7580 O.2    43  LYS43      -0.2867
     13  CB        -3.7900    5.9620    3.3850 C.3    43  LYS43       0.0271
     14  CG        -3.7470    4.8810    4.4560 C.3    43  LYS43       0.0035
     15  CD        -3.0760    3.6260    3.9300 C.3    43  LYS43       0.0206
     16  CE        -2.0780    3.0490    4.9170 C.3    43  LYS43       0.1093
     17  NZ        -1.2410    1.9850    4.2790 N.3    43  LYS43      -0.1314
     18  N          0.0170   10.3320    3.0080 N.3    46  LEU46      -0.1231
     19  CA         1.1690    9.6300    2.4610 C.3    46  LEU46       0.1693
     20  C          1.1830    9.7350    0.9430 C.2    46  LEU46       0.2592
     21  O          2.2420    9.8600    0.3270 O.2    46  LEU46      -0.2718
     22  CB         1.1580    8.1640    2.8940 C.3    46  LEU46       0.0284
     23  CG         1.1520    7.9260    4.4040 C.3    46  LEU46       0.0019
     24  CD1        0.9860    6.4470    4.7190 C.3    46  LEU46       0.0001
     25  CD2        2.4230    8.4760    5.0350 C.3    46  LEU46       0.0001
     26  N         -0.0040    9.6850    0.3440 N.am   47  TRP47      -0.1976
     27  CA        -0.1380    9.8440   -1.0980 C.3    47  TRP47       0.1640
     28  C          0.2940   11.2400   -1.5340 C.2    47  TRP47       0.2290
     29  O          0.7310   11.4360   -2.6670 O.2    47  TRP47      -0.2864
     30  CB        -1.5790    9.5720   -1.5430 C.3    47  TRP47       0.0576
     31  CG        -1.8900    8.1140   -1.7410 C.ar   47  TRP47       0.0006
     32  CD1       -2.7300    7.3420   -0.9920 C.ar   47  TRP47       0.0946
     33  CD2       -1.3570    7.2550   -2.7570 C.ar   47  TRP47       0.0152
     34  NE1       -2.7550    6.0590   -1.4790 N.ar   47  TRP47      -0.2442
     35  CE2       -1.9200    5.9790   -2.5620 C.ar   47  TRP47       0.0810
     36  CE3       -0.4590    7.4410   -3.8120 C.ar   47  TRP47       0.0012
     37  CZ2       -1.6130    4.8950   -3.3810 C.ar   47  TRP47       0.0191
     38  CZ3       -0.1560    6.3630   -4.6250 C.ar   47  TRP47       0.0001
     39  CH2       -0.7320    5.1070   -4.4050 C.ar   47  TRP47       0.0015
     40  N          2.8310   12.6140   -0.9000 N.3    49  GLY49      -0.1210
     41  CA         4.2590   12.6050   -1.1510 C.3    49  GLY49       0.1956
     42  C          4.5470   12.5480   -2.6390 C.2    49  GLY49       0.2611
     43  O          5.7040   12.5450   -3.0600 O.2    49  GLY49      -0.2717
     44  N          3.4820   12.5000   -3.4350 N.am   50  LEU50      -0.1979
     45  CA         3.5910   12.4020   -4.8850 C.3    50  LEU50       0.1596
     46  C          3.5150   13.7590   -5.5790 C.2    50  LEU50       0.2287
     47  O          3.7590   13.8550   -6.7810 O.2    50  LEU50      -0.2864
     48  CB         2.4890   11.4930   -5.4360 C.3    50  LEU50       0.0297
     49  CG         2.8580   10.0580   -5.8090 C.3    50  LEU50       0.0022
     50  CD1        1.6020    9.2560   -6.1000 C.3    50  LEU50       0.0001
     51  CD2        3.7890   10.0440   -7.0110 C.3    50  LEU50       0.0001
     52  N        -10.6110    6.2440   -2.3050 N.3    68  TYR68      -0.1241
     53  CA       -10.5190    6.4840   -0.8690 C.3    68  TYR68       0.1605
     54  C        -11.7400    7.1980   -0.2990 C.2    68  TYR68       0.2264
     55  O        -12.1330    6.9440    0.8410 O.2    68  TYR68      -0.2867
     56  CB        -9.2520    7.2810   -0.5510 C.3    68  TYR68       0.0534
     57  CG        -7.9910    6.4470   -0.6000 C.ar   68  TYR68      -0.0201
     58  CD1       -7.3510    6.1850   -1.8040 C.ar   68  TYR68      -0.0009
     59  CD2       -7.4450    5.9160    0.5590 C.ar   68  TYR68      -0.0009
     60  CE1       -6.2000    5.4200   -1.8490 C.ar   68  TYR68       0.0417
     61  CE2       -6.2970    5.1520    0.5240 C.ar   68  TYR68       0.0417
     62  CZ        -5.6790    4.9070   -0.6820 C.ar   68  TYR68       0.1957
     63  OH        -4.5350    4.1450   -0.7160 O.3    68  TYR68      -0.2866
     64  N          6.0450    5.9050  -11.6550 N.3    94  ILE94      -0.1231
     65  CA         6.9680    6.0440  -10.5340 C.3    94  ILE94       0.1692
     66  C          6.4430    5.2960   -9.3030 C.2    94  ILE94       0.2591
     67  O          7.2180    4.8060   -8.4790 O.2    94  ILE94      -0.2718
     68  CB         7.2130    7.5350  -10.1950 C.3    94  ILE94       0.0266
     69  CG1        8.2100    7.6800   -9.0430 C.3    94  ILE94       0.0019
     70  CG2        5.9030    8.2430   -9.8760 C.3    94  ILE94       0.0020
     71  CD1        9.5450    7.0210   -9.3020 C.3    94  ILE94       0.0001
     72  N          5.1230    5.1950   -9.1980 N.am   95  VAL95      -0.1980
     73  CA         4.4930    4.4500   -8.1160 C.3    95  VAL95       0.1595
     74  C          4.7440    2.9540   -8.2800 C.2    95  VAL95       0.2287
     75  O          4.9760    2.2380   -7.3050 O.2    95  VAL95      -0.2864
     76  CB         2.9760    4.7210   -8.0640 C.3    95  VAL95       0.0276
     77  CG1        2.3170    3.8980   -6.9680 C.3    95  VAL95       0.0022
     78  CG2        2.7130    6.2030   -7.8560 C.3    95  VAL95       0.0022
     79  N          8.7500    1.9940   -7.7140 N.3    98  GLU98      -0.1231
     80  CA         9.3960    2.2850   -6.4370 C.3    98  GLU98       0.1699
     81  C          8.7910    1.5500   -5.2420 C.2    98  GLU98       0.2592
     82  O          9.4080    1.4880   -4.1780 O.2    98  GLU98      -0.2718
     83  CB         9.3780    3.7910   -6.1700 C.3    98  GLU98       0.0402
     84  CG        10.7510    4.4330   -6.2750 C.3    98  GLU98       0.1161
     85  CD        11.7800    3.7330   -5.4050 C.2    98  GLU98       0.3649
     86  OE1       11.5370    3.5990   -4.1870 O.co2  98  GLU98      -0.2457
     87  OE2       12.8250    3.3060   -5.9410 O.co2  98  GLU98      -0.2457
     88  N          7.5960    0.9940   -5.4110 N.am   99  ARG99      -0.1966
     89  CA         6.9530    0.2570   -4.3280 C.3    99  ARG99       0.1729
     90  C          5.8280   -0.6330   -4.8500 C.2    99  ARG99       0.2616
     91  O          5.5760   -1.7100   -4.3100 O.2    99  ARG99      -0.2715
     92  CB         6.4210    1.2270   -3.2690 C.3    99  ARG99       0.0348
     93  CG         5.9930    0.5700   -1.9670 C.3    99  ARG99       0.0492
     94  CD         5.9900    1.5790   -0.8300 C.3    99  ARG99       0.2205
     95  NE         5.3350    1.0640    0.3680 N.pl3  99  ARG99      -0.0865
     96  CZ         5.2450    1.7310    1.5130 C.cat  99  ARG99       0.5346
     97  NH1        5.7740    2.9420    1.6210 N.pl3  99  ARG99       0.1354
     98  NH2        4.6280    1.1870    2.5520 N.pl3  99  ARG99       0.1354
     99  N          5.1540   -0.1780   -5.9010 N.am  100  GLY100     -0.1955
    100  CA         4.1170   -0.9680   -6.5380 C.3   100  GLY100      0.1869
    101  C          2.7130   -0.6170   -6.0880 C.2   100  GLY100      0.2309
    102  O          2.4800   -0.3180   -4.9150 O.2   100  GLY100     -0.2863
    103  N         -0.9600   -0.9690   -4.7670 N.3   102  PRO102     -0.2116
    104  CA        -1.7470   -1.9210   -3.9800 C.3   102  PRO102      0.1372
    105  C         -2.7630   -2.6080   -4.8850 C.2   102  PRO102      0.2244
    106  O         -3.1220   -2.0400   -5.9170 O.2   102  PRO102     -0.2868
    107  CB        -2.4300   -1.0410   -2.9290 C.3   102  PRO102      0.0268
    108  CG        -1.5830    0.1870   -2.8480 C.3   102  PRO102      0.0207
    109  CD        -1.0620    0.4020   -4.2410 C.3   102  PRO102      0.0892
@<TRIPOS>BOND
     1    64    65    1
     2    65    68    1
     3    65    66    1
     4    68    70    1
     5    68    69    1
     6    66    72   am
     7    66    67    2
     8    71    69    1
     9    72    73    1
    10    74    73    1
    11    74    75    2
    12    73    76    1
    13    76    78    1
    14    76    77    1
    15    79    80    1
    16    51    49    1
    17    47    46    2
    18   100   101    1
    19   100    99    1
    20    80    83    1
    21    80    81    1
    22    84    83    1
    23    84    85    1
    24    50    49    1
    25   101   102    2
    26    87    85   ar
    27   106   105    2
    28    99    90   am
    29    49    48    1
    30    46    45    1
    31    48    45    1
    32    88    81   am
    33    88    89    1
    34    85    86   ar
    35    81    82    2
    36   105   104    1
    37    45    44    1
    38    90    89    1
    39    90    91    2
    40   103   109    1
    41   103   104    1
    42    38    39   ar
    43    38    36   ar
    44    39    37   ar
    45    89    92    1
    46   109   108    1
    47   104   107    1
    48    36    33   ar
    49    44    42   am
    50    37    35   ar
    51    92    93    1
    52    43    42    2
    53   107   108    1
    54    33    35   ar
    55    33    31   ar
    56    29    28    2
    57    42    41    1
    58    35    34   ar
    59    52    53    1
    60    93    94    1
    61    60    58   ar
    62    60    62   ar
    63    58    57   ar
    64    31    30    1
    65    31    32   ar
    66    30    27    1
    67    28    27    1
    68    34    32   ar
    69    41    40    1
    70    27    26    1
    71    53    56    1
    72    53    54    1
    73    94    95    1
    74    63    62    1
    75    62    61   ar
    76    57    56    1
    77    57    59   ar
    78    54    55    2
    79    21    20    2
    80    26    20   am
    81    95    96    2
    82    61    59   ar
    83    20    19    1
    84     8     6   ar
    85    96    97    1
    86    96    98    1
    87    12    11    2
    88     7     6   ar
    89     6     5    1
    90     1     2    1
    91    19    22    1
    92    19    18    1
    93     5     2    1
    94    11    10    1
    95    22    23    1
    96     2     3    1
    97    13    10    1
    98    13    14    1
    99    10     9    1
   100    15    14    1
   101    15    16    1
   102    17    16    1
   103    23    24    1
   104    23    25    1
   105     3     4    2
