@<TRIPOS>MOLECULE
tmp/5l03A00.pdb
 104 101 0 0 0
SMALL
GASTEIGER

@<TRIPOS>ATOM
      1  N         10.9650  -32.7860   16.2110 N.3    10  ASP10      -0.1239
      2  CA        10.2540  -31.5250   16.3000 C.3    10  ASP10       0.1674
      3  C         11.0150  -30.5820   17.2170 C.2    10  ASP10       0.2266
      4  O         11.7890  -31.0030   18.0750 O.2    10  ASP10      -0.2867
      5  CB         8.7980  -31.7450   16.7420 C.3    10  ASP10       0.1410
      6  CG         7.9100  -30.5130   16.5350 C.2    10  ASP10       0.3668
      7  OD1        8.2030  -29.6940   15.6330 O.co2  10  ASP10      -0.2456
      8  OD2        6.8670  -30.4070   17.2200 O.co2  10  ASP10      -0.2456
      9  N         10.2560  -26.4700   19.0690 N.3    12  HIS12      -0.1241
     10  CA         9.4560  -25.2630   19.2030 C.3    12  HIS12       0.1621
     11  C         10.1890  -24.2710   20.0790 C.2    12  HIS12       0.2264
     12  O         10.9310  -24.6550   20.9880 O.2    12  HIS12      -0.2867
     13  CB         8.1010  -25.5390   19.8760 C.3    12  HIS12       0.0745
     14  CG         7.1150  -26.2460   18.9970 C.ar   12  HIS12       0.0817
     15  ND1        6.1630  -25.5770   18.2630 N.ar   12  HIS12      -0.2268
     16  CD2        6.9400  -27.5610   18.7370 C.ar   12  HIS12       0.1154
     17  CE1        5.4480  -26.4510   17.5760 C.ar   12  HIS12       0.1986
     18  NE2        5.8900  -27.6630   17.8550 N.ar   12  HIS12      -0.2212
     19  N          3.3110  -22.2650   19.1520 N.3    35  GLY35      -0.1210
     20  CA         2.8530  -22.9370   17.9490 C.3    35  GLY35       0.1956
     21  C          1.4090  -22.5770   17.6890 C.2    35  GLY35       0.2612
     22  O          0.7600  -21.9070   18.4970 O.2    35  GLY35      -0.2717
     23  N          0.9190  -23.0040   16.5210 N.am   36  HIS36      -0.1961
     24  CA        -0.5030  -22.8510   16.2160 C.3    36  HIS36       0.1787
     25  C         -1.3450  -23.7620   17.1000 C.2    36  HIS36       0.2620
     26  O         -2.3210  -23.3220   17.7190 O.2    36  HIS36      -0.2715
     27  CB        -0.7540  -23.1510   14.7350 C.3    36  HIS36       0.0785
     28  CG        -2.1950  -23.0650   14.3230 C.ar   36  HIS36       0.0821
     29  ND1       -2.8820  -21.8720   14.2530 N.ar   36  HIS36      -0.2267
     30  CD2       -3.0710  -24.0260   13.9390 C.ar   36  HIS36       0.1154
     31  CE1       -4.1200  -22.1000   13.8450 C.ar   36  HIS36       0.1986
     32  NE2       -4.2600  -23.3980   13.6460 N.ar   36  HIS36      -0.2212
     33  N         -0.9650  -25.0300   17.1850 N.am   37  SER37      -0.1950
     34  CA        -1.5650  -25.9760   18.1180 C.3    37  SER37       0.1924
     35  C         -1.0700  -25.6720   19.5320 C.2    37  SER37       0.2314
     36  O         -0.4830  -24.6230   19.8060 O.2    37  SER37      -0.2863
     37  CB        -1.1730  -27.3940   17.7310 C.3    37  SER37       0.2116
     38  OG         0.2150  -27.6290   17.9930 O.3    37  SER37      -0.2180
     39  N          4.2820  -34.2990   18.7790 N.3    44  HIS44      -0.1241
     40  CA         4.4500  -34.0890   17.3410 C.3    44  HIS44       0.1621
     41  C          5.5480  -34.9710   16.7690 C.2    44  HIS44       0.2264
     42  O          5.3830  -35.5420   15.6810 O.2    44  HIS44      -0.2867
     43  CB         4.7450  -32.6300   17.0150 C.3    44  HIS44       0.0745
     44  CG         3.6350  -31.7130   17.3840 C.ar   44  HIS44       0.0817
     45  ND1        3.7690  -30.3440   17.4000 N.ar   44  HIS44      -0.2268
     46  CD2        2.3880  -31.9800   17.8460 C.ar   44  HIS44       0.1154
     47  CE1        2.6360  -29.8030   17.8100 C.ar   44  HIS44       0.1986
     48  NE2        1.7870  -30.7730   18.1000 N.ar   44  HIS44      -0.2212
     49  N          3.1430  -34.9340    9.6210 N.3    59  ILE59      -0.1231
     50  CA         2.1050  -34.3160   10.4410 C.3    59  ILE59       0.1692
     51  C          1.5080  -33.0920    9.7460 C.2    59  ILE59       0.2592
     52  O          0.2940  -32.8450    9.8250 O.2    59  ILE59      -0.2718
     53  CB         2.6640  -34.0050   11.8460 C.3    59  ILE59       0.0266
     54  CG1        1.5240  -33.5880   12.7810 C.3    59  ILE59       0.0019
     55  CG2        3.8510  -33.0190   11.7630 C.3    59  ILE59       0.0020
     56  CD1        1.9530  -33.4150   14.2480 C.3    59  ILE59       0.0001
     57  N          2.3380  -32.3360    9.0200 N.am   60  GLY60      -0.1957
     58  CA         1.8580  -31.1640    8.3090 C.3    60  GLY60       0.1869
     59  C          0.9100  -31.5020    7.1780 C.2    60  GLY60       0.2309
     60  O         -0.0180  -30.7380    6.8970 O.2    60  GLY60      -0.2863
     61  N         -2.5710  -32.5540    9.2450 N.3    63  PHE63      -0.1227
     62  CA        -3.2750  -31.5450   10.0260 C.3    63  PHE63       0.1736
     63  C         -2.7440  -30.1860    9.6000 C.2    63  PHE63       0.2596
     64  O         -1.5440  -29.9320    9.7110 O.2    63  PHE63      -0.2718
     65  CB        -3.0200  -31.7760   11.5220 C.3    63  PHE63       0.0547
     66  CG        -3.2660  -33.2080   11.9830 C.ar   63  PHE63      -0.0202
     67  CD1       -4.5370  -33.7560   11.9790 C.ar   63  PHE63      -0.0042
     68  CD2       -2.2190  -33.9910   12.4370 C.ar   63  PHE63      -0.0042
     69  CE1       -4.7480  -35.0600   12.4040 C.ar   63  PHE63      -0.0003
     70  CE2       -2.4330  -35.2970   12.8780 C.ar   63  PHE63      -0.0003
     71  CZ        -3.7010  -35.8240   12.8530 C.ar   63  PHE63      -0.0000
     72  N         -3.6280  -29.3180    9.1130 N.am   64  SER64      -0.1938
     73  CA        -3.2070  -28.0220    8.5880 C.3    64  SER64       0.2055
     74  C         -2.8810  -27.0600    9.7270 C.2    64  SER64       0.2643
     75  O         -3.7460  -26.7580   10.5580 O.2    64  SER64      -0.2714
     76  CB        -4.3040  -27.4260    7.7140 C.3    64  SER64       0.2130
     77  OG        -3.9970  -26.0760    7.4150 O.3    64  SER64      -0.2179
     78  N         -1.6570  -26.5340    9.7330 N.am   65  ASP65      -0.1971
     79  CA        -1.2300  -25.5990   10.7720 C.3    65  ASP65       0.1709
     80  C         -1.7840  -24.1830   10.5900 C.2    65  ASP65       0.2293
     81  O         -1.3710  -23.2760   11.3220 O.2    65  ASP65      -0.2864
     82  CB         0.2980  -25.5750   10.9060 C.3    65  ASP65       0.1436
     83  CG         1.0040  -25.1010    9.6450 C.2    65  ASP65       0.3671
     84  OD1        0.3270  -24.6900    8.6740 O.co2  65  ASP65      -0.2456
     85  OD2        2.2560  -25.1350    9.6380 O.co2  65  ASP65      -0.2456
     86  N         -7.5770  -26.0350   14.3460 N.3    70  PHE70      -0.1241
     87  CA        -6.4180  -26.5470   15.0660 C.3    70  PHE70       0.1605
     88  C         -5.7330  -25.4940   15.9250 C.2    70  PHE70       0.2264
     89  O         -4.6820  -25.7820   16.5150 O.2    70  PHE70      -0.2867
     90  CB        -5.4020  -27.1670   14.0990 C.3    70  PHE70       0.0534
     91  CG        -5.8940  -28.4090   13.4060 C.ar   70  PHE70      -0.0203
     92  CD1       -6.4770  -29.4410   14.1260 C.ar   70  PHE70      -0.0042
     93  CD2       -5.7760  -28.5410   12.0330 C.ar   70  PHE70      -0.0042
     94  CE1       -6.9300  -30.5820   13.4870 C.ar   70  PHE70      -0.0003
     95  CE2       -6.2280  -29.6820   11.3860 C.ar   70  PHE70      -0.0003
     96  CZ        -6.8080  -30.6980   12.1120 C.ar   70  PHE70      -0.0000
     97  N         -4.6730  -35.1540   18.3200 N.3    78  LEU78      -0.1245
     98  CA        -4.0050  -35.3440   17.0330 C.3    78  LEU78       0.1561
     99  C         -3.2420  -36.6610   17.0050 C.2    78  LEU78       0.2260
    100  O         -3.2620  -37.3730   15.9930 O.2    78  LEU78      -0.2867
    101  CB        -3.0530  -34.1830   16.7540 C.3    78  LEU78       0.0270
    102  CG        -3.7280  -32.8200   16.6560 C.3    78  LEU78       0.0019
    103  CD1       -2.6930  -31.7790   16.2460 C.3    78  LEU78       0.0001
    104  CD2       -4.9090  -32.8450   15.6890 C.3    78  LEU78       0.0001
@<TRIPOS>BOND
     1    60    59    2
     2    59    58    1
     3    77    76    1
     4    76    73    1
     5    58    57    1
     6    73    72    1
     7    73    74    1
     8    84    83   ar
     9    57    51   am
    10    72    63   am
    11    61    62    1
    12    63    64    2
    13    63    62    1
    14    49    50    1
    15    85    83   ar
    16    83    82    1
    17    74    78   am
    18    74    75    2
    19    78    79    1
    20    51    52    2
    21    51    50    1
    22    62    65    1
    23    50    53    1
    24    80    79    1
    25    80    81    2
    26    79    82    1
    27    95    93   ar
    28    95    96   ar
    29    65    66    1
    30    55    53    1
    31    53    54    1
    32    67    66   ar
    33    67    69   ar
    34    66    68   ar
    35    93    91   ar
    36    96    94   ar
    37    69    71   ar
    38    68    70   ar
    39    54    56    1
    40    71    70   ar
    41    91    90    1
    42    91    92   ar
    43    94    92   ar
    44    32    31   ar
    45    32    30   ar
    46    31    29   ar
    47    30    28   ar
    48    90    87    1
    49    29    28   ar
    50    28    27    1
    51    86    87    1
    52    27    24    1
    53    87    88    1
    54     7     6   ar
    55    42    41    2
    56   104   102    1
    57    88    89    2
    58   100    99    2
    59     1     2    1
    60    24    23    1
    61    24    25    1
    62   103   102    1
    63     2     5    1
    64     2     3    1
    65    23    21   am
    66     6     5    1
    67     6     8   ar
    68   102   101    1
    69   101    98    1
    70    41    40    1
    71    99    98    1
    72    43    40    1
    73    43    44    1
    74    98    97    1
    75    25    33   am
    76    25    26    2
    77    33    34    1
    78     3     4    2
    79    40    39    1
    80    44    45   ar
    81    44    46   ar
    82    45    47   ar
    83    17    18   ar
    84    17    15   ar
    85    21    20    1
    86    21    22    2
    87    37    38    1
    88    37    34    1
    89    47    48   ar
    90    46    48   ar
    91    18    16   ar
    92    20    19    1
    93    34    35    1
    94    15    14   ar
    95    16    14   ar
    96    14    13    1
    97     9    10    1
    98    10    13    1
    99    10    11    1
   100    35    36    2
   101    11    12    2
