@<TRIPOS>MOLECULE
tmp/5l09B00.pdb
 143 137 0 0 0
SMALL
GASTEIGER

@<TRIPOS>ATOM
      1  N         11.8620    6.7120   21.9120 N.3    28  SER28      -0.1217
      2  CA        12.8460    7.5480   22.5910 C.3    28  SER28       0.1889
      3  C         13.2960    8.6450   21.6440 C.2    28  SER28       0.2288
      4  O         13.7530    8.3670   20.5270 O.2    28  SER28      -0.2866
      5  CB        14.0430    6.7290   23.0810 C.3    28  SER28       0.2089
      6  OG        15.0130    7.6010   23.6250 O.3    28  SER28      -0.2183
      7  N         16.0880   11.2110   21.3990 N.3    30  LEU30      -0.1245
      8  CA        17.4100   11.3670   21.9880 C.3    30  LEU30       0.1561
      9  C         18.1490   12.4480   21.2210 C.2    30  LEU30       0.2260
     10  O         18.2510   12.3800   19.9900 O.2    30  LEU30      -0.2867
     11  CB        18.1830   10.0440   21.9700 C.3    30  LEU30       0.0270
     12  CG        19.5430   10.0490   22.6710 C.3    30  LEU30       0.0019
     13  CD1       19.7940    8.6810   23.2700 C.3    30  LEU30       0.0001
     14  CD2       20.6600   10.3990   21.6960 C.3    30  LEU30       0.0001
     15  N         17.2920   12.5960   26.8020 N.3    41  ILE41      -0.1245
     16  CA        16.4620   11.4490   26.4500 C.3    41  ILE41       0.1561
     17  C         15.0490   11.7140   26.9240 C.2    41  ILE41       0.2260
     18  O         14.8140   11.9210   28.1220 O.2    41  ILE41      -0.2867
     19  CB        16.9950   10.1430   27.0560 C.3    41  ILE41       0.0252
     20  CG1       18.3610    9.8070   26.4660 C.3    41  ILE41       0.0019
     21  CG2       15.9910    9.0130   26.8420 C.3    41  ILE41       0.0019
     22  CD1       19.1000    8.7100   27.2130 C.3    41  ILE41       0.0001
     23  N         10.5040    4.4240   27.2840 N.3    45  TYR45      -0.1241
     24  CA        11.1930    3.1700   27.5540 C.3    45  TYR45       0.1605
     25  C         11.1370    2.8750   29.0570 C.2    45  TYR45       0.2264
     26  O         10.9690    3.7930   29.8630 O.2    45  TYR45      -0.2867
     27  CB        12.6520    3.2340   27.1020 C.3    45  TYR45       0.0534
     28  CG        12.9200    3.1160   25.6040 C.ar   45  TYR45      -0.0201
     29  CD1       11.8970    3.1840   24.6650 C.ar   45  TYR45      -0.0009
     30  CD2       14.2190    2.9450   25.1430 C.ar   45  TYR45      -0.0009
     31  CE1       12.1750    3.0790   23.2780 C.ar   45  TYR45       0.0417
     32  CE2       14.5040    2.8380   23.7920 C.ar   45  TYR45       0.0417
     33  CZ        13.4870    2.9040   22.8600 C.ar   45  TYR45       0.1957
     34  OH        13.8170    2.8010   21.5200 O.3    45  TYR45      -0.2866
     35  N         16.0030    0.8950   32.3410 N.3    49  TRP49      -0.1227
     36  CA        16.8420    0.8770   31.1480 C.3    49  TRP49       0.1737
     37  C         17.3410    2.2840   30.8060 C.2    49  TRP49       0.2595
     38  O         18.5430    2.4930   30.5800 O.2    49  TRP49      -0.2718
     39  CB        16.0630    0.2430   29.9870 C.3    49  TRP49       0.0564
     40  CG        16.7960    0.2260   28.6850 C.ar   49  TRP49       0.0003
     41  CD1       16.3510    0.7190   27.4960 C.ar   49  TRP49       0.0946
     42  CD2       18.1050   -0.3040   28.4340 C.ar   49  TRP49       0.0152
     43  NE1       17.2950    0.5240   26.5150 N.ar   49  TRP49      -0.2442
     44  CE2       18.3870   -0.0900   27.0660 C.ar   49  TRP49       0.0810
     45  CE3       19.0650   -0.9370   29.2280 C.ar   49  TRP49       0.0012
     46  CZ2       19.5830   -0.4950   26.4750 C.ar   49  TRP49       0.0191
     47  CZ3       20.2600   -1.3270   28.6430 C.ar   49  TRP49       0.0001
     48  CH2       20.5070   -1.1080   27.2810 C.ar   49  TRP49       0.0015
     49  N         16.4420    3.2730   30.8000 N.am   50  VAL50      -0.1980
     50  CA        16.8650    4.6520   30.5560 C.3    50  VAL50       0.1595
     51  C         17.9570    5.0560   31.5360 C.2    50  VAL50       0.2287
     52  O         18.9870    5.6340   31.1550 O.2    50  VAL50      -0.2864
     53  CB        15.6720    5.6190   30.6450 C.3    50  VAL50       0.0276
     54  CG1       16.1850    7.0520   30.5570 C.3    50  VAL50       0.0022
     55  CG2       14.6500    5.3420   29.5530 C.3    50  VAL50       0.0022
     56  N         21.0550    3.2480   30.7380 N.3    53  TYR53      -0.1241
     57  CA        21.5850    3.7910   29.4860 C.3    53  TYR53       0.1605
     58  C         22.3070    5.1120   29.7410 C.2    53  TYR53       0.2264
     59  O         23.4330    5.3220   29.2720 O.2    53  TYR53      -0.2867
     60  CB        20.4350    3.9530   28.4810 C.3    53  TYR53       0.0534
     61  CG        20.8230    4.1760   27.0150 C.ar   53  TYR53      -0.0201
     62  CD1       20.8680    3.1140   26.1090 C.ar   53  TYR53      -0.0009
     63  CD2       21.0930    5.4520   26.5420 C.ar   53  TYR53      -0.0009
     64  CE1       21.2140    3.3200   24.7450 C.ar   53  TYR53       0.0417
     65  CE2       21.4350    5.6700   25.2060 C.ar   53  TYR53       0.0417
     66  CZ        21.4850    4.6000   24.3090 C.ar   53  TYR53       0.1957
     67  OH        21.8280    4.8350   22.9870 O.3    53  TYR53      -0.2866
     68  N         26.0930    2.4290   21.0490 N.3    62  ASP62      -0.1239
     69  CA        24.8070    1.9170   20.6120 C.3    62  ASP62       0.1674
     70  C         24.8230    1.8320   19.0880 C.2    62  ASP62       0.2266
     71  O         25.0010    2.8610   18.4310 O.2    62  ASP62      -0.2867
     72  CB        23.7070    2.8350   21.1090 C.3    62  ASP62       0.1410
     73  CG        22.3310    2.3450   20.7710 C.2    62  ASP62       0.3668
     74  OD1       22.1850    1.4940   19.8590 O.co2  62  ASP62      -0.2456
     75  OD2       21.3740    2.8440   21.4000 O.co2  62  ASP62      -0.2456
     76  N         22.5570    1.7300   16.8680 N.3    64  VAL64      -0.1231
     77  CA        21.6280    2.5800   16.1220 C.3    64  VAL64       0.1692
     78  C         22.0690    4.0440   16.1580 C.2    64  VAL64       0.2591
     79  O         21.8550    4.7850   15.1920 O.2    64  VAL64      -0.2718
     80  CB        20.1790    2.4080   16.6170 C.3    64  VAL64       0.0266
     81  CG1       19.8400    0.9020   16.7290 C.3    64  VAL64       0.0020
     82  CG2       19.9320    3.1480   17.9240 C.3    64  VAL64       0.0020
     83  N         22.6920    4.4900   17.2500 N.am   65  ILE65      -0.1980
     84  CA        23.1600    5.8730   17.3030 C.3    65  ILE65       0.1595
     85  C         24.4100    6.0260   16.4470 C.2    65  ILE65       0.2287
     86  O         24.5720    7.0160   15.7290 O.2    65  ILE65      -0.2864
     87  CB        23.4020    6.2990   18.7700 C.3    65  ILE65       0.0276
     88  CG1       22.1150    6.1830   19.5960 C.3    65  ILE65       0.0022
     89  CG2       23.9820    7.7070   18.8550 C.3    65  ILE65       0.0022
     90  CD1       20.9010    6.9860   19.0550 C.3    65  ILE65       0.0001
     91  N         16.4030   -1.3920   12.4950 N.3    77  TRP77      -0.1241
     92  CA        17.5070   -1.9470   13.2670 C.3    77  TRP77       0.1605
     93  C         17.9850   -3.2910   12.7420 C.2    77  TRP77       0.2264
     94  O         19.0090   -3.7770   13.2220 O.2    77  TRP77      -0.2867
     95  CB        17.1220   -2.0860   14.7440 C.3    77  TRP77       0.0550
     96  CG        16.7530   -0.7800   15.3670 C.ar   77  TRP77       0.0003
     97  CD1       16.9000    0.4930   14.8140 C.ar   77  TRP77       0.0946
     98  CD2       16.1680   -0.5940   16.6540 C.ar   77  TRP77       0.0152
     99  NE1       16.4300    1.4380   15.7040 N.ar   77  TRP77      -0.2442
    100  CE2       15.9650    0.7980   16.8300 C.ar   77  TRP77       0.0810
    101  CE3       15.7720   -1.4750   17.6800 C.ar   77  TRP77       0.0012
    102  CZ2       15.3960    1.3250   17.9940 C.ar   77  TRP77       0.0191
    103  CZ3       15.1970   -0.9460   18.8290 C.ar   77  TRP77       0.0001
    104  CH2       15.0210    0.4390   18.9800 C.ar   77  TRP77       0.0015
    105  N         24.9710   -3.2690   23.9590 N.3    92  VAL92      -0.1231
    106  CA        23.7210   -2.5330   24.1530 C.3    92  VAL92       0.1692
    107  C         22.5120   -3.3960   23.8120 C.2    92  VAL92       0.2592
    108  O         21.5190   -3.4150   24.5550 O.2    92  VAL92      -0.2718
    109  CB        23.7320   -1.2250   23.3340 C.3    92  VAL92       0.0266
    110  CG1       22.3650   -0.5700   23.3610 C.3    92  VAL92       0.0020
    111  CG2       24.7760   -0.2760   23.8980 C.3    92  VAL92       0.0020
    112  N         22.5530   -4.1070   22.6770 N.am   93  PHE93      -0.1976
    113  CA        21.3830   -4.9010   22.3200 C.3    93  PHE93       0.1639
    114  C         21.2030   -6.0740   23.2760 C.2    93  PHE93       0.2290
    115  O         20.0690   -6.4180   23.6270 O.2    93  PHE93      -0.2864
    116  CB        21.4620   -5.3710   20.8630 C.3    93  PHE93       0.0560
    117  CG        20.8460   -4.3840   19.8850 C.ar   93  PHE93      -0.0200
    118  CD1       19.5360   -4.5420   19.4450 C.ar   93  PHE93      -0.0042
    119  CD2       21.5660   -3.2840   19.4420 C.ar   93  PHE93      -0.0042
    120  CE1       18.9640   -3.6270   18.5380 C.ar   93  PHE93      -0.0003
    121  CE2       21.0000   -2.3560   18.5450 C.ar   93  PHE93      -0.0003
    122  CZ        19.7000   -2.5320   18.0950 C.ar   93  PHE93      -0.0000
    123  N         19.4990   -4.6060   26.2250 N.3    96  ALA96      -0.1245
    124  CA        18.1610   -4.1090   25.9310 C.3    96  ALA96       0.1562
    125  C         17.1470   -5.2330   25.7870 C.2    96  ALA96       0.2260
    126  O         15.9450   -5.0010   25.9720 O.2    96  ALA96      -0.2867
    127  CB        18.1860   -3.2530   24.6580 C.3    96  ALA96       0.0290
    128  N         13.4630   -4.5150   24.1040 N.3   101  ILE101     -0.1245
    129  CA        13.8280   -3.6110   23.0220 C.3   101  ILE101      0.1561
    130  C         14.6940   -4.4290   22.0700 C.2   101  ILE101      0.2260
    131  O         15.8790   -4.6420   22.3190 O.2   101  ILE101     -0.2867
    132  CB        14.5550   -2.3650   23.5320 C.3   101  ILE101      0.0252
    133  CG1       13.8490   -1.7760   24.7590 C.3   101  ILE101      0.0019
    134  CG2       14.6580   -1.3150   22.4210 C.3   101  ILE101      0.0019
    135  CD1       12.5580   -1.0670   24.4540 C.3   101  ILE101      0.0001
    136  N         13.6230    7.1460   18.0360 N.3   119  ASN119     -0.1240
    137  CA        13.8110    5.7030   18.0130 C.3   119  ASN119      0.1653
    138  C         12.5120    5.0460   18.4410 C.2   119  ASN119      0.2266
    139  O         11.8900    5.4780   19.4130 O.2   119  ASN119     -0.2867
    140  CB        14.9750    5.3240   18.9230 C.3   119  ASN119      0.1155
    141  CG        16.2180    6.1120   18.5840 C.2   119  ASN119      0.2627
    142  OD1       16.8780    5.8210   17.5890 O.2   119  ASN119     -0.2716
    143  ND2       16.5360    7.1360   19.3880 N.am  119  ASN119     -0.0877
@<TRIPOS>BOND
     1    91    92    1
     2    93    94    2
     3    93    92    1
     4    92    95    1
     5    95    96    1
     6    97    96   ar
     7    97    99   ar
     8    79    78    2
     9    96    98   ar
    10    99   100   ar
    11    86    85    2
    12    77    78    1
    13    77    80    1
    14    77    76    1
    15    78    83   am
    16    85    84    1
    17    80    81    1
    18    80    82    1
    19    98   100   ar
    20    98   101   ar
    21   100   102   ar
    22    83    84    1
    23    84    87    1
    24   142   141    2
    25   101   103   ar
    26   102   104   ar
    27   137   136    1
    28   137   138    1
    29   137   140    1
    30   122   120   ar
    31   122   121   ar
    32    71    70    2
    33   138   139    2
    34   120   118   ar
    35   121   119   ar
    36   141   140    1
    37   141   143   am
    38    87    89    1
    39    87    88    1
    40   103   104   ar
    41    90    88    1
    42    70    69    1
    43   119   117   ar
    44   118   117   ar
    45    74    73   ar
    46   117   116    1
    47    10     9    2
    48     4     3    2
    49    69    68    1
    50    69    72    1
    51    73    72    1
    52    73    75   ar
    53   116   113    1
    54     9     8    1
    55     7     8    1
    56    34    33    1
    57     3     2    1
    58    14    12    1
    59     1     2    1
    60    11     8    1
    61    11    12    1
    62   130   131    2
    63   130   129    1
    64   113   112    1
    65   113   114    1
    66   134   132    1
    67     2     5    1
    68    12    13    1
    69   112   107   am
    70    33    31   ar
    71    33    32   ar
    72    67    66    1
    73   129   132    1
    74   129   128    1
    75     5     6    1
    76   114   115    2
    77    31    29   ar
    78   109   110    1
    79   109   111    1
    80   109   106    1
    81   132   133    1
    82    32    30   ar
    83   107   106    1
    84   107   108    2
    85   105   106    1
    86    66    64   ar
    87    66    65   ar
    88   135   133    1
    89   127   124    1
    90    29    28   ar
    91    64    62   ar
    92    30    28   ar
    93    65    63   ar
    94    28    27    1
    95   125   124    1
    96   125   126    2
    97   124   123    1
    98    62    61   ar
    99    16    15    1
   100    16    17    1
   101    16    19    1
   102    20    19    1
   103    20    22    1
   104    46    44   ar
   105    46    48   ar
   106    43    44   ar
   107    43    41   ar
   108    63    61   ar
   109    21    19    1
   110    17    18    2
   111    61    60    1
   112    44    42   ar
   113    27    24    1
   114    48    47   ar
   115    23    24    1
   116    41    40   ar
   117    24    25    1
   118    42    40   ar
   119    42    45   ar
   120    60    57    1
   121    47    45   ar
   122    40    39    1
   123    25    26    2
   124    59    58    2
   125    57    58    1
   126    57    56    1
   127    55    53    1
   128    39    36    1
   129    50    53    1
   130    50    49    1
   131    50    51    1
   132    54    53    1
   133    38    37    2
   134    49    37   am
   135    37    36    1
   136    36    35    1
   137    52    51    2
