@<TRIPOS>MOLECULE
tmp/5l0bB05.pdb
 194 191 0 0 0
SMALL
GASTEIGER

@<TRIPOS>ATOM
      1  N         63.6340   14.3070    6.0960 N.3   116  ILE116     -0.1245
      2  CA        62.2200   14.2100    5.7120 C.3   116  ILE116      0.1561
      3  C         62.0930   14.8340    4.3080 C.2   116  ILE116      0.2260
      4  O         62.2620   16.0380    4.1410 O.2   116  ILE116     -0.2867
      5  CB        61.2720   14.8880    6.7440 C.3   116  ILE116      0.0252
      6  CG1       61.4840   14.3280    8.1630 C.3   116  ILE116      0.0019
      7  CG2       59.8030   14.7780    6.2900 C.3   116  ILE116      0.0019
      8  CD1       61.3370   15.3420    9.2200 C.3   116  ILE116      0.0001
      9  N         59.6090   15.6600    1.7880 N.3   118  SER118     -0.1217
     10  CA        58.1770   15.7890    1.5250 C.3   118  SER118      0.1889
     11  C         57.8930   16.2760    0.0970 C.2   118  SER118      0.2288
     12  O         58.5720   17.1650   -0.4160 O.2   118  SER118     -0.2866
     13  CB        57.4910   16.6590    2.5690 C.3   118  SER118      0.2089
     14  OG        57.9670   17.9890    2.5230 O.3   118  SER118     -0.2183
     15  N         54.5780   17.3480   -2.3950 N.3   120  ASP120     -0.1239
     16  CA        53.2040   17.8390   -2.3630 C.3   120  ASP120      0.1674
     17  C         52.3210   17.1250   -3.3950 C.2   120  ASP120      0.2266
     18  O         52.7500   16.9440   -4.5340 O.2   120  ASP120     -0.2867
     19  CB        53.1860   19.3550   -2.6080 C.3   120  ASP120      0.1410
     20  CG        52.0380   20.0530   -1.9340 C.2   120  ASP120      0.3668
     21  OD1       50.8750   19.6360   -2.1500 O.co2 120  ASP120     -0.2456
     22  OD2       52.2930   21.0030   -1.1830 O.co2 120  ASP120     -0.2456
     23  N         47.3240   20.9580    1.9770 N.3   158  THR158     -0.1203
     24  CA        48.7560   21.0990    2.2820 C.3   158  THR158      0.1994
     25  C         49.1110   21.5290    3.7000 C.2   158  THR158      0.2617
     26  O         49.8150   20.7890    4.3920 O.2   158  THR158     -0.2717
     27  CB        49.3600   22.0660    1.2680 C.3   158  THR158      0.1784
     28  OG1       49.1400   21.4890   -0.0080 O.3   158  THR158     -0.2211
     29  CG2       50.8490   22.3290    1.4830 C.3   158  THR158      0.0376
     30  N         48.7140   22.7470    4.0870 N.am  159  PHE159     -0.1975
     31  CA        49.0530   23.3160    5.3820 C.3   159  PHE159      0.1639
     32  C         48.5480   22.4790    6.5460 C.2   159  PHE159      0.2290
     33  O         49.3850   22.1130    7.3670 O.2   159  PHE159     -0.2864
     34  CB        48.6450   24.7950    5.5080 C.3   159  PHE159      0.0560
     35  CG        49.6680   25.7280    4.9010 C.ar  159  PHE159     -0.0200
     36  CD1       50.8640   25.9960    5.5550 C.ar  159  PHE159     -0.0042
     37  CD2       49.4330   26.3440    3.6780 C.ar  159  PHE159     -0.0042
     38  CE1       51.8120   26.8560    4.9910 C.ar  159  PHE159     -0.0003
     39  CE2       50.3720   27.2190    3.1260 C.ar  159  PHE159     -0.0003
     40  CZ        51.5520   27.4720    3.7870 C.ar  159  PHE159     -0.0000
     41  N         50.8860   19.1320    6.4130 N.3   162  LEU162     -0.1231
     42  CA        52.3190   19.3080    6.7060 C.3   162  LEU162      0.1693
     43  C         52.5080   19.6430    8.1670 C.2   162  LEU162      0.2592
     44  O         53.4560   19.1690    8.7840 O.2   162  LEU162     -0.2718
     45  CB        52.9370   20.4120    5.8380 C.3   162  LEU162      0.0284
     46  CG        53.2230   20.0150    4.3850 C.3   162  LEU162      0.0019
     47  CD1       53.7750   21.2050    3.6140 C.3   162  LEU162      0.0001
     48  CD2       54.2110   18.8100    4.2900 C.3   162  LEU162      0.0001
     49  N         51.5800   20.4340    8.7270 N.am  163  TYR163     -0.1976
     50  CA        51.6260   20.8050   10.1250 C.3   163  TYR163      0.1639
     51  C         51.2100   19.6500   11.0270 C.2   163  TYR163      0.2290
     52  O         51.6860   19.5890   12.1510 O.2   163  TYR163     -0.2864
     53  CB        50.8530   22.1060   10.4270 C.3   163  TYR163      0.0560
     54  CG        51.4370   22.8090   11.6360 C.ar  163  TYR163     -0.0198
     55  CD1       52.8010   23.1050   11.7080 C.ar  163  TYR163     -0.0009
     56  CD2       50.6500   23.0980   12.7460 C.ar  163  TYR163     -0.0009
     57  CE1       53.3570   23.6880   12.8500 C.ar  163  TYR163      0.0417
     58  CE2       51.1960   23.6750   13.8940 C.ar  163  TYR163      0.0417
     59  CZ        52.5490   23.9730   13.9380 C.ar  163  TYR163      0.1957
     60  OH        53.0720   24.5320   15.0780 O.3   163  TYR163     -0.2866
     61  N         51.9910   16.4720   10.2590 N.3   165  LEU165     -0.1231
     62  CA        53.1960   15.7090   10.1040 C.3   165  LEU165      0.1693
     63  C         54.2650   16.1860   11.0910 C.2   165  LEU165      0.2591
     64  O         54.9400   15.3750   11.7070 O.2   165  LEU165     -0.2718
     65  CB        53.6670   15.9640    8.6930 C.3   165  LEU165      0.0284
     66  CG        53.9930   14.7890    7.8550 C.3   165  LEU165      0.0019
     67  CD1       52.9000   14.5520    6.8410 C.3   165  LEU165      0.0001
     68  CD2       55.2700   15.0610    7.1020 C.3   165  LEU165      0.0001
     69  N         54.3840   17.5070   11.2620 N.am  166  ALA166     -0.1980
     70  CA        55.3700   18.1360   12.1390 C.3   166  ALA166      0.1597
     71  C         55.0400   18.0160   13.6180 C.2   166  ALA166      0.2287
     72  O         55.9510   18.0320   14.4240 O.2   166  ALA166     -0.2864
     73  CB        55.5120   19.6050   11.7740 C.3   166  ALA166      0.0319
     74  N         47.2400   31.2770    1.8360 N.3   192  LEU192     -0.1245
     75  CA        48.4100   30.6660    1.2000 C.3   192  LEU192      0.1561
     76  C         49.4190   31.7540    0.8240 C.2   192  LEU192      0.2260
     77  O         50.6200   31.5530    1.0220 O.2   192  LEU192     -0.2867
     78  CB        47.9880   29.8690   -0.0590 C.3   192  LEU192      0.0270
     79  CG        47.1620   28.6000    0.1600 C.3   192  LEU192      0.0019
     80  CD1       46.2950   28.2900   -1.0500 C.3   192  LEU192      0.0001
     81  CD2       48.0500   27.4170    0.4250 C.3   192  LEU192      0.0001
     82  N         60.9690   20.3420   14.9760 N.3   209  TRP209     -0.1241
     83  CA        62.2020   21.1500   15.0650 C.3   209  TRP209      0.1605
     84  C         62.3290   21.8550   16.4360 C.2   209  TRP209      0.2264
     85  O         63.4370   21.9700   16.9460 O.2   209  TRP209     -0.2867
     86  CB        62.3430   22.1080   13.8730 C.3   209  TRP209      0.0550
     87  CG        61.1920   23.0600   13.7110 C.ar  209  TRP209      0.0003
     88  CD1       61.0770   24.3010   14.2560 C.ar  209  TRP209      0.0946
     89  CD2       60.0160   22.8610   12.9030 C.ar  209  TRP209      0.0152
     90  NE1       59.8810   24.8730   13.8810 N.ar  209  TRP209     -0.2442
     91  CE2       59.2190   24.0180   13.0340 C.ar  209  TRP209      0.0810
     92  CE3       59.5660   21.8210   12.0750 C.ar  209  TRP209      0.0012
     93  CZ2       58.0030   24.1740   12.3470 C.ar  209  TRP209      0.0191
     94  CZ3       58.3510   21.9580   11.4160 C.ar  209  TRP209      0.0001
     95  CH2       57.5860   23.1220   11.5490 C.ar  209  TRP209      0.0015
     96  N         62.9080   23.6320    8.0700 N.3   222  PHE222     -0.1227
     97  CA        61.8300   22.8360    7.4640 C.3   222  PHE222      0.1736
     98  C         61.1460   23.5900    6.3130 C.2   222  PHE222      0.2595
     99  O         60.9950   23.0320    5.2240 O.2   222  PHE222     -0.2718
    100  CB        60.8150   22.2950    8.4950 C.3   222  PHE222      0.0547
    101  CG        61.2170   21.0200    9.2070 C.ar  222  PHE222     -0.0202
    102  CD1       62.4370   20.9270    9.8670 C.ar  222  PHE222     -0.0042
    103  CD2       60.3340   19.9490    9.3040 C.ar  222  PHE222     -0.0042
    104  CE1       62.7800   19.7750   10.5760 C.ar  222  PHE222     -0.0003
    105  CE2       60.6680   18.8090   10.0380 C.ar  222  PHE222     -0.0003
    106  CZ        61.8960   18.7240   10.6580 C.ar  222  PHE222     -0.0000
    107  N         60.7770   24.8620    6.5420 N.am  223  PHE223     -0.1962
    108  CA        60.1450   25.6950    5.5290 C.3   223  PHE223      0.1771
    109  C         61.1860   26.3510    4.6440 C.2   223  PHE223      0.2619
    110  O         62.1280   26.9300    5.1580 O.2   223  PHE223     -0.2715
    111  CB        59.2090   26.7230    6.1650 C.3   223  PHE223      0.0574
    112  CG        57.9380   26.1130    6.7170 C.ar  223  PHE223     -0.0200
    113  CD1       56.8350   25.8940    5.8930 C.ar  223  PHE223     -0.0042
    114  CD2       57.8320   25.7800    8.0680 C.ar  223  PHE223     -0.0042
    115  CE1       55.6390   25.3750    6.4180 C.ar  223  PHE223     -0.0003
    116  CE2       56.6420   25.2460    8.5850 C.ar  223  PHE223     -0.0003
    117  CZ        55.5600   25.0330    7.7560 C.ar  223  PHE223     -0.0000
    118  N         61.0520   26.2000    3.3190 N.am  224  TRP224     -0.1974
    119  CA        61.9600   26.7820    2.3320 C.3   224  TRP224      0.1640
    120  C         61.2920   27.9040    1.5180 C.2   224  TRP224      0.2290
    121  O         60.1550   27.7470    1.0840 O.2   224  TRP224     -0.2864
    122  CB        62.4220   25.7110    1.3630 C.3   224  TRP224      0.0576
    123  CG        63.2850   24.6560    1.9710 C.ar  224  TRP224      0.0006
    124  CD1       62.8860   23.4300    2.4190 C.ar  224  TRP224      0.0946
    125  CD2       64.7160   24.6870    2.0940 C.ar  224  TRP224      0.0152
    126  NE1       63.9730   22.7080    2.8550 N.ar  224  TRP224     -0.2442
    127  CE2       65.1130   23.4530    2.6630 C.ar  224  TRP224      0.0810
    128  CE3       65.7020   25.6380    1.7860 C.ar  224  TRP224      0.0012
    129  CZ2       66.4590   23.1450    2.9220 C.ar  224  TRP224      0.0191
    130  CZ3       67.0330   25.3370    2.0590 C.ar  224  TRP224      0.0001
    131  CH2       67.3990   24.1070    2.6270 C.ar  224  TRP224      0.0015
    132  N         60.2940   29.9410   -1.6640 N.3   226  VAL226     -0.1245
    133  CA        59.9430   29.4710   -3.0090 C.3   226  VAL226      0.1561
    134  C         61.0520   29.7640   -4.0290 C.2   226  VAL226      0.2260
    135  O         61.2480   28.9800   -4.9520 O.2   226  VAL226     -0.2867
    136  CB        58.5620   30.0150   -3.4790 C.3   226  VAL226      0.0252
    137  CG1       58.0470   29.2440   -4.6970 C.3   226  VAL226      0.0019
    138  CG2       57.5340   29.9610   -2.3510 C.3   226  VAL226      0.0019
    139  N         64.6350   18.6320    6.4950 N.3   253  ALA253     -0.1231
    140  CA        63.4740   18.4990    5.6520 C.3   253  ALA253      0.1694
    141  C         63.6920   19.1770    4.3110 C.2   253  ALA253      0.2592
    142  O         64.2590   20.2700    4.2260 O.2   253  ALA253     -0.2718
    143  CB        62.2260   19.0230    6.3420 C.3   253  ALA253      0.0304
    144  N         63.2970   18.4710    3.2630 N.am  254  PHE254     -0.1962
    145  CA        63.2550   18.9480    1.8950 C.3   254  PHE254      0.1771
    146  C         61.7740   19.0530    1.5480 C.2   254  PHE254      0.2619
    147  O         60.9570   18.2240    1.9820 O.2   254  PHE254     -0.2715
    148  CB        63.9410   17.9680    0.9220 C.3   254  PHE254      0.0574
    149  CG        63.7410   18.3450   -0.5250 C.ar  254  PHE254     -0.0200
    150  CD1       64.5680   19.2830   -1.1400 C.ar  254  PHE254     -0.0042
    151  CD2       62.7190   17.7760   -1.2740 C.ar  254  PHE254     -0.0042
    152  CE1       64.3820   19.6210   -2.4890 C.ar  254  PHE254     -0.0003
    153  CE2       62.5320   18.1220   -2.6130 C.ar  254  PHE254     -0.0003
    154  CZ        63.3490   19.0560   -3.2030 C.ar  254  PHE254     -0.0000
    155  N         61.4390   20.0640    0.7570 N.am  255  TYR255     -0.1974
    156  CA        60.0950   20.2470    0.2570 C.3   255  TYR255      0.1639
    157  C         60.0800   20.4800   -1.2600 C.2   255  TYR255      0.2290
    158  O         60.8890   21.2450   -1.7650 O.2   255  TYR255     -0.2864
    159  CB        59.3830   21.3700    1.0100 C.3   255  TYR255      0.0560
    160  CG        58.0340   21.6920    0.4210 C.ar  255  TYR255     -0.0198
    161  CD1       56.9300   20.8730    0.6620 C.ar  255  TYR255     -0.0009
    162  CD2       57.8600   22.8010   -0.4080 C.ar  255  TYR255     -0.0009
    163  CE1       55.6890   21.1470    0.0860 C.ar  255  TYR255      0.0417
    164  CE2       56.6190   23.0970   -0.9720 C.ar  255  TYR255      0.0417
    165  CZ        55.5350   22.2710   -0.7200 C.ar  255  TYR255      0.1957
    166  OH        54.3180   22.5900   -1.2710 O.3   255  TYR255     -0.2866
    167  N         57.0800   21.3110   -4.3060 N.3   257  GLU257     -0.1245
    168  CA        55.7660   21.8360   -4.6930 C.3   257  GLU257      0.1567
    169  C         55.0540   20.9150   -5.6430 C.2   257  GLU257      0.2260
    170  O         53.8360   21.0070   -5.7970 O.2   257  GLU257     -0.2867
    171  CB        55.8790   23.2470   -5.3340 C.3   257  GLU257      0.0388
    172  CG        57.2850   23.7630   -5.6530 C.3   257  GLU257      0.1160
    173  CD        58.1320   24.1670   -4.4490 C.2   257  GLU257      0.3649
    174  OE1       59.0210   23.3710   -4.0790 O.co2 257  GLU257     -0.2457
    175  OE2       57.8860   25.2410   -3.8490 O.co2 257  GLU257     -0.2457
    176  N         51.4310   21.0160   -8.1060 N.3   261  PHE261     -0.1241
    177  CA        51.2440   22.1300   -9.0530 C.3   261  PHE261      0.1605
    178  C         50.7780   21.6420  -10.4520 C.2   261  PHE261      0.2264
    179  O         49.7750   22.1470  -10.9610 O.2   261  PHE261     -0.2867
    180  CB        52.5200   23.0240   -9.1230 C.3   261  PHE261      0.0534
    181  CG        52.8080   23.9870   -7.9760 C.ar  261  PHE261     -0.0203
    182  CD1       52.0060   24.0070   -6.8360 C.ar  261  PHE261     -0.0042
    183  CD2       53.8690   24.8810   -8.0480 C.ar  261  PHE261     -0.0042
    184  CE1       52.2710   24.8940   -5.7830 C.ar  261  PHE261     -0.0003
    185  CE2       54.1200   25.7860   -7.0030 C.ar  261  PHE261     -0.0003
    186  CZ        53.3180   25.7850   -5.8740 C.ar  261  PHE261     -0.0000
    187  N         59.2860    9.8180   14.2950 N.3   452  MET452     -0.1245
    188  CA        60.3550   10.7640   14.0390 C.3   452  MET452      0.1570
    189  C         61.1290   11.1150   15.2950 C.2   452  MET452      0.2261
    190  O         62.3520   11.1300   15.2380 O.2   452  MET452     -0.2867
    191  CB        59.8370   11.9690   13.2860 C.3   452  MET452      0.0387
    192  CG        59.4060   11.5590   11.9010 C.3   452  MET452      0.0595
    193  SD        59.0730   12.9290   10.8070 S.3   452  MET452     -0.1393
    194  CE        57.6910   13.7290   11.6860 C.3   452  MET452      0.0692
@<TRIPOS>BOND
     1   179   178    2
     2   178   177    1
     3   180   177    1
     4   180   181    1
     5   177   176    1
     6   183   181   ar
     7   183   185   ar
     8   181   182   ar
     9   185   186   ar
    10   182   184   ar
    11   186   184   ar
    12   170   169    2
    13   172   171    1
    14   172   173    1
    15   169   168    1
    16   171   168    1
    17   135   134    2
    18   137   136    1
    19   168   167    1
    20    18    17    2
    21   173   174   ar
    22   173   175   ar
    23   134   133    1
    24   136   133    1
    25   136   138    1
    26    17    16    1
    27   154   153   ar
    28   154   152   ar
    29   133   132    1
    30   153   151   ar
    31    19    16    1
    32    19    20    1
    33   152   150   ar
    34    15    16    1
    35    21    20   ar
    36    20    22   ar
    37   158   157    2
    38   151   149   ar
    39   166   165    1
    40   157   156    1
    41   150   149   ar
    42    80    79    1
    43   164   165   ar
    44   164   162   ar
    45   165   163   ar
    46   149   148    1
    47    12    11    2
    48   162   160   ar
    49    78    79    1
    50    78    75    1
    51    28    27    1
    52   163   161   ar
    53    11    10    1
    54    79    81    1
    55   156   155    1
    56   156   159    1
    57   160   161   ar
    58   160   159    1
    59   155   146   am
    60    76    77    2
    61    76    75    1
    62   148   145    1
    63   121   120    2
    64    75    74    1
    65    27    29    1
    66    27    24    1
    67   122   123    1
    68   122   119    1
    69   120   119    1
    70    10     9    1
    71    10    13    1
    72   146   145    1
    73   146   147    2
    74   128   130   ar
    75   128   125   ar
    76   145   144    1
    77   123   125   ar
    78   123   124   ar
    79    23    24    1
    80   130   131   ar
    81   125   127   ar
    82    24    25    1
    83   119   118    1
    84   124   126   ar
    85    14    13    1
    86   131   129   ar
    87   127   126   ar
    88   127   129   ar
    89    39    37   ar
    90    39    40   ar
    91   144   141   am
    92   118   109   am
    93    47    46    1
    94    37    35   ar
    95    25    30   am
    96    25    26    2
    97    40    38   ar
    98    30    31    1
    99     4     3    2
   100   142   141    2
   101    48    46    1
   102     3     2    1
   103   141   140    1
   104    46    45    1
   105   109   110    2
   106   109   108    1
   107    35    34    1
   108    35    36   ar
   109    38    36   ar
   110    99    98    2
   111    31    34    1
   112    31    32    1
   113   108   111    1
   114   108   107    1
   115   140   143    1
   116   140   139    1
   117     2     1    1
   118     2     5    1
   119    45    42    1
   120   113   115   ar
   121   113   112   ar
   122   111   112    1
   123     7     5    1
   124    98   107   am
   125    98    97    1
   126    41    42    1
   127   115   117   ar
   128    32    33    2
   129    42    43    1
   130   112   114   ar
   131     5     6    1
   132    67    66    1
   133    68    66    1
   134    97    96    1
   135    97   100    1
   136   117   116   ar
   137    66    65    1
   138   114   116   ar
   139     6     8    1
   140    43    49   am
   141    43    44    2
   142   100   101    1
   143    65    62    1
   144    49    50    1
   145   101   103   ar
   146   101   102   ar
   147   103   105   ar
   148   102   104   ar
   149   105   106   ar
   150    62    61    1
   151    62    63    1
   152    50    53    1
   153    50    51    1
   154    53    54    1
   155   104   106   ar
   156   193   194    1
   157   193   192    1
   158    51    52    2
   159    63    69   am
   160    63    64    2
   161    69    70    1
   162    94    95   ar
   163    94    92   ar
   164    95    93   ar
   165    54    55   ar
   166    54    56   ar
   167    55    57   ar
   168    73    70    1
   169   192   191    1
   170    92    89   ar
   171    70    71    1
   172    93    91   ar
   173    56    58   ar
   174    57    59   ar
   175    89    91   ar
   176    89    87   ar
   177    91    90   ar
   178   191   188    1
   179    71    72    2
   180    87    86    1
   181    87    88   ar
   182    86    83    1
   183    90    88   ar
   184    58    59   ar
   185    59    60    1
   186   188   187    1
   187   188   189    1
   188    82    83    1
   189    83    84    1
   190   190   189    2
   191    84    85    2
