@<TRIPOS>MOLECULE
tmp/5l0eB05.pdb
 244 238 0 0 0
SMALL
GASTEIGER

@<TRIPOS>ATOM
      1  N         64.2830   14.4720    6.2500 N.3   116  ILE116     -0.1245
      2  CA        62.8620   14.3970    5.8810 C.3   116  ILE116      0.1561
      3  C         62.7070   15.0230    4.4940 C.2   116  ILE116      0.2260
      4  O         62.8460   16.2290    4.3430 O.2   116  ILE116     -0.2867
      5  CB        61.9310   15.0730    6.9190 C.3   116  ILE116      0.0252
      6  CG1       62.1600   14.5020    8.3350 C.3   116  ILE116      0.0019
      7  CG2       60.4630   14.9420    6.4890 C.3   116  ILE116      0.0019
      8  CD1       62.0510   15.4960    9.4290 C.3   116  ILE116      0.0001
      9  N         60.2060   15.8340    1.9560 N.3   118  SER118     -0.1217
     10  CA        58.7680   15.9820    1.7050 C.3   118  SER118      0.1889
     11  C         58.4770   16.4690    0.2930 C.2   118  SER118      0.2288
     12  O         59.1690   17.3350   -0.2480 O.2   118  SER118     -0.2866
     13  CB        58.0680   16.8340    2.7680 C.3   118  SER118      0.2089
     14  OG        58.5360   18.1660    2.7780 O.3   118  SER118     -0.2183
     15  N         55.1420   17.5960   -2.1530 N.3   120  ASP120     -0.1239
     16  CA        53.7700   18.0760   -2.1240 C.3   120  ASP120      0.1674
     17  C         52.8920   17.3600   -3.1680 C.2   120  ASP120      0.2266
     18  O         53.3160   17.2090   -4.3150 O.2   120  ASP120     -0.2867
     19  CB        53.7450   19.5940   -2.3580 C.3   120  ASP120      0.1410
     20  CG        52.5760   20.2940   -1.6770 C.2   120  ASP120      0.3668
     21  OD1       51.4150   19.8800   -1.9020 O.co2 120  ASP120     -0.2456
     22  OD2       52.8200   21.2540   -0.9240 O.co2 120  ASP120     -0.2456
     23  N         44.7500   19.1780    2.7350 N.3   157  LYS157     -0.1231
     24  CA        45.4270   20.4140    2.3210 C.3   157  LYS157      0.1693
     25  C         46.8910   20.4080    2.8530 C.2   157  LYS157      0.2593
     26  O         47.1820   19.7410    3.8350 O.2   157  LYS157     -0.2718
     27  CB        44.6800   21.6450    2.9250 C.3   157  LYS157      0.0285
     28  CG        43.2000   21.8120    2.5490 C.3   157  LYS157      0.0035
     29  CD        43.0280   22.1100    1.0650 C.3   157  LYS157      0.0206
     30  CE        41.7780   22.8770    0.7690 C.3   157  LYS157      0.1093
     31  NZ        41.6520   23.0670   -0.6920 N.3   157  LYS157     -0.1314
     32  N         47.7670   21.2230    2.2550 N.am  158  THR158     -0.1939
     33  CA        49.1990   21.3650    2.5470 C.3   158  THR158      0.2028
     34  C         49.5450   21.7680    3.9810 C.2   158  THR158      0.2642
     35  O         50.2470   21.0140    4.6550 O.2   158  THR158     -0.2714
     36  CB        49.8090   22.3520    1.5450 C.3   158  THR158      0.1808
     37  OG1       49.5930   21.8410    0.2350 O.3   158  THR158     -0.2208
     38  CG2       51.3080   22.5970    1.7690 C.3   158  THR158      0.0379
     39  N         49.1540   22.9880    4.3930 N.am  159  PHE159     -0.1973
     40  CA        49.4520   23.5480    5.7090 C.3   159  PHE159      0.1639
     41  C         48.9350   22.6830    6.8660 C.2   159  PHE159      0.2290
     42  O         49.7580   22.3270    7.6960 O.2   159  PHE159     -0.2864
     43  CB        48.9940   25.0130    5.8450 C.3   159  PHE159      0.0560
     44  CG        49.9760   26.0000    5.2690 C.ar  159  PHE159     -0.0200
     45  CD1       51.0920   26.3910    5.9880 C.ar  159  PHE159     -0.0042
     46  CD2       49.7950   26.5240    3.9960 C.ar  159  PHE159     -0.0042
     47  CE1       52.0130   27.2840    5.4440 C.ar  159  PHE159     -0.0003
     48  CE2       50.7180   27.4160    3.4500 C.ar  159  PHE159     -0.0003
     49  CZ        51.8220   27.7900    4.1760 C.ar  159  PHE159     -0.0000
     50  N         51.3230   19.3130    6.6600 N.3   162  LEU162     -0.1245
     51  CA        52.7480   19.5140    6.9460 C.3   162  LEU162      0.1561
     52  C         52.9470   19.8440    8.4050 C.2   162  LEU162      0.2260
     53  O         53.9230   19.3810    9.0130 O.2   162  LEU162     -0.2867
     54  CB        53.3550   20.6050    6.0660 C.3   162  LEU162      0.0270
     55  CG        53.6730   20.1880    4.6200 C.3   162  LEU162      0.0019
     56  CD1       54.2670   21.3350    3.8500 C.3   162  LEU162      0.0001
     57  CD2       54.6970   19.0470    4.5500 C.3   162  LEU162      0.0001
     58  N         52.4430   16.6450   10.4560 N.3   165  LEU165     -0.1231
     59  CA        53.6600   15.8670   10.2860 C.3   165  LEU165      0.1693
     60  C         54.7470   16.3320   11.2730 C.2   165  LEU165      0.2591
     61  O         55.4600   15.5050   11.8450 O.2   165  LEU165     -0.2718
     62  CB        54.1420   16.1400    8.8670 C.3   165  LEU165      0.0284
     63  CG        54.4490   14.9680    8.0050 C.3   165  LEU165      0.0019
     64  CD1       53.3280   14.7380    7.0040 C.3   165  LEU165      0.0001
     65  CD2       55.7070   15.2320    7.2440 C.3   165  LEU165      0.0001
     66  N         54.8660   17.6650   11.4610 N.am  166  ALA166     -0.1980
     67  CA        55.8580   18.2720   12.3340 C.3   166  ALA166      0.1597
     68  C         55.5260   18.1390   13.8220 C.2   166  ALA166      0.2287
     69  O         56.4400   18.1190   14.6310 O.2   166  ALA166     -0.2864
     70  CB        56.0150   19.7400   11.9800 C.3   166  ALA166      0.0319
     71  N         44.0510   26.0010    4.7300 N.3   179  ASN179     -0.1240
     72  CA        45.0110   26.8230    4.0070 C.3   179  ASN179      0.1653
     73  C         44.6390   28.3060    4.1580 C.2   179  ASN179      0.2266
     74  O         45.5200   29.1640    4.1870 O.2   179  ASN179     -0.2867
     75  CB        45.1470   26.3800    2.5480 C.3   179  ASN179      0.1155
     76  CG        46.1590   25.2630    2.3400 C.2   179  ASN179      0.2627
     77  OD1       46.9650   24.9370    3.2220 O.2   179  ASN179     -0.2716
     78  ND2       46.1740   24.6670    1.1510 N.am  179  ASN179     -0.0877
     79  N         47.4500   31.6090    2.2770 N.3   192  LEU192     -0.1245
     80  CA        48.6300   31.0450    1.6190 C.3   192  LEU192      0.1561
     81  C         49.5790   32.1830    1.2100 C.2   192  LEU192      0.2260
     82  O         50.7940   32.0320    1.3280 O.2   192  LEU192     -0.2867
     83  CB        48.2190   30.2330    0.3720 C.3   192  LEU192      0.0270
     84  CG        47.4170   28.9500    0.6080 C.3   192  LEU192      0.0019
     85  CD1       46.5880   28.5950   -0.6130 C.3   192  LEU192      0.0001
     86  CD2       48.3190   27.8080    0.9230 C.3   192  LEU192      0.0001
     87  N         50.3530   34.8690    8.0440 N.3   197  LYS197     -0.1245
     88  CA        50.7760   33.4720    8.2520 C.3   197  LYS197      0.1561
     89  C         52.1210   33.3500    9.0310 C.2   197  LYS197      0.2260
     90  O         52.3260   32.3530    9.7260 O.2   197  LYS197     -0.2867
     91  CB        50.8260   32.6880    6.9220 C.3   197  LYS197      0.0271
     92  CG        51.9120   33.1150    5.9600 C.3   197  LYS197      0.0035
     93  CD        51.8670   32.3380    4.6850 C.3   197  LYS197      0.0206
     94  CE        53.0690   32.6610    3.8400 C.3   197  LYS197      0.1093
     95  NZ        53.1850   31.7490    2.6820 N.3   197  LYS197     -0.1314
     96  N         61.4810   20.4920   15.1900 N.3   209  TRP209     -0.1241
     97  CA        62.7020   21.3090   15.3050 C.3   209  TRP209      0.1605
     98  C         62.8130   22.0020   16.6830 C.2   209  TRP209      0.2264
     99  O         63.9290   22.1350   17.1960 O.2   209  TRP209     -0.2867
    100  CB        62.8620   22.2820   14.1340 C.3   209  TRP209      0.0550
    101  CG        61.7140   23.2170   13.9630 C.ar  209  TRP209      0.0003
    102  CD1       61.5820   24.4530   14.5130 C.ar  209  TRP209      0.0946
    103  CD2       60.5500   23.0110   13.1440 C.ar  209  TRP209      0.0152
    104  NE1       60.4070   25.0350   14.0960 N.ar  209  TRP209     -0.2442
    105  CE2       59.7540   24.1730   13.2490 C.ar  209  TRP209      0.0810
    106  CE3       60.1040   21.9550   12.3190 C.ar  209  TRP209      0.0012
    107  CZ2       58.5380   24.3180   12.5530 C.ar  209  TRP209      0.0191
    108  CZ3       58.8950   22.0880   11.6470 C.ar  209  TRP209      0.0001
    109  CH2       58.1240   23.2550   11.7720 C.ar  209  TRP209      0.0015
    110  N         63.4830   23.8040    8.2570 N.3   222  PHE222     -0.1227
    111  CA        62.4070   22.9980    7.6690 C.3   222  PHE222      0.1736
    112  C         61.7080   23.7400    6.5140 C.2   222  PHE222      0.2595
    113  O         61.5480   23.1730    5.4260 O.2   222  PHE222     -0.2718
    114  CB        61.4190   22.4760    8.7330 C.3   222  PHE222      0.0547
    115  CG        61.8290   21.2090    9.4470 C.ar  222  PHE222     -0.0202
    116  CD1       63.0520   21.1240   10.1050 C.ar  222  PHE222     -0.0042
    117  CD2       60.9580   20.1320    9.5420 C.ar  222  PHE222     -0.0042
    118  CE1       63.4180   19.9690   10.8030 C.ar  222  PHE222     -0.0003
    119  CE2       61.3140   18.9860   10.2650 C.ar  222  PHE222     -0.0003
    120  CZ        62.5490   18.9110   10.8820 C.ar  222  PHE222     -0.0000
    121  N         61.3220   25.0180    6.7470 N.am  223  PHE223     -0.1962
    122  CA        60.6720   25.8540    5.7340 C.3   223  PHE223      0.1771
    123  C         61.7240   26.5450    4.8670 C.2   223  PHE223      0.2619
    124  O         62.6350   27.1420    5.4090 O.2   223  PHE223     -0.2715
    125  CB        59.7180   26.8510    6.3940 C.3   223  PHE223      0.0574
    126  CG        58.4590   26.2010    6.9480 C.ar  223  PHE223     -0.0200
    127  CD1       57.3510   25.9790    6.1330 C.ar  223  PHE223     -0.0042
    128  CD2       58.3710   25.8250    8.2860 C.ar  223  PHE223     -0.0042
    129  CE1       56.1730   25.3760    6.6430 C.ar  223  PHE223     -0.0003
    130  CE2       57.1850   25.2400    8.7940 C.ar  223  PHE223     -0.0003
    131  CZ        56.0990   25.0060    7.9640 C.ar  223  PHE223     -0.0000
    132  N         61.6290   26.4000    3.5290 N.am  224  TRP224     -0.1974
    133  CA        62.5420   26.9750    2.5320 C.3   224  TRP224      0.1640
    134  C         61.8700   28.0710    1.7180 C.2   224  TRP224      0.2290
    135  O         60.7170   27.8950    1.3220 O.2   224  TRP224     -0.2864
    136  CB        63.0080   25.8930    1.5460 C.3   224  TRP224      0.0576
    137  CG        63.8810   24.8370    2.1380 C.ar  224  TRP224      0.0006
    138  CD1       63.4870   23.6210    2.6050 C.ar  224  TRP224      0.0946
    139  CD2       65.3120   24.8620    2.2390 C.ar  224  TRP224      0.0152
    140  NE1       64.5770   22.9030    3.0330 N.ar  224  TRP224     -0.2442
    141  CE2       65.7130   23.6410    2.8150 C.ar  224  TRP224      0.0810
    142  CE3       66.3000   25.8110    1.9130 C.ar  224  TRP224      0.0012
    143  CZ2       67.0620   23.3280    3.0450 C.ar  224  TRP224      0.0191
    144  CZ3       67.6350   25.5030    2.1510 C.ar  224  TRP224      0.0001
    145  CH2       68.0050   24.2730    2.6970 C.ar  224  TRP224      0.0015
    146  N         60.9260   30.0180   -1.5520 N.3   226  VAL226     -0.1245
    147  CA        60.5850   29.5350   -2.8930 C.3   226  VAL226      0.1561
    148  C         61.6720   29.8560   -3.9310 C.2   226  VAL226      0.2260
    149  O         61.9270   29.0340   -4.7970 O.2   226  VAL226     -0.2867
    150  CB        59.1780   30.0210   -3.3240 C.3   226  VAL226      0.0252
    151  CG1       58.6970   29.2810   -4.5690 C.3   226  VAL226      0.0019
    152  CG2       58.1770   29.8240   -2.1810 C.3   226  VAL226      0.0019
    153  N         65.3020   18.8360    6.6590 N.3   253  ALA253     -0.1231
    154  CA        64.1130   18.6860    5.8490 C.3   253  ALA253      0.1694
    155  C         64.2820   19.3660    4.4940 C.2   253  ALA253      0.2592
    156  O         64.7970   20.4750    4.4120 O.2   253  ALA253     -0.2718
    157  CB        62.8850   19.2040    6.5800 C.3   253  ALA253      0.0304
    158  N         63.8990   18.6590    3.4380 N.am  254  PHE254     -0.1962
    159  CA        63.8530   19.1350    2.0680 C.3   254  PHE254      0.1771
    160  C         62.3860   19.2310    1.7150 C.2   254  PHE254      0.2619
    161  O         61.5840   18.3860    2.1280 O.2   254  PHE254     -0.2715
    162  CB        64.5490   18.1560    1.0970 C.3   254  PHE254      0.0574
    163  CG        64.3640   18.5050   -0.3600 C.ar  254  PHE254     -0.0200
    164  CD1       65.2060   19.4180   -0.9870 C.ar  254  PHE254     -0.0042
    165  CD2       63.3180   17.9590   -1.0940 C.ar  254  PHE254     -0.0042
    166  CE1       65.0000   19.7800   -2.3210 C.ar  254  PHE254     -0.0003
    167  CE2       63.1130   18.3190   -2.4310 C.ar  254  PHE254     -0.0003
    168  CZ        63.9460   19.2380   -3.0320 C.ar  254  PHE254     -0.0000
    169  N         62.0380   20.2540    0.9410 N.am  255  TYR255     -0.1974
    170  CA        60.6780   20.4430    0.4680 C.3   255  TYR255      0.1639
    171  C         60.6510   20.7090   -1.0550 C.2   255  TYR255      0.2290
    172  O         61.4800   21.4510   -1.5810 O.2   255  TYR255     -0.2864
    173  CB        59.9460   21.5280    1.2780 C.3   255  TYR255      0.0560
    174  CG        58.5960   21.8820    0.7060 C.ar  255  TYR255     -0.0198
    175  CD1       57.4910   21.0590    0.9080 C.ar  255  TYR255     -0.0009
    176  CD2       58.4300   23.0180   -0.0900 C.ar  255  TYR255     -0.0009
    177  CE1       56.2490   21.3640    0.3410 C.ar  255  TYR255      0.0417
    178  CE2       57.2010   23.3230   -0.6770 C.ar  255  TYR255      0.0417
    179  CZ        56.1130   22.4960   -0.4590 C.ar  255  TYR255      0.1957
    180  OH        54.9170   22.8480   -1.0360 O.3   255  TYR255     -0.2866
    181  N         57.6690   21.5870   -4.0420 N.3   257  GLU257     -0.1245
    182  CA        56.3550   22.1120   -4.4430 C.3   257  GLU257      0.1567
    183  C         55.6450   21.1740   -5.4080 C.2   257  GLU257      0.2260
    184  O         54.4270   21.2640   -5.5720 O.2   257  GLU257     -0.2867
    185  CB        56.5490   23.4510   -5.1760 C.3   257  GLU257      0.0388
    186  CG        57.1850   24.5470   -4.3500 C.3   257  GLU257      0.1160
    187  CD        58.6750   24.4840   -4.0850 C.2   257  GLU257      0.3649
    188  OE1       59.3820   23.6710   -4.7260 O.co2 257  GLU257     -0.2457
    189  OE2       59.1260   25.2640   -3.2130 O.co2 257  GLU257     -0.2457
    190  N         52.6740   18.5330   -6.8730 N.3   260  ASP260     -0.1225
    191  CA        51.4320   19.2410   -6.6080 C.3   260  ASP260      0.1805
    192  C         51.0950   20.3030   -7.6450 C.2   260  ASP260      0.2597
    193  O         49.9990   20.2400   -8.2050 O.2   260  ASP260     -0.2718
    194  CB        51.4140   19.8210   -5.1820 C.3   260  ASP260      0.1424
    195  CG        50.1940   20.6610   -4.8710 C.2   260  ASP260      0.3668
    196  OD1       49.1070   20.0820   -4.6470 O.co2 260  ASP260     -0.2456
    197  OD2       50.3090   21.8850   -4.9110 O.co2 260  ASP260     -0.2456
    198  N         52.0130   21.2790   -7.8840 N.am  261  PHE261     -0.1976
    199  CA        51.8330   22.4140   -8.8200 C.3   261  PHE261      0.1639
    200  C         51.3730   21.9440  -10.2310 C.2   261  PHE261      0.2290
    201  O         50.3930   22.4720  -10.7660 O.2   261  PHE261     -0.2864
    202  CB        53.1080   23.2920   -8.8820 C.3   261  PHE261      0.0560
    203  CG        53.4060   24.2440   -7.7390 C.ar  261  PHE261     -0.0200
    204  CD1       52.6290   24.2450   -6.5830 C.ar  261  PHE261     -0.0042
    205  CD2       54.4730   25.1340   -7.8130 C.ar  261  PHE261     -0.0042
    206  CE1       52.9120   25.1290   -5.5260 C.ar  261  PHE261     -0.0003
    207  CE2       54.7310   26.0400   -6.7680 C.ar  261  PHE261     -0.0003
    208  CZ        53.9460   26.0320   -5.6360 C.ar  261  PHE261     -0.0000
    209  N         47.6290   20.0610  -10.1790 N.3   264  HIS264     -0.1241
    210  CA        46.4870   20.9780  -10.1680 C.3   264  HIS264      0.1621
    211  C         46.1110   21.3760  -11.6020 C.2   264  HIS264      0.2264
    212  O         44.9230   21.4480  -11.9210 O.2   264  HIS264     -0.2867
    213  CB        46.8370   22.2370   -9.3810 C.3   264  HIS264      0.0745
    214  CG        46.6650   22.1090   -7.9100 C.ar  264  HIS264      0.0817
    215  ND1       45.4170   22.2280   -7.3170 N.ar  264  HIS264     -0.2268
    216  CD2       47.6000   21.9670   -6.9470 C.ar  264  HIS264      0.1154
    217  CE1       45.6320   22.1400   -6.0150 C.ar  264  HIS264      0.1986
    218  NE2       46.9280   21.9690   -5.7430 N.ar  264  HIS264     -0.2212
    219  N         42.6320   18.7290   -8.0230 N.3   414  ASP414     -0.1225
    220  CA        42.5570   19.3710   -6.6970 C.3   414  ASP414      0.1805
    221  C         42.4910   18.3260   -5.5470 C.2   414  ASP414      0.2597
    222  O         42.3620   17.1220   -5.8000 O.2   414  ASP414     -0.2718
    223  CB        41.4030   20.3980   -6.6060 C.3   414  ASP414      0.1424
    224  CG        41.6260   21.5290   -5.6130 C.2   414  ASP414      0.3668
    225  OD1       42.6980   21.5550   -4.9680 O.co2 414  ASP414     -0.2456
    226  OD2       40.7100   22.3640   -5.4490 O.co2 414  ASP414     -0.2456
    227  N         42.5820   18.8040   -4.2920 N.am  415  HIS415     -0.1975
    228  CA        42.6120   18.0070   -3.0750 C.3   415  HIS415      0.1656
    229  C         41.9890   18.8030   -1.9220 C.2   415  HIS415      0.2291
    230  O         41.8630   20.0190   -2.0340 O.2   415  HIS415     -0.2864
    231  CB        44.0910   17.6420   -2.7710 C.3   415  HIS415      0.0771
    232  CG        45.0000   18.8450   -2.6340 C.ar  415  HIS415      0.0820
    233  ND1       45.1090   19.5570   -1.4260 N.ar  415  HIS415     -0.2267
    234  CD2       45.7870   19.4460   -3.5600 C.ar  415  HIS415      0.1154
    235  CE1       45.9530   20.5470   -1.6590 C.ar  415  HIS415      0.1986
    236  NE2       46.3890   20.5280   -2.9260 N.ar  415  HIS415     -0.2212
    237  N         59.9390    9.9480   14.4120 N.3   453  MET453     -0.1245
    238  CA        61.0210   10.8920   14.1790 C.3   453  MET453      0.1570
    239  C         61.7690   11.2370   15.4490 C.2   453  MET453      0.2261
    240  O         62.9890   11.2850   15.3990 O.2   453  MET453     -0.2867
    241  CB        60.5320   12.1080   13.4360 C.3   453  MET453      0.0387
    242  CG        60.0560   11.7480   12.0710 C.3   453  MET453      0.0595
    243  SD        59.7090   13.1950   11.0710 S.3   453  MET453     -0.1393
    244  CE        58.2360   13.8850   11.8700 C.3   453  MET453      0.0692
@<TRIPOS>BOND
     1   212   211    2
     2   211   210    1
     3   201   200    2
     4   200   199    1
     5   209   210    1
     6   210   213    1
     7   213   214    1
     8   202   199    1
     9   202   203    1
    10   199   198    1
    11   193   192    2
    12   219   220    1
    13   214   215   ar
    14   214   216   ar
    15   198   192   am
    16   205   203   ar
    17   205   207   ar
    18   203   204   ar
    19   192   191    1
    20   215   217   ar
    21   216   218   ar
    22   190   191    1
    23   207   208   ar
    24   220   223    1
    25   220   221    1
    26   191   194    1
    27   223   224    1
    28   204   206   ar
    29   217   218   ar
    30   222   221    2
    31   208   206   ar
    32   224   226   ar
    33   224   225   ar
    34   184   183    2
    35   221   227   am
    36   183   182    1
    37   194   195    1
    38   185   182    1
    39   185   186    1
    40   197   195   ar
    41   195   196   ar
    42   149   148    2
    43   188   187   ar
    44   151   150    1
    45   182   181    1
    46   186   187    1
    47    18    17    2
    48   227   228    1
    49   187   189   ar
    50   148   147    1
    51   234   236   ar
    52   234   232   ar
    53   150   147    1
    54   150   152    1
    55    17    16    1
    56   228   231    1
    57   228   229    1
    58   168   167   ar
    59   168   166   ar
    60   236   235   ar
    61   147   146    1
    62   231   232    1
    63   232   233   ar
    64   167   165   ar
    65    19    16    1
    66    19    20    1
    67   166   164   ar
    68    15    16    1
    69   230   229    2
    70    21    20   ar
    71    20    22   ar
    72   235   233   ar
    73   172   171    2
    74   165   163   ar
    75   171   170    1
    76   180   179    1
    77   164   163   ar
    78    31    30    1
    79   178   179   ar
    80   178   176   ar
    81    85    84    1
    82   179   177   ar
    83   163   162    1
    84    12    11    2
    85   176   174   ar
    86    37    36    1
    87    11    10    1
    88   177   175   ar
    89    83    84    1
    90    83    80    1
    91   170   169    1
    92   170   173    1
    93    84    86    1
    94   174   175   ar
    95   174   173    1
    96    30    29    1
    97   169   160   am
    98    29    28    1
    99   162   159    1
   100    78    76   am
   101    81    82    2
   102    81    80    1
   103   135   134    2
   104    36    38    1
   105    36    33    1
   106   136   137    1
   107   136   133    1
   108    80    79    1
   109    10     9    1
   110    10    13    1
   111   160   159    1
   112   160   161    2
   113   134   133    1
   114   142   144   ar
   115   142   139   ar
   116   159   158    1
   117   137   139   ar
   118   137   138   ar
   119   144   145   ar
   120   139   141   ar
   121    32    33    1
   122    32    25   am
   123    24    23    1
   124    24    25    1
   125    24    27    1
   126    76    75    1
   127    76    77    2
   128   133   132    1
   129    33    34    1
   130    75    72    1
   131    28    27    1
   132   138   140   ar
   133    95    94    1
   134   145   143   ar
   135    13    14    1
   136   141   140   ar
   137   141   143   ar
   138    25    26    2
   139   158   155   am
   140    48    46   ar
   141    48    49   ar
   142   132   123   am
   143    94    93    1
   144    56    55    1
   145    34    39   am
   146    34    35    2
   147    46    44   ar
   148    72    73    1
   149    72    71    1
   150    73    74    2
   151    49    47   ar
   152     4     3    2
   153    39    40    1
   154   156   155    2
   155   155   154    1
   156     3     2    1
   157    57    55    1
   158    55    54    1
   159    93    92    1
   160   123   124    2
   161   123   122    1
   162    44    43    1
   163    44    45   ar
   164   113   112    2
   165    47    45   ar
   166    40    43    1
   167    40    41    1
   168   122   125    1
   169   122   121    1
   170   154   157    1
   171   154   153    1
   172     2     1    1
   173     2     5    1
   174    92    91    1
   175    54    51    1
   176   127   129   ar
   177   127   126   ar
   178   125   126    1
   179     7     5    1
   180   112   121   am
   181   112   111    1
   182   129   131   ar
   183    50    51    1
   184    41    42    2
   185     5     6    1
   186    91    88    1
   187    51    52    1
   188   126   128   ar
   189    64    63    1
   190    65    63    1
   191   111   110    1
   192   111   114    1
   193   131   130   ar
   194    63    62    1
   195    87    88    1
   196    88    89    1
   197   128   130   ar
   198     6     8    1
   199    52    53    2
   200   114   115    1
   201    62    59    1
   202    89    90    2
   203   115   117   ar
   204   115   116   ar
   205   117   119   ar
   206   116   118   ar
   207   119   120   ar
   208    59    58    1
   209    59    60    1
   210   118   120   ar
   211   243   244    1
   212   243   242    1
   213    60    66   am
   214    60    61    2
   215    66    67    1
   216   108   109   ar
   217   108   106   ar
   218   109   107   ar
   219    70    67    1
   220   242   241    1
   221   106   103   ar
   222    67    68    1
   223   107   105   ar
   224   103   105   ar
   225   103   101   ar
   226   105   104   ar
   227   241   238    1
   228    68    69    2
   229   101   100    1
   230   101   102   ar
   231   104   102   ar
   232   100    97    1
   233   238   237    1
   234   238   239    1
   235    96    97    1
   236    97    98    1
   237   240   239    2
   238    98    99    2
