@<TRIPOS>MOLECULE
tmp/5l0hA00.pdb
 106 103 0 0 0
SMALL
GASTEIGER

@<TRIPOS>ATOM
      1  N         37.8090   27.1670   43.8750 N.3    13  SER13      -0.1217
      2  CA        37.5200   27.9330   42.6820 C.3    13  SER13       0.1889
      3  C         38.2740   29.2840   42.7280 C.2    13  SER13       0.2288
      4  O         38.9310   29.6480   41.7420 O.2    13  SER13      -0.2866
      5  CB        36.0110   28.1460   42.5480 C.3    13  SER13       0.2089
      6  OG        35.6540   28.9330   41.4170 O.3    13  SER13      -0.2183
      7  N         42.1120   28.7360   42.6320 N.3    16  TRP16      -0.1227
      8  CA        42.6000   28.3930   41.3050 C.3    16  TRP16       0.1737
      9  C         42.8810   29.6740   40.5350 C.2    16  TRP16       0.2595
     10  O         43.8800   29.7760   39.8230 O.2    16  TRP16      -0.2718
     11  CB        41.5750   27.5400   40.5570 C.3    16  TRP16       0.0564
     12  CG        41.9910   27.1870   39.1620 C.ar   16  TRP16       0.0003
     13  CD1       41.5120   27.7260   38.0030 C.ar   16  TRP16       0.0946
     14  CD2       42.9710   26.2160   38.7770 C.ar   16  TRP16       0.0152
     15  NE1       42.1340   27.1510   36.9210 N.ar   16  TRP16      -0.2442
     16  CE2       43.0340   26.2210   37.3700 C.ar   16  TRP16       0.0810
     17  CE3       43.8020   25.3430   39.4860 C.ar   16  TRP16       0.0012
     18  CZ2       43.8940   25.3870   36.6580 C.ar   16  TRP16       0.0191
     19  CZ3       44.6550   24.5160   38.7780 C.ar   16  TRP16       0.0001
     20  CH2       44.6940   24.5440   37.3780 C.ar   16  TRP16       0.0015
     21  N         41.9980   30.6550   40.6880 N.am   17  GLU17      -0.1979
     22  CA        42.1710   31.9230   40.0300 C.3    17  GLU17       0.1602
     23  C         43.2610   32.7980   40.6030 C.2    17  GLU17       0.2287
     24  O         44.0910   33.2940   39.8930 O.2    17  GLU17      -0.2864
     25  CB        40.8700   32.6820   40.0970 C.3    17  GLU17       0.0415
     26  CG        40.7980   33.8460   39.1460 C.3    17  GLU17       0.1163
     27  CD        40.7610   33.4060   37.7170 C.2    17  GLU17       0.3649
     28  OE1       40.1550   32.3710   37.4180 O.co2  17  GLU17      -0.2457
     29  OE2       41.3490   34.1060   36.8940 O.co2  17  GLU17      -0.2457
     30  N         46.9930   32.0500   39.8520 N.3    20  LYS20      -0.1231
     31  CA        47.4710   32.2860   38.4970 C.3    20  LYS20       0.1693
     32  C         48.5460   33.3750   38.5690 C.2    20  LYS20       0.2592
     33  O         49.3810   33.4490   37.6630 O.2    20  LYS20      -0.2718
     34  CB        46.3370   32.7770   37.5850 C.3    20  LYS20       0.0285
     35  CG        45.4460   31.6550   37.1010 C.3    20  LYS20       0.0035
     36  CD        44.1730   32.1940   36.4530 C.3    20  LYS20       0.0206
     37  CE        43.4050   31.0820   35.8150 C.3    20  LYS20       0.1093
     38  NZ        42.3430   31.6740   34.9990 N.3    20  LYS20      -0.1314
     39  N         48.5280   34.2140   39.6340 N.am   21  TRP21      -0.1976
     40  CA        49.4560   35.3240   39.7640 C.3    21  TRP21       0.1640
     41  C         50.2240   35.3390   41.0650 C.2    21  TRP21       0.2290
     42  O         49.8040   34.7520   42.0670 O.2    21  TRP21      -0.2864
     43  CB        48.7210   36.6630   39.5950 C.3    21  TRP21       0.0576
     44  CG        48.1580   36.9220   38.2230 C.ar   21  TRP21       0.0006
     45  CD1       48.8100   37.4420   37.1330 C.ar   21  TRP21       0.0946
     46  CD2       46.8070   36.7210   37.8200 C.ar   21  TRP21       0.0152
     47  NE1       47.9360   37.5670   36.0690 N.ar   21  TRP21      -0.2442
     48  CE2       46.6980   37.1430   36.4690 C.ar   21  TRP21       0.0810
     49  CE3       45.6670   36.2490   38.4780 C.ar   21  TRP21       0.0012
     50  CZ2       45.5040   37.0830   35.7680 C.ar   21  TRP21       0.0191
     51  CZ3       44.4790   36.1950   37.7770 C.ar   21  TRP21       0.0001
     52  CH2       44.4010   36.6190   36.4420 C.ar   21  TRP21       0.0015
     53  N         32.8010   33.8510   44.0390 N.3   141  GLN141     -0.1245
     54  CA        32.5930   34.2840   42.6600 C.3   141  GLN141      0.1566
     55  C         32.8490   35.7880   42.4420 C.2   141  GLN141      0.2260
     56  O         33.4330   36.1720   41.4290 O.2   141  GLN141     -0.2867
     57  CB        31.1800   33.9220   42.1950 C.3   141  GLN141      0.0367
     58  CG        30.9110   34.2270   40.7310 C.3   141  GLN141      0.0905
     59  CD        31.7780   33.4060   39.7960 C.2   141  GLN141      0.2608
     60  OE1       31.7270   32.1760   39.8030 O.2   141  GLN141     -0.2717
     61  NE2       32.5810   34.0850   38.9850 N.am  141  GLN141     -0.0878
     62  N         36.7110   36.4620   42.5960 N.3   144  LYS144     -0.1245
     63  CA        37.3020   35.8610   41.3990 C.3   144  LYS144      0.1561
     64  C         37.0860   36.8020   40.1930 C.2   144  LYS144      0.2260
     65  O         38.0370   37.1300   39.4870 O.2   144  LYS144     -0.2867
     66  CB        36.6680   34.4750   41.1670 C.3   144  LYS144      0.0271
     67  CG        37.2020   33.6680   40.0080 C.3   144  LYS144      0.0035
     68  CD        36.5760   32.2720   39.9950 C.3   144  LYS144      0.0206
     69  CE        37.0940   31.4470   38.8460 C.3   144  LYS144      0.1093
     70  NZ        36.4830   30.0930   38.7900 N.3   144  LYS144     -0.1314
     71  N         40.0160   38.9360   38.0310 N.3   148  ARG148     -0.1245
     72  CA        40.0450   38.8980   36.5750 C.3   148  ARG148      0.1563
     73  C         39.9390   40.3300   35.9720 C.2   148  ARG148      0.2260
     74  O         40.8090   40.7470   35.2000 O.2   148  ARG148     -0.2867
     75  CB        38.9140   38.0000   36.1160 C.3   148  ARG148      0.0307
     76  CG        38.8580   37.7430   34.6570 C.3   148  ARG148      0.0489
     77  CD        37.9670   36.5610   34.4620 C.3   148  ARG148      0.2205
     78  NE        38.6400   35.2930   34.7340 N.pl3 148  ARG148     -0.0865
     79  CZ        37.9980   34.1360   34.8470 C.cat 148  ARG148      0.5346
     80  NH1       36.6720   34.0920   34.7670 N.pl3 148  ARG148      0.1354
     81  NH2       38.6730   33.0160   35.0570 N.pl3 148  ARG148      0.1354
     82  N         52.3280   36.2390   35.8390 N.3   169  ARG169     -0.1245
     83  CA        51.7420   34.9100   35.8410 C.3   169  ARG169      0.1563
     84  C         52.7630   33.8180   36.1540 C.2   169  ARG169      0.2260
     85  O         53.7760   33.6730   35.4690 O.2   169  ARG169     -0.2867
     86  CB        51.0640   34.6220   34.4990 C.3   169  ARG169      0.0307
     87  CG        49.8120   35.4470   34.2470 C.3   169  ARG169      0.0489
     88  CD        49.2340   35.1650   32.8700 C.3   169  ARG169      0.2205
     89  NE        48.7800   33.7840   32.7400 N.pl3 169  ARG169     -0.0865
     90  CZ        47.5900   33.3470   33.1380 C.cat 169  ARG169      0.5346
     91  NH1       46.7260   34.1860   33.6950 N.pl3 169  ARG169      0.1354
     92  NH2       47.2620   32.0720   32.9800 N.pl3 169  ARG169      0.1354
     93  N         52.0840   30.4810   36.0670 N.3   171  THR171     -0.1204
     94  CA        51.8360   29.2200   35.3760 C.3   171  THR171      0.1979
     95  C         53.0460   28.8010   34.5440 C.2   171  THR171      0.2459
     96  O         53.3910   27.6140   34.5170 O.2   171  THR171     -0.2732
     97  CB        50.6010   29.3130   34.4600 C.3   171  THR171      0.1783
     98  OG1       50.8120   30.3270   33.4700 O.3   171  THR171     -0.2211
     99  CG2       49.3600   29.6520   35.2710 C.3   171  THR171      0.0376
    100  N         53.7080   29.8110   33.8560 N.am  172  PRO172     -0.2728
    101  CA        54.8790   29.3470   33.0920 C.3   172  PRO172      0.1401
    102  C         56.1190   29.2870   33.9840 C.2   172  PRO172      0.2269
    103  O         56.4030   30.2540   34.6910 O.2   172  PRO172     -0.2865
    104  CB        55.0460   30.4220   32.0240 C.3   172  PRO172      0.0296
    105  CG        53.6680   30.9200   31.8220 C.3   172  PRO172      0.0237
    106  CD        53.0450   30.9160   33.1900 C.3   172  PRO172      0.0939
@<TRIPOS>BOND
     1   105   104    1
     2   105   106    1
     3   104   101    1
     4    89    88    1
     5    89    90    2
     6    88    87    1
     7    92    90    1
     8   101   100    1
     9   101   102    1
    10    90    91    1
    11   106   100    1
    12    98    97    1
    13   100    95   am
    14   102   103    2
    15    87    86    1
    16    97    99    1
    17    97    94    1
    18    77    76    1
    19    77    78    1
    20    86    83    1
    21    96    95    2
    22    95    94    1
    23    76    75    1
    24    78    79    2
    25    80    79    1
    26    79    81    1
    27    38    37    1
    28    74    73    2
    29    94    93    1
    30    85    84    2
    31    50    52   ar
    32    50    48   ar
    33    37    36    1
    34    82    83    1
    35    83    84    1
    36    73    72    1
    37    47    48   ar
    38    47    45   ar
    39    75    72    1
    40    52    51   ar
    41    36    35    1
    42    48    46   ar
    43    72    71    1
    44    18    16   ar
    45    18    20   ar
    46    29    27   ar
    47    15    16   ar
    48    15    13   ar
    49    35    34    1
    50    45    44   ar
    51    16    14   ar
    52    20    19   ar
    53    28    27   ar
    54    34    31    1
    55    33    32    2
    56    27    26    1
    57    51    49   ar
    58    46    44   ar
    59    46    49   ar
    60    13    12   ar
    61    44    43    1
    62    31    32    1
    63    31    30    1
    64    32    39   am
    65    14    12   ar
    66    14    17   ar
    67    19    17   ar
    68    70    69    1
    69    69    68    1
    70    61    59   am
    71    26    25    1
    72    12    11    1
    73    65    64    2
    74    43    40    1
    75    39    40    1
    76    40    41    1
    77    59    60    2
    78    59    58    1
    79    10     9    2
    80    24    23    2
    81    68    67    1
    82    67    66    1
    83    22    25    1
    84    22    23    1
    85    22    21    1
    86    64    63    1
    87     9    21   am
    88     9     8    1
    89    11     8    1
    90    58    57    1
    91    41    42    2
    92    66    63    1
    93     8     7    1
    94    63    62    1
    95     6     5    1
    96    56    55    2
    97     4     3    2
    98    57    54    1
    99    55    54    1
   100     5     2    1
   101    54    53    1
   102     2     3    1
   103     2     1    1
