@<TRIPOS>MOLECULE
tmp/5l0kA03.pdb
 95 93 0 0 0
SMALL
GASTEIGER

@<TRIPOS>ATOM
      1  N        -41.4660    7.6670    3.7780 N.3    91  TRP91      -0.1241
      2  CA       -42.2460    8.7070    3.1070 C.3    91  TRP91       0.1605
      3  C        -43.1680    8.1240    2.0290 C.2    91  TRP91       0.2264
      4  O        -44.3020    8.5750    1.8790 O.2    91  TRP91      -0.2867
      5  CB       -41.3110    9.7680    2.5140 C.3    91  TRP91       0.0550
      6  CG       -41.9980   10.8120    1.6960 C.ar   91  TRP91       0.0003
      7  CD1      -42.5620   11.9700    2.1430 C.ar   91  TRP91       0.0946
      8  CD2      -42.1780   10.7960    0.2780 C.ar   91  TRP91       0.0152
      9  NE1      -43.0870   12.6780    1.0890 N.ar   91  TRP91      -0.2442
     10  CE2      -42.8630   11.9790   -0.0690 C.ar   91  TRP91       0.0810
     11  CE3      -41.8240    9.8940   -0.7340 C.ar   91  TRP91       0.0012
     12  CZ2      -43.2080   12.2840   -1.3910 C.ar   91  TRP91       0.0191
     13  CZ3      -42.1630   10.1970   -2.0470 C.ar   91  TRP91       0.0001
     14  CH2      -42.8510   11.3840   -2.3630 C.ar   91  TRP91       0.0015
     15  N        -46.5470    6.8220    3.4230 N.3    94  ASP94      -0.1225
     16  CA       -47.5130    7.8390    3.8520 C.3    94  ASP94       0.1805
     17  C        -48.4690    8.1740    2.7130 C.2    94  ASP94       0.2598
     18  O        -48.0370    8.3200    1.5660 O.2    94  ASP94      -0.2718
     19  CB       -46.8030    9.1310    4.2810 C.3    94  ASP94       0.1424
     20  CG       -45.9680    8.9670    5.5400 C.2    94  ASP94       0.3668
     21  OD1      -46.1680    7.9890    6.2910 O.co2  94  ASP94      -0.2456
     22  OD2      -45.1110    9.8410    5.7850 O.co2  94  ASP94      -0.2456
     23  N        -49.7600    8.2980    3.0330 N.am   95  ASP95      -0.1960
     24  CA       -50.7550    8.7840    2.0720 C.3    95  ASP95       0.1840
     25  C        -50.5280   10.2730    1.8280 C.2    95  ASP95       0.2622
     26  O        -50.0860   10.9970    2.7260 O.2    95  ASP95      -0.2715
     27  CB       -52.1920    8.5540    2.5680 C.3    95  ASP95       0.1450
     28  CG       -52.6420    7.1030    2.4440 C.2    95  ASP95       0.3671
     29  OD1      -52.4620    6.4970    1.3630 O.co2  95  ASP95      -0.2456
     30  OD2      -53.2040    6.5730    3.4270 O.co2  95  ASP95      -0.2456
     31  N        -50.8350   10.7170    0.6110 N.am   96  CYS96      -0.1954
     32  CA       -50.6130   12.1060    0.2080 C.3    96  CYS96       0.1843
     33  C        -51.6020   13.0550    0.8730 C.2    96  CYS96       0.2625
     34  O        -52.7730   12.7190    1.0510 O.2    96  CYS96      -0.2714
     35  CB       -50.7030   12.2480   -1.3090 C.3    96  CYS96       0.0997
     36  SG       -49.3920   11.3690   -2.1420 S.3    96  CYS96      -0.0797
     37  N        -51.1040   14.2320    1.2450 N.am   97  GLU97      -0.1977
     38  CA       -51.9160   15.2940    1.8300 C.3    97  GLU97       0.1602
     39  C        -51.4460   16.6250    1.2490 C.2    97  GLU97       0.2287
     40  O        -50.2420   16.8480    1.1090 O.2    97  GLU97      -0.2864
     41  CB       -51.7830   15.2740    3.3540 C.3    97  GLU97       0.0415
     42  CG       -52.9160   15.9820    4.0950 C.3    97  GLU97       0.1163
     43  CD       -52.9380   15.6610    5.5840 C.2    97  GLU97       0.3649
     44  OE1      -52.9940   14.4630    5.9390 O.co2  97  GLU97      -0.2457
     45  OE2      -52.9090   16.6110    6.3980 O.co2  97  GLU97      -0.2457
     46  N        -50.1730   20.2290    0.3870 N.3    99  ILE99      -0.1245
     47  CA       -49.2730   21.2090    0.9930 C.3    99  ILE99       0.1561
     48  C        -49.7170   22.5960    0.5270 C.2    99  ILE99       0.2260
     49  O        -49.2670   23.0910   -0.5130 O.2    99  ILE99      -0.2867
     50  CB       -47.7910   20.9620    0.5980 C.3    99  ILE99       0.0252
     51  CG1      -47.3540   19.5320    0.9280 C.3    99  ILE99       0.0019
     52  CG2      -46.8810   21.9400    1.3200 C.3    99  ILE99       0.0019
     53  CD1      -46.0050   19.1640    0.3510 C.3    99  ILE99       0.0001
     54  N        -45.0740    8.5550   -6.3350 N.3   138  LYS138     -0.1245
     55  CA       -45.7510    9.4230   -5.3570 C.3   138  LYS138      0.1561
     56  C        -45.5270   10.9130   -5.6580 C.2   138  LYS138      0.2260
     57  O        -46.4630   11.7050   -5.5470 O.2   138  LYS138     -0.2867
     58  CB       -45.3260    9.1060   -3.9150 C.3   138  LYS138      0.0271
     59  CG       -46.2060    9.7920   -2.8580 C.3   138  LYS138      0.0035
     60  CD       -45.7670    9.4980   -1.4280 C.3   138  LYS138      0.0206
     61  CE       -46.4640   10.4250   -0.4360 C.3   138  LYS138      0.1093
     62  NZ       -45.8160   10.4580    0.9020 N.3   138  LYS138     -0.1314
     63  N        -39.9170   17.6330    4.6110 N.3   296  HIS296     -0.1226
     64  CA       -40.7210   16.9410    3.5770 C.3   296  HIS296      0.1752
     65  C        -41.9950   17.6870    3.1550 C.2   296  HIS296      0.2595
     66  O        -42.5620   17.3810    2.1030 O.2   296  HIS296     -0.2718
     67  CB       -41.0730   15.5080    4.0060 C.3   296  HIS296      0.0759
     68  CG       -42.0610   15.4220    5.1330 C.ar  296  HIS296      0.0818
     69  ND1      -41.8330   15.9780    6.3730 N.ar  296  HIS296     -0.2268
     70  CD2      -43.2680   14.8150    5.2120 C.ar  296  HIS296      0.1154
     71  CE1      -42.8610   15.7290    7.1630 C.ar  296  HIS296      0.1986
     72  NE2      -43.7460   15.0260    6.4820 N.ar  296  HIS296     -0.2212
     73  N        -42.4430   18.6300    3.9870 N.am  297  ARG297     -0.1980
     74  CA       -43.5640   19.5290    3.6790 C.3   297  ARG297      0.1597
     75  C        -43.0840   20.9770    3.4300 C.2   297  ARG297      0.2287
     76  O        -43.9070   21.8850    3.2920 O.2   297  ARG297     -0.2864
     77  CB       -44.5620   19.5350    4.8420 C.3   297  ARG297      0.0334
     78  CG       -44.9430   18.1680    5.4240 C.3   297  ARG297      0.0492
     79  CD       -46.0410   17.5000    4.6370 C.3   297  ARG297      0.2205
     80  NE       -47.3200   18.1970    4.7750 N.pl3 297  ARG297     -0.0865
     81  CZ       -48.4080   17.9510    4.0430 C.cat 297  ARG297      0.5346
     82  NH1      -49.5150   18.6600    4.2500 N.pl3 297  ARG297      0.1354
     83  NH2      -48.4000   17.0120    3.0970 N.pl3 297  ARG297      0.1354
     84  N        -42.9410   18.8790   -7.1160 N.3   428  TYR428     -0.1241
     85  CA       -43.6270   18.4580   -5.8840 C.3   428  TYR428      0.1605
     86  C        -43.2560   19.4170   -4.7610 C.2   428  TYR428      0.2264
     87  O        -42.0710   19.6420   -4.5250 O.2   428  TYR428     -0.2867
     88  CB       -43.2190   17.0280   -5.5100 C.3   428  TYR428      0.0534
     89  CG       -43.9020   16.4740   -4.2740 C.ar  428  TYR428     -0.0201
     90  CD1      -45.1140   15.7890   -4.3680 C.ar  428  TYR428     -0.0009
     91  CD2      -43.3310   16.6270   -3.0070 C.ar  428  TYR428     -0.0009
     92  CE1      -45.7440   15.2750   -3.2320 C.ar  428  TYR428      0.0417
     93  CE2      -43.9520   16.1210   -1.8660 C.ar  428  TYR428      0.0417
     94  CZ       -45.1570   15.4470   -1.9840 C.ar  428  TYR428      0.1957
     95  OH       -45.7640   14.9450   -0.8560 O.3   428  TYR428     -0.2866
@<TRIPOS>BOND
     1    84    85    1
     2    54    55    1
     3    85    88    1
     4    85    86    1
     5    56    57    2
     6    56    55    1
     7    88    89    1
     8    55    58    1
     9    86    87    2
    10    90    89   ar
    11    90    92   ar
    12    89    91   ar
    13    58    59    1
    14    92    94   ar
    15    91    93   ar
    16    59    60    1
    17    14    13   ar
    18    14    12   ar
    19    36    35    1
    20    13    11   ar
    21    94    93   ar
    22    94    95    1
    23    60    61    1
    24    12    10   ar
    25    35    32    1
    26    11     8   ar
    27    49    48    2
    28    61    62    1
    29    10     8   ar
    30    10     9   ar
    31    32    31    1
    32    32    33    1
    33     8     6   ar
    34    53    51    1
    35    46    47    1
    36    48    47    1
    37    50    51    1
    38    50    47    1
    39    50    52    1
    40    31    25   am
    41    33    34    2
    42    33    37   am
    43     9     7   ar
    44    40    39    2
    45    37    38    1
    46    39    38    1
    47    29    28   ar
    48    18    17    2
    49     6     7   ar
    50     6     5    1
    51    25    24    1
    52    25    26    2
    53    38    41    1
    54     4     3    2
    55     3     2    1
    56    24    27    1
    57    24    23    1
    58    66    65    2
    59    28    27    1
    60    28    30   ar
    61     5     2    1
    62    17    23   am
    63    17    16    1
    64    83    81    1
    65     2     1    1
    66    65    64    1
    67    65    73   am
    68    76    75    2
    69    41    42    1
    70    15    16    1
    71    75    74    1
    72    64    67    1
    73    64    63    1
    74    74    73    1
    75    74    77    1
    76    16    19    1
    77    67    68    1
    78    81    82    1
    79    81    80    2
    80    42    43    1
    81    19    20    1
    82    79    80    1
    83    79    78    1
    84    77    78    1
    85    68    70   ar
    86    68    69   ar
    87    70    72   ar
    88    20    22   ar
    89    20    21   ar
    90    43    44   ar
    91    43    45   ar
    92    69    71   ar
    93    72    71   ar
