@<TRIPOS>MOLECULE
tmp/5l0zA00.pdb
 148 143 0 0 0
SMALL
GASTEIGER

@<TRIPOS>ATOM
      1  N         36.3320   29.1870   20.8410 N.3   187  THR187     -0.1203
      2  CA        35.0680   29.0910   21.5330 C.3   187  THR187      0.1994
      3  C         34.2270   27.9960   20.9120 C.2   187  THR187      0.2618
      4  O         34.1360   27.8800   19.7050 O.2   187  THR187     -0.2717
      5  CB        34.3550   30.4340   21.5270 C.3   187  THR187      0.1784
      6  OG1       34.1400   30.8410   20.1800 O.3   187  THR187     -0.2211
      7  CG2       35.2150   31.4850   22.2400 C.3   187  THR187      0.0376
      8  N         33.6630   27.1610   21.7680 N.am  188  HIS188     -0.1961
      9  CA        32.7860   26.0820   21.3480 C.3   188  HIS188      0.1787
     10  C         31.6460   25.9580   22.3560 C.2   188  HIS188      0.2620
     11  O         31.8140   26.2420   23.5360 O.2   188  HIS188     -0.2715
     12  CB        33.5670   24.7590   21.2720 C.3   188  HIS188      0.0785
     13  CG        33.1080   23.8480   20.1730 C.ar  188  HIS188      0.0821
     14  ND1       31.7760   23.5880   19.9080 N.ar  188  HIS188     -0.2267
     15  CD2       33.8150   23.1520   19.2510 C.ar  188  HIS188      0.1154
     16  CE1       31.6840   22.7700   18.8770 C.ar  188  HIS188      0.1986
     17  NE2       32.9060   22.4910   18.4580 N.ar  188  HIS188     -0.2212
     18  N         30.4780   25.5580   21.8880 N.am  189  LEU189     -0.1977
     19  CA        29.4150   25.1680   22.8030 C.3   189  LEU189      0.1596
     20  C         29.6870   23.8730   23.5690 C.2   189  LEU189      0.2287
     21  O         29.0200   23.6170   24.5810 O.2   189  LEU189     -0.2864
     22  CB        28.0820   25.1420   22.0670 C.3   189  LEU189      0.0297
     23  CG        27.7490   26.6100   21.7590 C.3   189  LEU189      0.0022
     24  CD1       27.4050   26.8060   20.2980 C.3   189  LEU189      0.0001
     25  CD2       26.6740   27.1160   22.7030 C.3   189  LEU189      0.0001
     26  N         33.4190   30.8090   16.0200 N.3   209  GLY209     -0.1210
     27  CA        32.8930   29.9270   14.9860 C.3   209  GLY209      0.1956
     28  C         31.7570   30.4640   14.1100 C.2   209  GLY209      0.2612
     29  O         31.0970   31.4440   14.4240 O.2   209  GLY209     -0.2717
     30  N         31.5650   29.7810   12.9870 N.am  210  ASN210     -0.1960
     31  CA        30.4980   30.0280   12.0050 C.3   210  ASN210      0.1819
     32  C         29.1380   30.0430   12.6750 C.2   210  ASN210      0.2621
     33  O         28.9440   29.3480   13.6610 O.2   210  ASN210     -0.2715
     34  CB        30.5630   28.8790   10.9830 C.3   210  ASN210      0.1195
     35  CG        29.4710   28.9470    9.9690 C.2   210  ASN210      0.2630
     36  OD1       28.4550   28.2590   10.0920 O.2   210  ASN210     -0.2716
     37  ND2       29.6600   29.7960    8.9600 N.am  210  ASN210     -0.0877
     38  N         28.1910   30.8000   12.1380 N.am  211  GLU211     -0.1963
     39  CA        26.8590   30.9070   12.7680 C.3   211  GLU211      0.1733
     40  C         26.0520   29.5970   12.7850 C.2   211  GLU211      0.2616
     41  O         25.5260   29.2130   13.8180 O.2   211  GLU211     -0.2715
     42  CB        25.9980   32.0060   12.1280 C.3   211  GLU211      0.0429
     43  CG        26.5150   33.4300   12.3050 C.3   211  GLU211      0.1163
     44  CD        27.3610   33.8840   11.1480 C.2   211  GLU211      0.3649
     45  OE1       28.2210   33.0710   10.7240 O.co2 211  GLU211     -0.2457
     46  OE2       27.1700   35.0250   10.6600 O.co2 211  GLU211     -0.2457
     47  N         25.9340   28.9180   11.6480 N.am  212  GLN212     -0.1963
     48  CA        25.1890   27.6440   11.5850 C.3   212  GLN212      0.1733
     49  C         25.9810   26.4800   12.2450 C.2   212  GLN212      0.2616
     50  O         25.4120   25.6640   12.9550 O.2   212  GLN212     -0.2715
     51  CB        24.7510   27.3290   10.1300 C.3   212  GLN212      0.0408
     52  CG        25.8030   26.6630    9.2140 C.3   212  GLN212      0.0908
     53  CD        25.9400   27.3040    7.8110 C.2   212  GLN212      0.2608
     54  OE1       26.9240   28.0230    7.5140 O.2   212  GLN212     -0.2717
     55  NE2       24.9580   27.0340    6.9420 N.am  212  GLN212     -0.0878
     56  N         27.3030   26.4710   12.0650 N.am  213  ALA213     -0.1963
     57  CA        28.1190   25.2820   12.2490 C.3   213  ALA213      0.1728
     58  C         29.0670   25.2950   13.4310 C.2   213  ALA213      0.2617
     59  O         29.3880   24.2440   13.9640 O.2   213  ALA213     -0.2715
     60  CB        28.9170   25.0600   10.9830 C.3   213  ALA213      0.0334
     61  N         29.5550   26.4510   13.8470 N.am  214  GLY214     -0.1940
     62  CA        30.5820   26.4840   14.9080 C.3   214  GLY214      0.2014
     63  C         31.9560   26.1640   14.3540 C.2   214  GLY214      0.2638
     64  O         32.1190   26.0780   13.1460 O.2   214  GLY214     -0.2714
     65  N         32.9550   26.0080   15.2130 N.am  215  LEU215     -0.1977
     66  CA        34.3250   25.8410   14.7120 C.3   215  LEU215      0.1596
     67  C         34.5770   24.4280   14.1830 C.2   215  LEU215      0.2287
     68  O         34.1710   23.4710   14.8110 O.2   215  LEU215     -0.2864
     69  CB        35.3550   26.1750   15.7860 C.3   215  LEU215      0.0297
     70  CG        35.6350   27.6500   16.0620 C.3   215  LEU215      0.0022
     71  CD1       36.6330   27.7180   17.2030 C.3   215  LEU215      0.0001
     72  CD2       36.1740   28.4040   14.8520 C.3   215  LEU215      0.0001
     73  N         37.1800   27.6820   25.1570 N.3   227  ALA227     -0.1231
     74  CA        36.3070   28.3850   26.1150 C.3   227  ALA227      0.1694
     75  C         34.8540   28.3470   25.7600 C.2   227  ALA227      0.2592
     76  O         34.4910   28.1760   24.6040 O.2   227  ALA227     -0.2718
     77  CB        36.7130   29.8240   26.2590 C.3   227  ALA227      0.0304
     78  N         34.0270   28.4890   26.7880 N.am  228  ARG228     -0.1966
     79  CA        32.5990   28.6680   26.6050 C.3   228  ARG228      0.1729
     80  C         31.9810   29.5650   27.6760 C.2   228  ARG228      0.2616
     81  O         32.4050   29.5720   28.8480 O.2   228  ARG228     -0.2715
     82  CB        31.8510   27.3290   26.4610 C.3   228  ARG228      0.0348
     83  CG        31.4570   26.5880   27.7300 C.3   228  ARG228      0.0492
     84  CD        30.3940   25.5470   27.4310 C.3   228  ARG228      0.2205
     85  NE        29.0680   26.1660   27.5100 N.pl3 228  ARG228     -0.0865
     86  CZ        28.0320   25.7160   28.2420 C.cat 228  ARG228      0.5346
     87  NH1       28.1320   24.5830   28.9650 N.pl3 228  ARG228      0.1354
     88  NH2       26.8690   26.3950   28.2350 N.pl3 228  ARG228      0.1354
     89  N         31.0020   30.3490   27.2190 N.am  229  ILE229     -0.1977
     90  CA        30.2110   31.2450   28.0610 C.3   229  ILE229      0.1596
     91  C         29.0450   30.4410   28.6240 C.2   229  ILE229      0.2287
     92  O         28.2970   29.7990   27.8540 O.2   229  ILE229     -0.2864
     93  CB        29.7050   32.4460   27.2460 C.3   229  ILE229      0.0276
     94  CG1       30.8860   33.2760   26.7570 C.3   229  ILE229      0.0022
     95  CG2       28.7640   33.3290   28.0510 C.3   229  ILE229      0.0022
     96  CD1       30.5410   34.0440   25.5100 C.3   229  ILE229      0.0001
     97  N         25.4870   29.4450   29.7060 N.3   231  GLN231     -0.1245
     98  CA        24.1000   29.7970   29.4820 C.3   231  GLN231      0.1566
     99  C         23.1780   28.9860   30.4090 C.2   231  GLN231      0.2260
    100  O         23.6030   28.0210   31.0530 O.2   231  GLN231     -0.2867
    101  CB        23.7110   29.5080   28.0550 C.3   231  GLN231      0.0367
    102  CG        24.6840   29.9710   26.9900 C.3   231  GLN231      0.0905
    103  CD        24.1690   29.6560   25.5990 C.2   231  GLN231      0.2608
    104  OE1       23.0360   29.2110   25.4090 O.2   231  GLN231     -0.2717
    105  NE2       24.9840   29.8830   24.6300 N.am  231  GLN231     -0.0878
    106  N         19.8570   27.4580   22.6300 N.3   236  ASP236     -0.1225
    107  CA        20.9400   26.6810   22.0720 C.3   236  ASP236      0.1805
    108  C         22.2550   27.4250   22.3180 C.2   236  ASP236      0.2598
    109  O         23.1350   26.9370   23.0300 O.2   236  ASP236     -0.2718
    110  CB        20.6520   26.4760   20.5520 C.3   236  ASP236      0.1424
    111  CG        21.8170   25.8310   19.7680 C.2   236  ASP236      0.3668
    112  OD1       22.8570   25.4120   20.3540 O.co2 236  ASP236     -0.2456
    113  OD2       21.6840   25.7550   18.5230 O.co2 236  ASP236     -0.2456
    114  N         22.3580   28.6120   21.7360 N.am  237  SER237     -0.1938
    115  CA        23.6120   29.3350   21.6700 C.3   237  SER237      0.2055
    116  C         23.3600   30.8210   21.6680 C.2   237  SER237      0.2643
    117  O         22.2100   31.2600   21.4770 O.2   237  SER237     -0.2714
    118  CB        24.3400   28.9930   20.3890 C.3   237  SER237      0.2130
    119  OG        23.9630   29.9200   19.3920 O.3   237  SER237     -0.2179
    120  N         24.4370   31.5830   21.8630 N.am  238  LEU238     -0.1963
    121  CA        24.4200   33.0240   21.6960 C.3   238  LEU238      0.1728
    122  C         24.6230   33.3940   20.2480 C.2   238  LEU238      0.2616
    123  O         25.2100   32.6680   19.4740 O.2   238  LEU238     -0.2715
    124  CB        25.5070   33.6860   22.4980 C.3   238  LEU238      0.0311
    125  CG        25.3760   33.5720   24.0060 C.3   238  LEU238      0.0022
    126  CD1       26.7570   33.6850   24.6000 C.3   238  LEU238      0.0001
    127  CD2       24.4670   34.6440   24.5820 C.3   238  LEU238      0.0001
    128  N         24.1010   34.5540   19.8890 N.am  239  ASN239     -0.1958
    129  CA        24.3420   35.1220   18.5810 C.3   239  ASN239      0.1819
    130  C         25.8290   35.3420   18.4930 C.2   239  ASN239      0.2621
    131  O         26.4710   35.5400   19.5230 O.2   239  ASN239     -0.2715
    132  CB        23.6190   36.4490   18.4460 C.3   239  ASN239      0.1195
    133  CG        24.2540   37.3450   17.4280 C.2   239  ASN239      0.2630
    134  OD1       25.0360   38.2030   17.7710 O.2   239  ASN239     -0.2716
    135  ND2       23.9680   37.1110   16.1710 N.am  239  ASN239     -0.0877
    136  N         26.3780   35.2960   17.2810 N.am  240  LEU240     -0.1977
    137  CA        27.8160   35.3800   17.0760 C.3   240  LEU240      0.1596
    138  C         28.4070   36.6710   17.5870 C.2   240  LEU240      0.2287
    139  O         29.3610   36.6700   18.3550 O.2   240  LEU240     -0.2864
    140  CB        28.1010   35.2940   15.5980 C.3   240  LEU240      0.0297
    141  CG        29.5480   35.4530   15.1830 C.3   240  LEU240      0.0022
    142  CD1       30.3170   34.3990   15.9290 C.3   240  LEU240      0.0001
    143  CD2       29.7330   35.3080   13.6700 C.3   240  LEU240      0.0001
    144  N         28.3000   36.9420   21.4740 N.3   243  ALA243     -0.1245
    145  CA        29.3990   36.1540   21.9890 C.3   243  ALA243      0.1562
    146  C         30.7310   36.8890   21.8210 C.2   243  ALA243      0.2260
    147  O         31.5040   36.9930   22.7520 O.2   243  ALA243     -0.2867
    148  CB        29.4450   34.8250   21.2680 C.3   243  ALA243      0.0290
@<TRIPOS>BOND
     1    55    53   am
     2    54    53    2
     3    53    52    1
     4    37    35   am
     5    52    51    1
     6    35    36    2
     7    35    34    1
     8    51    48    1
     9    46    44   ar
    10    45    44   ar
    11    60    57    1
    12    34    31    1
    13    44    43    1
    14    48    47    1
    15    48    49    1
    16    47    40   am
    17    31    32    1
    18    31    30    1
    19    56    49   am
    20    56    57    1
    21    42    43    1
    22    42    39    1
    23    38    32   am
    24    38    39    1
    25    49    50    2
    26    57    58    1
    27    32    33    2
    28    39    40    1
    29    40    41    2
    30    30    28   am
    31    64    63    2
    32    58    61   am
    33    58    59    2
    34   143   141    1
    35    61    62    1
    36    28    29    2
    37    28    27    1
    38    67    66    1
    39    67    68    2
    40    63    62    1
    41    63    65   am
    42    66    65    1
    43    66    69    1
    44    72    70    1
    45    27    26    1
    46   141   140    1
    47   141   142    1
    48   140   137    1
    49    69    70    1
    50    70    71    1
    51   135   133   am
    52   137   136    1
    53   137   138    1
    54   136   130   am
    55   133   134    2
    56   133   132    1
    57   138   139    2
    58   132   129    1
    59    17    16   ar
    60    17    15   ar
    61   130   129    1
    62   130   131    2
    63   113   111   ar
    64   129   128    1
    65    16    14   ar
    66    15    13   ar
    67   119   118    1
    68   123   122    2
    69     4     3    2
    70   111   112   ar
    71   111   110    1
    72   128   122   am
    73    14    13   ar
    74    13    12    1
    75     6     5    1
    76   122   121    1
    77    24    23    1
    78   118   115    1
    79   110   107    1
    80     1     2    1
    81     3     2    1
    82     3     8   am
    83   148   145    1
    84    12     9    1
    85     9     8    1
    86     9    10    1
    87   144   145    1
    88   117   116    2
    89     5     2    1
    90     5     7    1
    91   116   115    1
    92   116   120   am
    93   115   114    1
    94   121   120    1
    95   121   124    1
    96   114   108   am
    97    23    22    1
    98    23    25    1
    99   146   145    1
   100   146   147    2
   101    18    10   am
   102    18    19    1
   103    22    19    1
   104   107   108    1
   105   107   106    1
   106   108   109    2
   107    10    11    2
   108   124   125    1
   109    19    20    1
   110    20    21    2
   111   125   127    1
   112   125   126    1
   113    76    75    2
   114   105   103   am
   115    73    74    1
   116   104   103    2
   117    96    94    1
   118   103   102    1
   119    75    74    1
   120    75    78   am
   121    74    77    1
   122    82    79    1
   123    82    83    1
   124    79    78    1
   125    79    80    1
   126    94    93    1
   127   102   101    1
   128    89    80   am
   129    89    90    1
   130    93    95    1
   131    93    90    1
   132    84    85    1
   133    84    83    1
   134    85    86    2
   135    80    81    2
   136    92    91    2
   137   101    98    1
   138    90    91    1
   139    88    86    1
   140    86    87    1
   141    98    97    1
   142    98    99    1
   143    99   100    2
