@<TRIPOS>MOLECULE
tmp/5l11A01.pdb
 192 176 0 0 0
SMALL
GASTEIGER

@<TRIPOS>ATOM
      1  N          8.0060   15.5340   17.9640 N.3    42  THR42      -0.1203
      2  CA         9.0810   16.4730   17.6650 C.3    42  THR42       0.1994
      3  C          8.5460   17.6960   16.9320 C.2    42  THR42       0.2617
      4  O          8.9360   18.8290   17.2350 O.2    42  THR42      -0.2717
      5  CB        10.1730   15.7870   16.8450 C.3    42  THR42       0.1784
      6  OG1       10.6190   14.6110   17.5330 O.3    42  THR42      -0.2211
      7  CG2       11.3560   16.7250   16.6460 C.3    42  THR42       0.0376
      8  N          7.6490   17.4910   15.9650 N.am   43  PHE43      -0.1975
      9  CA         7.0190   18.6320   15.3110 C.3    43  PHE43       0.1639
     10  C          6.2860   19.4960   16.3270 C.2    43  PHE43       0.2290
     11  O          6.2890   20.7270   16.2230 O.2    43  PHE43      -0.2864
     12  CB         6.0580   18.1630   14.2220 C.3    43  PHE43       0.0560
     13  CG         5.3200   19.2820   13.5500 C.ar   43  PHE43      -0.0200
     14  CD1        5.9490   20.0730   12.6030 C.ar   43  PHE43      -0.0042
     15  CD2        3.9980   19.5420   13.8610 C.ar   43  PHE43      -0.0042
     16  CE1        5.2750   21.1040   11.9840 C.ar   43  PHE43      -0.0003
     17  CE2        3.3150   20.5710   13.2440 C.ar   43  PHE43      -0.0003
     18  CZ         3.9540   21.3550   12.3070 C.ar   43  PHE43      -0.0000
     19  N          8.7260   21.7060   18.2520 N.3    46  MET46      -0.1230
     20  CA         9.1880   22.8100   17.4170 C.3    46  MET46       0.1702
     21  C          8.1330   23.9070   17.3360 C.2    46  MET46       0.2592
     22  O          8.4680   25.0970   17.3210 O.2    46  MET46      -0.2718
     23  CB         9.5540   22.3080   16.0190 C.3    46  MET46       0.0401
     24  CG        10.6880   21.2750   15.9890 C.3    46  MET46       0.0596
     25  SD        12.2580   21.8680   16.6690 S.3    46  MET46      -0.1393
     26  CE        12.1440   21.3640   18.3840 C.3    46  MET46       0.0692
     27  N          6.8510   23.5280   17.2840 N.am   47  CYS47      -0.1970
     28  CA         5.7830   24.5270   17.2570 C.3    47  CYS47       0.1712
     29  C          5.7750   25.3570   18.5350 C.2    47  CYS47       0.2296
     30  O          5.6340   26.5840   18.4900 O.2    47  CYS47      -0.2864
     31  CB         4.4230   23.8510   17.0620 C.3    47  CYS47       0.0983
     32  SG         4.0960   23.1870   15.3960 S.3    47  CYS47      -0.0798
     33  N          8.3340   25.7280   20.6030 N.3    49  MET49      -0.1230
     34  CA         9.5840   26.4790   20.6120 C.3    49  MET49       0.1702
     35  C          9.4700   27.7250   19.7420 C.2    49  MET49       0.2592
     36  O          9.9020   28.8160   20.1350 O.2    49  MET49      -0.2718
     37  CB        10.7190   25.5790   20.1280 C.3    49  MET49       0.0401
     38  CG        12.1140   26.1260   20.3760 C.3    49  MET49       0.0596
     39  SD        13.3920   25.0340   19.7020 S.3    49  MET49      -0.1393
     40  CE        13.0950   25.2450   17.9520 C.3    49  MET49       0.0692
     41  N          8.8860   27.5790   18.5480 N.am   50  ALA50      -0.1980
     42  CA         8.6580   28.7370   17.6920 C.3    50  ALA50       0.1597
     43  C          7.6670   29.7000   18.3320 C.2    50  ALA50       0.2287
     44  O          7.8440   30.9200   18.2590 O.2    50  ALA50      -0.2864
     45  CB         8.1570   28.2940   16.3170 C.3    50  ALA50       0.0319
     46  N          9.5420   31.6630   20.8690 N.3    53  THR53      -0.1218
     47  CA        10.4280   32.6060   20.1950 C.3    53  THR53       0.1862
     48  C          9.6570   33.8420   19.7450 C.2    53  THR53       0.2287
     49  O         10.1630   34.9670   19.8410 O.2    53  THR53      -0.2866
     50  CB        11.1130   31.9370   19.0010 C.3    53  THR53       0.1770
     51  OG1       11.7810   30.7430   19.4280 O.3    53  THR53      -0.2211
     52  CG2       12.1430   32.8770   18.3820 C.3    53  THR53       0.0375
     53  N         11.5100   35.0370   12.4320 N.3    87  LEU87      -0.1231
     54  CA        11.7990   33.7030   12.9470 C.3    87  LEU87       0.1693
     55  C         12.9140   33.0410   12.1490 C.2    87  LEU87       0.2591
     56  O         13.8790   32.5130   12.7130 O.2    87  LEU87      -0.2718
     57  CB        10.5400   32.8450   12.8720 C.3    87  LEU87       0.0284
     58  CG         9.8690   32.2000   14.0720 C.3    87  LEU87       0.0019
     59  CD1        9.1490   30.9660   13.5210 C.3    87  LEU87       0.0001
     60  CD2       10.8130   31.8510   15.2250 C.3    87  LEU87       0.0001
     61  N         12.7810   33.0440   10.8240 N.am   88  ILE88      -0.1980
     62  CA        13.7380   32.3460    9.9760 C.3    88  ILE88       0.1595
     63  C         15.0790   33.0650    9.9810 C.2    88  ILE88       0.2287
     64  O         16.1360   32.4280   10.0100 O.2    88  ILE88      -0.2864
     65  CB        13.1630   32.2080    8.5530 C.3    88  ILE88       0.0276
     66  CG1       11.9080   31.3260    8.5740 C.3    88  ILE88       0.0022
     67  CG2       14.2030   31.6580    7.5800 C.3    88  ILE88       0.0022
     68  CD1       12.1560   29.8710    8.9640 C.3    88  ILE88       0.0001
     69  N         16.8030   32.0770   13.0340 N.3    91  HIS91      -0.1241
     70  CA        17.3030   30.7160   12.8530 C.3    91  HIS91       0.1621
     71  C         18.5770   30.7070   12.0230 C.2    91  HIS91       0.2264
     72  O         19.5720   30.0770   12.3950 O.2    91  HIS91      -0.2867
     73  CB        16.2380   29.8500   12.1780 C.3    91  HIS91       0.0745
     74  CG        16.7590   28.5370   11.6840 C.ar   91  HIS91       0.0817
     75  ND1       16.9820   27.4630   12.5190 N.ar   91  HIS91      -0.2268
     76  CD2       17.0970   28.1220   10.4400 C.ar   91  HIS91       0.1154
     77  CE1       17.4370   26.4440   11.8120 C.ar   91  HIS91       0.1986
     78  NE2       17.5180   26.8190   10.5470 N.ar   91  HIS91      -0.2212
     79  N         21.5710   32.1210   13.8310 N.3    94  ARG94      -0.1245
     80  CA        22.0380   31.1910   14.8540 C.3    94  ARG94       0.1563
     81  C         22.9520   30.1240   14.2610 C.2    94  ARG94       0.2260
     82  O         23.9600   29.7530   14.8760 O.2    94  ARG94      -0.2867
     83  CB        20.8460   30.5520   15.5640 C.3    94  ARG94       0.0307
     84  CG        21.2360   29.6580   16.7140 C.3    94  ARG94       0.0489
     85  CD        20.0400   29.2730   17.5620 C.3    94  ARG94       0.2205
     86  NE        19.3830   30.4550   18.1100 N.pl3  94  ARG94      -0.0865
     87  CZ        18.2610   31.0000   17.6460 C.cat  94  ARG94       0.5346
     88  NH1       17.6090   30.4770   16.6160 N.pl3  94  ARG94       0.1354
     89  NH2       17.7810   32.0850   18.2340 N.pl3  94  ARG94       0.1354
     90  N         21.9880   21.1160   13.7410 N.3   104  ILE104     -0.1245
     91  CA        21.1620   22.3130   13.7960 C.3   104  ILE104      0.1561
     92  C         21.1820   22.8150   15.2330 C.2   104  ILE104      0.2260
     93  O         21.0180   22.0240   16.1690 O.2   104  ILE104     -0.2867
     94  CB        19.7180   22.0250   13.3410 C.3   104  ILE104      0.0252
     95  CG1       19.6940   21.5070   11.8980 C.3   104  ILE104      0.0019
     96  CG2       18.8440   23.2620   13.4820 C.3   104  ILE104      0.0019
     97  CD1       20.0740   22.5260   10.8640 C.3   104  ILE104      0.0001
     98  N         19.4300   25.1260   18.1100 N.3   106  LEU106     -0.1231
     99  CA        18.1090   25.6310   18.4470 C.3   106  LEU106      0.1693
    100  C         18.1970   26.7670   19.4610 C.2   106  LEU106      0.2591
    101  O         19.1980   26.9350   20.1600 O.2   106  LEU106     -0.2718
    102  CB        17.2340   24.5060   18.9990 C.3   106  LEU106      0.0284
    103  CG        17.1390   23.2590   18.1170 C.3   106  LEU106      0.0019
    104  CD1       16.2650   22.2060   18.7810 C.3   106  LEU106      0.0001
    105  CD2       16.6100   23.6070   16.7390 C.3   106  LEU106      0.0001
    106  N         17.1170   27.5470   19.5310 N.am  107  VAL107     -0.1980
    107  CA        17.0650   28.7000   20.4200 C.3   107  VAL107      0.1595
    108  C         17.1720   28.2860   21.8850 C.2   107  VAL107      0.2287
    109  O         17.4380   29.1290   22.7460 O.2   107  VAL107     -0.2864
    110  CB        15.7680   29.4960   20.1610 C.3   107  VAL107      0.0276
    111  CG1       14.5450   28.7110   20.6220 C.3   107  VAL107      0.0022
    112  CG2       15.8250   30.8650   20.8240 C.3   107  VAL107      0.0022
    113  N         16.8870   15.1770   12.7700 N.3   117  ILE117     -0.1245
    114  CA        15.8040   16.0980   12.4290 C.3   117  ILE117      0.1561
    115  C         15.2220   15.7570   11.0620 C.2   117  ILE117      0.2260
    116  O         13.9990   15.7230   10.8820 O.2   117  ILE117     -0.2867
    117  CB        16.3050   17.5540   12.4750 C.3   117  ILE117      0.0252
    118  CG1       16.6820   17.9510   13.9030 C.3   117  ILE117      0.0019
    119  CG2       15.2530   18.5140   11.9240 C.3   117  ILE117      0.0019
    120  CD1       15.5090   17.9940   14.8770 C.3   117  ILE117      0.0001
    121  N         12.4480   13.1900   10.6810 N.3   120  GLN120     -0.1231
    122  CA        11.1250   13.4630   11.2200 C.3   120  GLN120      0.1698
    123  C         10.4340   14.6640   10.5910 C.2   120  GLN120      0.2592
    124  O          9.2170   14.8000   10.7450 O.2   120  GLN120     -0.2718
    125  CB        11.2160   13.7040   12.7360 C.3   120  GLN120      0.0381
    126  CG        12.1410   12.7420   13.4730 C.3   120  GLN120      0.0905
    127  CD        12.3320   13.1200   14.9230 C.2   120  GLN120      0.2608
    128  OE1       11.3850   13.1150   15.7060 O.2   120  GLN120     -0.2717
    129  NE2       13.5600   13.4700   15.2870 N.am  120  GLN120     -0.0878
    130  N         11.1680   15.5330    9.8960 N.am  121  ALA121     -0.1980
    131  CA        10.6280   16.8260    9.4930 C.3   121  ALA121      0.1597
    132  C          9.7290   16.7490    8.2650 C.2   121  ALA121      0.2287
    133  O          8.8970   17.6400    8.0680 O.2   121  ALA121     -0.2864
    134  CB        11.7730   17.8050    9.2240 C.3   121  ALA121      0.0319
    135  N          9.4250   20.5150    4.9520 N.3   125  LEU125     -0.1245
    136  CA        10.3020   21.2060    5.8930 C.3   125  LEU125      0.1561
    137  C         11.7670   20.8950    5.6200 C.2   125  LEU125      0.2260
    138  O         12.6300   21.7610    5.7980 O.2   125  LEU125     -0.2867
    139  CB         9.9420   20.8430    7.3330 C.3   125  LEU125      0.0270
    140  CG         8.8210   21.6620    7.9660 C.3   125  LEU125      0.0019
    141  CD1        8.5710   21.1790    9.3860 C.3   125  LEU125      0.0001
    142  CD2        9.1380   23.1570    7.9640 C.3   125  LEU125      0.0001
    143  N         12.7300   23.2960    2.9360 N.3   128  LEU128     -0.1231
    144  CA        12.8840   24.6710    3.4030 C.3   128  LEU128      0.1693
    145  C         14.0960   24.8150    4.3150 C.2   128  LEU128      0.2591
    146  O         14.8250   25.8100    4.2330 O.2   128  LEU128     -0.2718
    147  CB        11.6100   25.1250    4.1100 C.3   128  LEU128      0.0284
    148  CG        10.3560   25.1500    3.2310 C.3   128  LEU128      0.0019
    149  CD1        9.1290   25.4920    4.0470 C.3   128  LEU128      0.0001
    150  CD2       10.5110   26.1380    2.0770 C.3   128  LEU128      0.0001
    151  N         14.3290   23.8380    5.1920 N.am  129  MET129     -0.1979
    152  CA        15.5490   23.8570    5.9910 C.3   129  MET129      0.1605
    153  C         16.7870   23.8140    5.1050 C.2   129  MET129      0.2287
    154  O         17.7950   24.4680    5.4000 O.2   129  MET129     -0.2864
    155  CB        15.5600   22.6800    6.9650 C.3   129  MET129      0.0413
    156  CG        14.5170   22.7760    8.0670 C.3   129  MET129      0.0598
    157  SD        14.5850   21.3580    9.1780 S.3   129  MET129     -0.1393
    158  CE        16.2830   21.4500    9.7400 C.3   129  MET129      0.0692
    159  N         17.3750   27.1550    3.6570 N.3   132  ALA132     -0.1245
    160  CA        17.9080   28.0000    4.7220 C.3   132  ALA132      0.1562
    161  C         19.3870   27.7230    4.9590 C.2   132  ALA132      0.2260
    162  O         20.1720   28.6570    5.1540 O.2   132  ALA132     -0.2867
    163  CB        17.1100   27.7940    6.0100 C.3   132  ALA132      0.0290
    164  N         11.2910   31.7070    1.7180 N.3   210  ILE210     -0.1245
    165  CA        11.3100   30.5850    2.6550 C.3   210  ILE210      0.1561
    166  C         10.2640   30.7910    3.7390 C.2   210  ILE210      0.2260
    167  O          9.5360   29.8610    4.1050 O.2   210  ILE210     -0.2867
    168  CB        12.7140   30.4100    3.2640 C.3   210  ILE210      0.0252
    169  CG1       13.7210   29.9850    2.1930 C.3   210  ILE210      0.0019
    170  CG2       12.6830   29.3770    4.3980 C.3   210  ILE210      0.0019
    171  CD1       15.1700   30.0330    2.6740 C.3   210  ILE210      0.0001
    172  N          7.0780   28.6500    4.5030 N.3   214  ALA214     -0.1245
    173  CA         6.9800   28.0610    5.8350 C.3   214  ALA214      0.1562
    174  C          5.6190   28.3410    6.4610 C.2   214  ALA214      0.2260
    175  O          5.0000   27.4380    7.0370 O.2   214  ALA214     -0.2867
    176  CB         8.1020   28.5860    6.7320 C.3   214  ALA214      0.0290
    177  N          2.7840   25.5460    7.6020 N.3   218  LEU218     -0.1245
    178  CA         2.2840   25.4510    8.9700 C.3   218  LEU218      0.1561
    179  C          0.7780   25.6740    9.0220 C.2   218  LEU218      0.2260
    180  O          0.0790   25.0480    9.8290 O.2   218  LEU218     -0.2867
    181  CB         3.0080   26.4560    9.8730 C.3   218  LEU218      0.0270
    182  CG         4.4770   26.1730   10.2030 C.3   218  LEU218      0.0019
    183  CD1        5.0570   27.3060   11.0460 C.3   218  LEU218      0.0001
    184  CD2        4.6420   24.8350   10.9270 C.3   218  LEU218      0.0001
    185  N          1.5120   31.4280   17.9250 N.3   230  LEU230     -0.1245
    186  CA         1.8110   30.9550   16.5760 C.3   230  LEU230      0.1561
    187  C          0.5460   30.8870   15.7280 C.2   230  LEU230      0.2260
    188  O          0.5260   31.3470   14.5780 O.2   230  LEU230     -0.2867
    189  CB         2.4860   29.5880   16.6460 C.3   230  LEU230      0.0270
    190  CG         2.8030   28.9400   15.2990 C.3   230  LEU230      0.0019
    191  CD1        3.7850   29.8030   14.5340 C.3   230  LEU230      0.0001
    192  CD2        3.3550   27.5420   15.5070 C.3   230  LEU230      0.0001
@<TRIPOS>BOND
     1   164   165    1
     2   150   148    1
     3   169   171    1
     4   169   168    1
     5   165   168    1
     6   165   166    1
     7   143   144    1
     8   148   149    1
     9   148   147    1
    10   168   170    1
    11   144   147    1
    12   144   145    1
    13   159   160    1
    14   166   167    2
    15   146   145    2
    16   145   151   am
    17   172   173    1
    18   160   161    1
    19   160   163    1
    20   135   136    1
    21   161   162    2
    22   153   154    2
    23   153   152    1
    24   151   152    1
    25   137   138    2
    26   137   136    1
    27   173   174    1
    28   173   176    1
    29   136   139    1
    30   152   155    1
    31   174   175    2
    32   155   156    1
    33   139   140    1
    34    67    65    1
    35   177   178    1
    36   142   140    1
    37   140   141    1
    38   156   157    1
    39   133   132    2
    40   132   131    1
    41    65    66    1
    42    65    62    1
    43    66    68    1
    44   178   179    1
    45   178   181    1
    46   179   180    2
    47   157   158    1
    48   134   131    1
    49   131   130    1
    50   181   182    1
    51   130   123   am
    52    62    63    1
    53    62    61    1
    54    63    64    2
    55   182   184    1
    56   182   183    1
    57    76    78   ar
    58    76    74   ar
    59    78    77   ar
    60   123   124    2
    61   123   122    1
    62   121   122    1
    63    61    55   am
    64    97    95    1
    65   116   115    2
    66   115   114    1
    67   122   125    1
    68    74    73    1
    69    74    75   ar
    70    77    75   ar
    71    95    94    1
    72   119   117    1
    73    16    18   ar
    74    16    14   ar
    75    71    72    2
    76    71    70    1
    77    55    56    2
    78    55    54    1
    79    73    70    1
    80    18    17   ar
    81   114   117    1
    82   114   113    1
    83    53    54    1
    84   117   118    1
    85    14    13   ar
    86   125   126    1
    87    70    69    1
    88    57    54    1
    89    57    58    1
    90    17    15   ar
    91    94    96    1
    92    94    91    1
    93   126   127    1
    94    59    58    1
    95    13    15   ar
    96    13    12    1
    97    90    91    1
    98    91    92    1
    99    79    80    1
   100   118   120    1
   101    58    60    1
   102    12     9    1
   103    81    80    1
   104    81    82    2
   105   191   190    1
   106   188   187    2
   107    80    83    1
   108   127   129   am
   109   127   128    2
   110    92    93    2
   111   190   192    1
   112   190   189    1
   113     9     8    1
   114     9    10    1
   115    32    31    1
   116    83    84    1
   117   187   186    1
   118     8     3   am
   119    24    23    1
   120    24    25    1
   121    23    20    1
   122    11    10    2
   123    45    42    1
   124   186   189    1
   125   186   185    1
   126    88    87    1
   127     7     5    1
   128    25    26    1
   129    84    85    1
   130   105   103    1
   131     5     6    1
   132     5     2    1
   133     3     4    2
   134     3     2    1
   135    31    28    1
   136    28    27    1
   137    28    29    1
   138    27    21   am
   139    22    21    2
   140    21    20    1
   141    20    19    1
   142    85    86    1
   143    87    86    2
   144    87    89    1
   145     2     1    1
   146    42    43    1
   147    42    41    1
   148    40    39    1
   149    98    99    1
   150   103   104    1
   151   103   102    1
   152    44    43    2
   153    52    50    1
   154    99   102    1
   155    99   100    1
   156    30    29    2
   157    41    35   am
   158    50    51    1
   159    50    47    1
   160   100   106   am
   161   100   101    2
   162   106   107    1
   163    39    38    1
   164    35    36    2
   165    35    34    1
   166    48    49    2
   167    48    47    1
   168    37    38    1
   169    37    34    1
   170   110   107    1
   171   110   111    1
   172   110   112    1
   173    47    46    1
   174   107   108    1
   175    33    34    1
   176   108   109    2
