@<TRIPOS>MOLECULE
tmp/5l13B00.pdb
 158 151 0 0 0
SMALL
GASTEIGER

@<TRIPOS>ATOM
      1  N        123.0010    6.6820   19.0790 N.3   114  VAL114     -0.1245
      2  CA       122.5210    7.4490   20.2350 C.3   114  VAL114      0.1561
      3  C        121.8650    8.7500   19.7710 C.2   114  VAL114      0.2260
      4  O        120.6590    8.9070   19.8900 O.2   114  VAL114     -0.2867
      5  CB       123.6490    7.7080   21.2750 C.3   114  VAL114      0.0252
      6  CG1      123.1460    8.5760   22.4160 C.3   114  VAL114      0.0019
      7  CG2      124.1690    6.3850   21.8290 C.3   114  VAL114      0.0019
      8  N        117.8350    9.3390   19.3980 N.3   118  MET118     -0.1245
      9  CA       117.1990   10.2150   20.3790 C.3   118  MET118      0.1570
     10  C        116.4780   11.3680   19.7090 C.2   118  MET118      0.2261
     11  O        115.4370   11.8010   20.1880 O.2   118  MET118     -0.2867
     12  CB       118.2170   10.7230   21.3870 C.3   118  MET118      0.0387
     13  CG       118.7890    9.6290   22.2690 C.3   118  MET118      0.0595
     14  SD       117.5400    8.8530   23.3060 S.3   118  MET118     -0.1393
     15  CE       117.3090   10.1470   24.5340 C.3   118  MET118      0.0692
     16  N        127.6160   20.9980   21.3740 N.3   163  ASN163     -0.1225
     17  CA       127.9070   19.6730   21.9420 C.3   163  ASN163      0.1785
     18  C        126.8970   18.5760   21.5590 C.2   163  ASN163      0.2597
     19  O        127.2790   17.3990   21.4760 O.2   163  ASN163     -0.2718
     20  CB       128.1090   19.7560   23.4530 C.3   163  ASN163      0.1169
     21  CG       126.8300   20.0430   24.2330 C.2   163  ASN163      0.2627
     22  OD1      125.8420   20.5800   23.7200 O.2   163  ASN163     -0.2716
     23  ND2      126.8630   19.6920   25.5090 N.am  163  ASN163     -0.0877
     24  N        125.6380   18.9550   21.2940 N.am  164  PHE164     -0.1976
     25  CA       124.6410   18.0170   20.7600 C.3   164  PHE164      0.1639
     26  C        123.7780   18.7210   19.7160 C.2   164  PHE164      0.2290
     27  O        122.6060   19.0090   19.9690 O.2   164  PHE164     -0.2864
     28  CB       123.7610   17.4440   21.8750 C.3   164  PHE164      0.0560
     29  CG       124.4870   16.5150   22.8110 C.ar  164  PHE164     -0.0200
     30  CD1      124.6420   15.1600   22.5000 C.ar  164  PHE164     -0.0042
     31  CD2      125.0270   16.9910   24.0110 C.ar  164  PHE164     -0.0042
     32  CE1      125.3020   14.3010   23.3680 C.ar  164  PHE164     -0.0003
     33  CE2      125.6970   16.1370   24.8730 C.ar  164  PHE164     -0.0003
     34  CZ       125.8350   14.7940   24.5500 C.ar  164  PHE164     -0.0000
     35  N        120.4670   16.7980   18.4250 N.3   167  LEU167     -0.1231
     36  CA       119.5990   16.4990   19.5430 C.3   167  LEU167      0.1693
     37  C        118.9950   17.7700   20.1440 C.2   167  LEU167      0.2591
     38  O        117.7620   17.8550   20.3270 O.2   167  LEU167     -0.2718
     39  CB       120.3260   15.6910   20.6000 C.3   167  LEU167      0.0284
     40  CG       119.4000   15.1450   21.6840 C.3   167  LEU167      0.0019
     41  CD1      118.1820   14.4190   21.0890 C.3   167  LEU167      0.0001
     42  CD2      120.1910   14.2220   22.6010 C.3   167  LEU167      0.0001
     43  N        119.8460   18.7640   20.3930 N.am  168  MET168     -0.1979
     44  CA       119.3830   20.0180   20.9550 C.3   168  MET168      0.1605
     45  C        118.3870   20.7020   20.0580 C.2   168  MET168      0.2287
     46  O        117.4300   21.2840   20.5570 O.2   168  MET168     -0.2864
     47  CB       120.5390   20.9730   21.2630 C.3   168  MET168      0.0413
     48  CG       121.2420   20.6980   22.5890 C.3   168  MET168      0.0598
     49  SD       120.0810   20.4930   23.9480 S.3   168  MET168     -0.1393
     50  CE       119.9480   18.7210   23.9370 C.3   168  MET168      0.0692
     51  N        115.2210   18.9300   20.6470 N.3   171  TRP171     -0.1241
     52  CA       114.6430   19.3140   21.9480 C.3   171  TRP171      0.1605
     53  C        113.8780   20.6410   21.9210 C.2   171  TRP171      0.2264
     54  O        112.9590   20.8420   22.6920 O.2   171  TRP171     -0.2867
     55  CB       115.7290   19.4510   23.0060 C.3   171  TRP171      0.0550
     56  CG       116.2330   18.1840   23.6090 C.ar  171  TRP171      0.0003
     57  CD1      116.1810   16.9370   23.0760 C.ar  171  TRP171      0.0946
     58  CD2      116.9160   18.0630   24.8630 C.ar  171  TRP171      0.0152
     59  NE1      116.7790   16.0380   23.9250 N.ar  171  TRP171     -0.2442
     60  CE2      117.2510   16.7090   25.0240 C.ar  171  TRP171      0.0810
     61  CE3      117.2800   18.9770   25.8660 C.ar  171  TRP171      0.0012
     62  CZ2      117.9180   16.2330   26.1510 C.ar  171  TRP171      0.0191
     63  CZ3      117.9440   18.5040   26.9850 C.ar  171  TRP171      0.0001
     64  CH2      118.2630   17.1430   27.1140 C.ar  171  TRP171      0.0015
     65  N        120.8120   27.5100   25.5220 N.3   238  THR238     -0.1218
     66  CA       121.5810   26.4450   26.1580 C.3   238  THR238      0.1862
     67  C        123.0610   26.7760   25.9650 C.2   238  THR238      0.2287
     68  O        123.4950   26.9720   24.8480 O.2   238  THR238     -0.2866
     69  CB       121.2740   25.0590   25.5280 C.3   238  THR238      0.1770
     70  OG1      119.8810   24.7380   25.6660 O.3   238  THR238     -0.2211
     71  CG2      122.0660   23.9720   26.2230 C.3   238  THR238      0.0375
     72  N        119.4110   26.5590   29.9380 N.3   262  GLU262     -0.1245
     73  CA       120.0660   25.3170   30.3220 C.3   262  GLU262      0.1567
     74  C        121.5430   25.6330   30.2880 C.2   262  GLU262      0.2260
     75  O        122.1180   25.8160   29.2260 O.2   262  GLU262     -0.2867
     76  CB       119.7370   24.1910   29.3410 C.3   262  GLU262      0.0388
     77  CG       118.2440   23.8920   29.2010 C.3   262  GLU262      0.1160
     78  CD       117.7150   22.9270   30.2470 C.2   262  GLU262      0.3649
     79  OE1      118.5120   22.1060   30.7480 O.co2 262  GLU262     -0.2457
     80  OE2      116.5010   22.9860   30.5640 O.co2 262  GLU262     -0.2457
     81  N        131.5960    6.2190   32.1160 N.3   286  PHE286     -0.1241
     82  CA       130.6120    6.7610   31.1960 C.3   286  PHE286      0.1605
     83  C        130.1550    8.1790   31.5910 C.2   286  PHE286      0.2264
     84  O        130.1080    9.0760   30.7500 O.2   286  PHE286     -0.2867
     85  CB       129.3910    5.8380   31.1310 C.3   286  PHE286      0.0534
     86  CG       128.4590    6.1840   30.0310 C.ar  286  PHE286     -0.0203
     87  CD1      128.6390    5.6440   28.7660 C.ar  286  PHE286     -0.0042
     88  CD2      127.4180    7.0670   30.2380 C.ar  286  PHE286     -0.0042
     89  CE1      127.7740    5.9650   27.7270 C.ar  286  PHE286     -0.0003
     90  CE2      126.5680    7.4200   29.1960 C.ar  286  PHE286     -0.0003
     91  CZ       126.7450    6.8670   27.9420 C.ar  286  PHE286     -0.0000
     92  N        131.7110   10.4600   28.4720 N.3   290  PHE290     -0.1241
     93  CA       130.8030   10.4400   27.3310 C.3   290  PHE290      0.1605
     94  C        130.8900   11.7530   26.5540 C.2   290  PHE290      0.2264
     95  O        131.0050   12.8130   27.1380 O.2   290  PHE290     -0.2867
     96  CB       129.3720   10.1730   27.7620 C.3   290  PHE290      0.0534
     97  CG       128.4200   10.1180   26.6180 C.ar  290  PHE290     -0.0203
     98  CD1      128.4780    9.0640   25.7170 C.ar  290  PHE290     -0.0042
     99  CD2      127.4940   11.1300   26.4140 C.ar  290  PHE290     -0.0042
    100  CE1      127.6170    9.0060   24.6370 C.ar  290  PHE290     -0.0003
    101  CE2      126.6360   11.0890   25.3380 C.ar  290  PHE290     -0.0003
    102  CZ       126.6920   10.0230   24.4540 C.ar  290  PHE290     -0.0000
    103  N        129.5740   17.3190   28.1320 N.3   295  CYS295     -0.1221
    104  CA       128.2050   17.2740   28.6200 C.3   295  CYS295      0.1808
    105  C        128.0450   18.2020   29.8080 C.2   295  CYS295      0.2601
    106  O        128.8550   18.1670   30.7430 O.2   295  CYS295     -0.2717
    107  CB       127.8580   15.8670   29.0740 C.3   295  CYS295      0.0970
    108  SG       127.9120   14.6780   27.7390 S.3   295  CYS295     -0.0800
    109  N        126.9790   19.0000   29.7750 N.am  296  CYS296     -0.1956
    110  CA       126.6300   19.9220   30.8440 C.3   296  CYS296      0.1843
    111  C        126.4160   19.1750   32.1620 C.2   296  CYS296      0.2625
    112  O        126.6960   19.7180   33.2410 O.2   296  CYS296     -0.2714
    113  CB       125.3730   20.7160   30.4470 C.3   296  CYS296      0.0997
    114  SG       125.4620   21.4350   28.7690 S.3   296  CYS296     -0.0797
    115  N        125.9360   17.9310   32.0520 N.am  297  CYS297     -0.1968
    116  CA       125.6790   17.0590   33.1950 C.3   297  CYS297      0.1712
    117  C        126.7640   16.0050   33.4540 C.2   297  CYS297      0.2296
    118  O        126.5420   15.0600   34.2000 O.2   297  CYS297     -0.2864
    119  CB       124.3300   16.3520   33.0100 C.3   297  CYS297      0.0983
    120  SG       124.2110   15.4270   31.4690 S.3   297  CYS297     -0.0798
    121  N        122.6080   20.8050   38.0760 N.3   421  LEU421     -0.1245
    122  CA       121.9420   20.2770   36.9010 C.3   421  LEU421      0.1561
    123  C        121.5990   18.8140   37.0970 C.2   421  LEU421      0.2260
    124  O        120.4490   18.4000   36.8800 O.2   421  LEU421     -0.2867
    125  CB       122.8270   20.4390   35.6760 C.3   421  LEU421      0.0270
    126  CG       122.2190   20.1700   34.3010 C.3   421  LEU421      0.0019
    127  CD1      121.0600   21.0910   34.0070 C.3   421  LEU421      0.0001
    128  CD2      123.2890   20.3270   33.2470 C.3   421  LEU421      0.0001
    129  N        123.2980    9.4980   32.8320 N.3   451  ASP451     -0.1239
    130  CA       122.9900    9.8980   31.4520 C.3   451  ASP451      0.1674
    131  C        121.8970    9.0330   30.8520 C.2   451  ASP451      0.2266
    132  O        121.9630    8.6280   29.6950 O.2   451  ASP451     -0.2867
    133  CB       124.2410    9.8540   30.5640 C.3   451  ASP451      0.1410
    134  CG       125.1660   11.0470   30.7780 C.2   451  ASP451      0.3668
    135  OD1      124.7380   12.1100   31.2970 O.co2 451  ASP451     -0.2456
    136  OD2      126.3500   10.9240   30.3960 O.co2 451  ASP451     -0.2456
    137  N        118.4530    9.5170   29.5660 N.3   453  PHE453     -0.1241
    138  CA       117.5370   10.5370   29.1020 C.3   453  PHE453      0.1605
    139  C        116.3830    9.8410   28.4250 C.2   453  PHE453      0.2264
    140  O        116.5600    8.8110   27.7920 O.2   453  PHE453     -0.2867
    141  CB       118.2110   11.4580   28.0780 C.3   453  PHE453      0.0534
    142  CG       119.2280   12.3840   28.6630 C.ar  453  PHE453     -0.0203
    143  CD1      120.5370   11.9540   28.8810 C.ar  453  PHE453     -0.0042
    144  CD2      118.9010   13.6940   28.9510 C.ar  453  PHE453     -0.0042
    145  CE1      121.4910   12.8110   29.4090 C.ar  453  PHE453     -0.0003
    146  CE2      119.8510   14.5620   29.4670 C.ar  453  PHE453     -0.0003
    147  CZ       121.1490   14.1200   29.6990 C.ar  453  PHE453     -0.0000
    148  N        114.1940   17.6560   32.1430 N.3   459  PHE459     -0.1241
    149  CA       115.6110   17.8960   32.3990 C.3   459  PHE459      0.1605
    150  C        115.8460   19.3780   32.4740 C.2   459  PHE459      0.2264
    151  O        115.3720   20.1130   31.6100 O.2   459  PHE459     -0.2867
    152  CB       116.4480   17.3600   31.2540 C.3   459  PHE459      0.0534
    153  CG       117.9310   17.4700   31.4760 C.ar  459  PHE459     -0.0203
    154  CD1      118.6160   16.4760   32.1620 C.ar  459  PHE459     -0.0042
    155  CD2      118.6430   18.5370   30.9650 C.ar  459  PHE459     -0.0042
    156  CE1      119.9910   16.5440   32.3440 C.ar  459  PHE459     -0.0003
    157  CE2      120.0100   18.6220   31.1460 C.ar  459  PHE459     -0.0003
    158  CZ       120.6910   17.6260   31.8390 C.ar  459  PHE459     -0.0000
@<TRIPOS>BOND
     1    35    36    1
     2     1     2    1
     3     8     9    1
     4    36    37    1
     5    36    39    1
     6    10    11    2
     7    10     9    1
     8    26    27    2
     9    26    25    1
    10     3     4    2
    11     3     2    1
    12    45    46    2
    13    45    44    1
    14    37    38    2
    15    37    43   am
    16     2     5    1
    17     9    12    1
    18    43    44    1
    19    39    40    1
    20    51    52    1
    21    25    24    1
    22    25    28    1
    23    44    47    1
    24    41    40    1
    25    47    48    1
    26     5     7    1
    27     5     6    1
    28    24    18   am
    29    16    17    1
    30    12    13    1
    31    19    18    2
    32    18    17    1
    33    40    42    1
    34    28    29    1
    35    53    52    1
    36    53    54    2
    37    17    20    1
    38    52    55    1
    39    13    14    1
    40    30    29   ar
    41    30    32   ar
    42    48    49    1
    43    29    31   ar
    44    55    56    1
    45    57    56   ar
    46    57    59   ar
    47    14    15    1
    48    32    34   ar
    49    20    21    1
    50    56    58   ar
    51    22    21    2
    52    59    60   ar
    53    50    49    1
    54    31    33   ar
    55    21    23   am
    56   102   100   ar
    57   102   101   ar
    58    34    33   ar
    59   100    98   ar
    60    68    67    2
    61    58    60   ar
    62    58    61   ar
    63    60    62   ar
    64   101    99   ar
    65    65    66    1
    66    69    70    1
    67    69    66    1
    68    69    71    1
    69    98    97   ar
    70    61    63   ar
    71    67    66    1
    72    62    64   ar
    73    99    97   ar
    74    94    95    2
    75    94    93    1
    76    97    96    1
    77    63    64   ar
    78    93    96    1
    79    93    92    1
    80    89    91   ar
    81    89    87   ar
    82   108   107    1
    83   140   139    2
    84    91    90   ar
    85   141   142    1
    86   141   138    1
    87   103   104    1
    88   139   138    1
    89   104   107    1
    90   104   105    1
    91   142   143   ar
    92   142   144   ar
    93    87    86   ar
    94   114   113    1
    95   143   145   ar
    96   144   146   ar
    97   138   137    1
    98    90    88   ar
    99    77    76    1
   100    77    78    1
   101    75    74    2
   102    76    73    1
   103   145   147   ar
   104   146   147   ar
   105   132   131    2
   106   109   105   am
   107   109   110    1
   108   105   106    2
   109    72    73    1
   110    86    88   ar
   111    86    85    1
   112    78    80   ar
   113    78    79   ar
   114    74    73    1
   115   136   134   ar
   116   113   110    1
   117   133   134    1
   118   133   130    1
   119    84    83    2
   120   134   135   ar
   121   110   111    1
   122   131   130    1
   123   155   157   ar
   124   155   153   ar
   125    85    82    1
   126   157   158   ar
   127    82    83    1
   128    82    81    1
   129   152   153    1
   130   152   149    1
   131   130   129    1
   132   120   119    1
   133   153   154   ar
   134   151   150    2
   135   158   156   ar
   136   115   111   am
   137   115   116    1
   138   148   149    1
   139   154   156   ar
   140   111   112    2
   141   149   150    1
   142   119   116    1
   143   116   117    1
   144   128   126    1
   145   117   118    2
   146   127   126    1
   147   126   125    1
   148   125   122    1
   149   124   123    2
   150   122   123    1
   151   122   121    1
