@<TRIPOS>MOLECULE
tmp/5l15A00.pdb
 171 160 0 0 0
SMALL
GASTEIGER

@<TRIPOS>ATOM
      1  N         16.0060  -12.9330  -63.3970 N.3    37  ARG37      -0.1231
      2  CA        16.5130  -14.3000  -63.2980 C.3    37  ARG37       0.1694
      3  C         17.0540  -14.5080  -61.8840 C.2    37  ARG37       0.2591
      4  O         17.0550  -13.5750  -61.0770 O.2    37  ARG37      -0.2718
      5  CB        17.5850  -14.5990  -64.3510 C.3    37  ARG37       0.0321
      6  CG        17.0600  -15.4040  -65.5510 C.3    37  ARG37       0.0489
      7  CD        18.0870  -16.4270  -66.0500 C.3    37  ARG37       0.2205
      8  NE        18.3650  -17.4600  -65.0520 N.pl3  37  ARG37      -0.0865
      9  CZ        19.4830  -18.1790  -65.0090 C.cat  37  ARG37       0.5346
     10  NH1       20.4430  -17.9740  -65.9060 N.pl3  37  ARG37       0.1354
     11  NH2       19.6510  -19.0950  -64.0600 N.pl3  37  ARG37       0.1354
     12  N         17.5010  -15.7290  -61.5960 N.am   38  GLU38      -0.1979
     13  CA        17.9800  -16.1080  -60.2660 C.3    38  GLU38       0.1602
     14  C         16.9640  -15.7760  -59.1650 C.2    38  GLU38       0.2287
     15  O         17.2770  -15.0430  -58.2280 O.2    38  GLU38      -0.2864
     16  CB        19.3210  -15.4240  -59.9540 C.3    38  GLU38       0.0415
     17  CG        20.4900  -15.8400  -60.8430 C.3    38  GLU38       0.1163
     18  CD        20.5600  -15.0520  -62.1450 C.2    38  GLU38       0.3649
     19  OE1       20.0520  -13.9090  -62.1820 O.co2  38  GLU38      -0.2457
     20  OE2       21.1140  -15.5760  -63.1350 O.co2  38  GLU38      -0.2457
     21  N         24.6360  -11.4670  -67.8780 N.3    70  ASP70      -0.1225
     22  CA        24.5440  -11.7330  -66.4400 C.3    70  ASP70       0.1805
     23  C         24.7660  -10.5410  -65.5180 C.2    70  ASP70       0.2597
     24  O         24.0160  -10.3380  -64.5700 O.2    70  ASP70      -0.2718
     25  CB        25.5430  -12.8310  -66.0680 C.3    70  ASP70       0.1424
     26  CG        25.0540  -14.2140  -66.4490 C.2    70  ASP70       0.3668
     27  OD1       23.9210  -14.5770  -66.0510 O.co2  70  ASP70      -0.2456
     28  OD2       25.7950  -14.9320  -67.1570 O.co2  70  ASP70      -0.2456
     29  N         25.8120   -9.7700  -65.7740 N.am   71  ARG71      -0.1979
     30  CA        26.2110   -8.7250  -64.8440 C.3    71  ARG71       0.1597
     31  C         26.2030   -7.3640  -65.5080 C.2    71  ARG71       0.2287
     32  O         26.8780   -7.1450  -66.5120 O.2    71  ARG71      -0.2864
     33  CB        27.5980   -9.0330  -64.2710 C.3    71  ARG71       0.0334
     34  CG        27.6620  -10.3640  -63.5310 C.3    71  ARG71       0.0492
     35  CD        29.0730  -10.6880  -63.0850 C.3    71  ARG71       0.2205
     36  NE        29.9670  -10.7920  -64.2310 N.pl3  71  ARG71      -0.0865
     37  CZ        30.1360  -11.9010  -64.9410 C.cat  71  ARG71       0.5346
     38  NH1       29.4760  -13.0020  -64.6120 N.pl3  71  ARG71       0.1354
     39  NH2       30.9650  -11.9120  -65.9750 N.pl3  71  ARG71       0.1354
     40  N         21.0140   -4.1070  -62.9480 N.3    75  ARG75      -0.1245
     41  CA        20.4450   -5.1980  -62.1660 C.3    75  ARG75       0.1563
     42  C         20.2470   -4.7800  -60.7140 C.2    75  ARG75       0.2260
     43  O         20.9410   -3.9000  -60.2120 O.2    75  ARG75      -0.2867
     44  CB        21.3280   -6.4440  -62.2460 C.3    75  ARG75       0.0307
     45  CG        21.5560   -6.9480  -63.6670 C.3    75  ARG75       0.0489
     46  CD        21.7110   -8.4710  -63.7000 C.3    75  ARG75       0.2205
     47  NE        20.4330   -9.1680  -63.5780 N.pl3  75  ARG75      -0.0865
     48  CZ        20.2890  -10.4880  -63.6710 C.cat  75  ARG75       0.5346
     49  NH1       19.0820  -11.0370  -63.5520 N.pl3  75  ARG75       0.1354
     50  NH2       21.3480  -11.2610  -63.8860 N.pl3  75  ARG75       0.1354
     51  N         24.2850   -7.8200  -58.9800 N.3    98  TRP98      -0.1227
     52  CA        23.9960   -8.9360  -59.8820 C.3    98  TRP98       0.1737
     53  C         24.2820  -10.3060  -59.2660 C.2    98  TRP98       0.2596
     54  O         24.3750  -11.3060  -59.9760 O.2    98  TRP98      -0.2718
     55  CB        24.7860   -8.7870  -61.1850 C.3    98  TRP98       0.0564
     56  CG        26.1720   -8.2180  -61.0250 C.ar   98  TRP98       0.0003
     57  CD1       26.6080   -6.9940  -61.4500 C.ar   98  TRP98       0.0946
     58  CD2       27.3030   -8.8520  -60.4040 C.ar   98  TRP98       0.0152
     59  NE1       27.9370   -6.8300  -61.1360 N.ar   98  TRP98      -0.2442
     60  CE2       28.3860   -7.9540  -60.4920 C.ar   98  TRP98       0.0810
     61  CE3       27.5030  -10.0900  -59.7840 C.ar   98  TRP98       0.0012
     62  CZ2       29.6500   -8.2530  -59.9810 C.ar   98  TRP98       0.0191
     63  CZ3       28.7620  -10.3860  -59.2760 C.ar   98  TRP98       0.0001
     64  CH2       29.8170   -9.4690  -59.3790 C.ar   98  TRP98       0.0015
     65  N         24.4340  -10.3430  -57.9460 N.am   99  SER99      -0.1952
     66  CA        24.4890  -11.5930  -57.1930 C.3    99  SER99       0.1924
     67  C         24.0800  -11.2530  -55.7770 C.2    99  SER99       0.2314
     68  O         24.4900  -10.2180  -55.2590 O.2    99  SER99      -0.2863
     69  CB        25.8810  -12.2290  -57.2210 C.3    99  SER99       0.2116
     70  OG        25.8800  -13.4830  -56.5470 O.3    99  SER99      -0.2180
     71  N         35.0830  -11.9430  -60.0990 N.3   142  ILE142     -0.1245
     72  CA        33.6410  -12.0790  -59.9060 C.3   142  ILE142      0.1561
     73  C         33.2770  -12.6120  -58.5170 C.2   142  ILE142      0.2260
     74  O         32.8340  -13.7540  -58.3750 O.2   142  ILE142     -0.2867
     75  CB        33.0040  -12.9960  -60.9840 C.3   142  ILE142      0.0252
     76  CG1       33.5560  -12.6650  -62.3750 C.3   142  ILE142      0.0019
     77  CG2       31.4850  -12.8510  -60.9840 C.3   142  ILE142      0.0019
     78  CD1       32.9670  -13.5170  -63.4980 C.3   142  ILE142      0.0001
     79  N         31.0330  -13.5350  -55.7280 N.3   144  ARG144     -0.1245
     80  CA        29.6630  -14.0000  -55.9260 C.3   144  ARG144      0.1563
     81  C         29.1560  -14.8170  -54.7430 C.2   144  ARG144      0.2260
     82  O         29.9480  -15.3870  -53.9860 O.2   144  ARG144     -0.2867
     83  CB        29.5680  -14.8190  -57.2140 C.3   144  ARG144      0.0307
     84  CG        30.5890  -15.9330  -57.3290 C.3   144  ARG144      0.0489
     85  CD        30.6820  -16.4190  -58.7630 C.3   144  ARG144      0.2205
     86  NE        31.5730  -17.5690  -58.9130 N.pl3 144  ARG144     -0.0865
     87  CZ        32.8940  -17.4770  -59.0510 C.cat 144  ARG144      0.5346
     88  NH1       33.4780  -16.2850  -59.0440 N.pl3 144  ARG144      0.1354
     89  NH2       33.6300  -18.5770  -59.1880 N.pl3 144  ARG144      0.1354
     90  N         22.5520  -16.7250  -54.2160 N.3   147  GLU147     -0.1245
     91  CA        21.3710  -16.5980  -55.0900 C.3   147  GLU147      0.1567
     92  C         20.1490  -17.3400  -54.5300 C.2   147  GLU147      0.2260
     93  O         19.2690  -17.7640  -55.2870 O.2   147  GLU147     -0.2867
     94  CB        21.6470  -17.1050  -56.5180 C.3   147  GLU147      0.0388
     95  CG        23.0260  -16.7950  -57.0830 C.3   147  GLU147      0.1160
     96  CD        23.1970  -15.3470  -57.5090 C.2   147  GLU147      0.3649
     97  OE1       22.3080  -14.5170  -57.2080 O.co2 147  GLU147     -0.2457
     98  OE2       24.2340  -15.0420  -58.1470 O.co2 147  GLU147     -0.2457
     99  N         35.5540  -19.9740  -62.1520 N.3   166  ALA166     -0.1245
    100  CA        34.3580  -20.8060  -62.1430 C.3   166  ALA166      0.1562
    101  C         34.6420  -22.2110  -62.6720 C.2   166  ALA166      0.2260
    102  O         33.7600  -23.0720  -62.6610 O.2   166  ALA166     -0.2867
    103  CB        33.2670  -20.1600  -62.9580 C.3   166  ALA166      0.0290
    104  N         29.7800  -23.2930  -55.6560 N.3   196  GLU196     -0.1231
    105  CA        29.0080  -22.2010  -56.2440 C.3   196  GLU196      0.1699
    106  C         27.5660  -22.2680  -55.7590 C.2   196  GLU196      0.2592
    107  O         27.0140  -23.3560  -55.5880 O.2   196  GLU196     -0.2718
    108  CB        29.0250  -22.2570  -57.7770 C.3   196  GLU196      0.0402
    109  CG        30.3980  -22.3390  -58.4280 C.3   196  GLU196      0.1161
    110  CD        31.0760  -20.9890  -58.5700 C.2   196  GLU196      0.3649
    111  OE1       30.4990  -19.9780  -58.1210 O.co2 196  GLU196     -0.2457
    112  OE2       32.1920  -20.9420  -59.1350 O.co2 196  GLU196     -0.2457
    113  N         26.9780  -21.0990  -55.5280 N.am  197  GLU197     -0.1979
    114  CA        25.5300  -20.9410  -55.3730 C.3   197  GLU197      0.1602
    115  C         24.8700  -21.9220  -54.4030 C.2   197  GLU197      0.2287
    116  O         24.0680  -22.7550  -54.8110 O.2   197  GLU197     -0.2864
    117  CB        24.8680  -21.0500  -56.7510 C.3   197  GLU197      0.0415
    118  CG        25.5060  -20.1290  -57.7830 C.3   197  GLU197      0.1163
    119  CD        24.9090  -20.2740  -59.1710 C.2   197  GLU197      0.3649
    120  OE1       24.5470  -21.4100  -59.5500 O.co2 197  GLU197     -0.2457
    121  OE2       24.8090  -19.2450  -59.8850 O.co2 197  GLU197     -0.2457
    122  N         26.8280  -26.1790  -55.8090 N.3   212  ARG212     -0.1245
    123  CA        27.0780  -26.5240  -57.1970 C.3   212  ARG212      0.1563
    124  C         28.5780  -26.6080  -57.4640 C.2   212  ARG212      0.2260
    125  O         29.2940  -25.6230  -57.2940 O.2   212  ARG212     -0.2867
    126  CB        26.4260  -25.4810  -58.1090 C.3   212  ARG212      0.0307
    127  CG        26.9810  -25.3920  -59.5230 C.3   212  ARG212      0.0489
    128  CD        26.3550  -24.2040  -60.2340 C.3   212  ARG212      0.2205
    129  NE        26.8030  -24.0480  -61.6140 N.pl3 212  ARG212     -0.0865
    130  CZ        26.2880  -23.1630  -62.4640 C.cat 212  ARG212      0.5346
    131  NH1       25.3080  -22.3560  -62.0800 N.pl3 212  ARG212      0.1354
    132  NH2       26.7500  -23.0850  -63.7010 N.pl3 212  ARG212      0.1354
    133  N         30.9550  -26.4430  -60.1740 N.3   214  ASN214     -0.1240
    134  CA        30.9510  -26.0290  -61.5690 C.3   214  ASN214      0.1653
    135  C         32.2120  -26.4730  -62.3110 C.2   214  ASN214      0.2266
    136  O         32.3930  -26.1630  -63.4850 O.2   214  ASN214     -0.2867
    137  CB        30.7890  -24.5090  -61.6550 C.3   214  ASN214      0.1155
    138  CG        30.3660  -24.0420  -63.0330 C.2   214  ASN214      0.2627
    139  OD1       29.2330  -24.2680  -63.4520 O.2   214  ASN214     -0.2716
    140  ND2       31.2680  -23.3640  -63.7330 N.am  214  ASN214     -0.0877
    141  N         30.5030  -26.7470  -66.0580 N.3   266  ASN266     -0.1240
    142  CA        29.1120  -26.3310  -66.0660 C.3   266  ASN266      0.1653
    143  C         28.3760  -26.9150  -64.8700 C.2   266  ASN266      0.2266
    144  O         28.9370  -27.6990  -64.1120 O.2   266  ASN266     -0.2867
    145  CB        28.4220  -26.7360  -67.3700 C.3   266  ASN266      0.1155
    146  CG        27.2420  -25.8350  -67.7020 C.2   266  ASN266      0.2627
    147  OD1       26.9600  -24.8750  -66.9800 O.2   266  ASN266     -0.2716
    148  ND2       26.5620  -26.1240  -68.8060 N.am  266  ASN266     -0.0877
    149  N         18.6240  -27.9820  -69.0790 N.3   290  ARG290     -0.1245
    150  CA        17.8040  -27.5260  -67.9650 C.3   290  ARG290      0.1563
    151  C         16.3190  -27.6620  -68.2830 C.2   290  ARG290      0.2260
    152  O         15.6070  -26.6740  -68.4300 O.2   290  ARG290     -0.2867
    153  CB        18.1450  -26.0770  -67.6120 C.3   290  ARG290      0.0307
    154  CG        19.5470  -25.9100  -67.0440 C.3   290  ARG290      0.0489
    155  CD        19.9290  -24.4440  -66.8550 C.3   290  ARG290      0.2205
    156  NE        21.2510  -24.3320  -66.2460 N.pl3 290  ARG290     -0.0865
    157  CZ        21.8620  -23.1830  -65.9720 C.cat 290  ARG290      0.5346
    158  NH1       21.2750  -22.0300  -66.2540 N.pl3 290  ARG290      0.1354
    159  NH2       23.0640  -23.1900  -65.4090 N.pl3 290  ARG290      0.1354
    160  N         17.3800  -22.8090  -62.2070 N.3   324  TYR324     -0.1241
    161  CA        17.8240  -22.8540  -60.8180 C.3   324  TYR324      0.1605
    162  C         16.7400  -23.4060  -59.8960 C.2   324  TYR324      0.2264
    163  O         15.5460  -23.2970  -60.1770 O.2   324  TYR324     -0.2867
    164  CB        18.2360  -21.4660  -60.3340 C.3   324  TYR324      0.0534
    165  CG        19.6210  -21.0410  -60.7440 C.ar  324  TYR324     -0.0201
    166  CD1       20.3200  -21.7240  -61.7380 C.ar  324  TYR324     -0.0009
    167  CD2       20.2410  -19.9560  -60.1310 C.ar  324  TYR324     -0.0009
    168  CE1       21.6030  -21.3310  -62.1110 C.ar  324  TYR324      0.0417
    169  CE2       21.5160  -19.5600  -60.4930 C.ar  324  TYR324      0.0417
    170  CZ        22.1910  -20.2490  -61.4820 C.ar  324  TYR324      0.1957
    171  OH        23.4570  -19.8530  -61.8410 O.3   324  TYR324     -0.2866
@<TRIPOS>BOND
     1   149   150    1
     2   148   146   am
     3   152   151    2
     4   151   150    1
     5   150   153    1
     6    21    22    1
     7   146   145    1
     8   146   147    2
     9   153   154    1
    10   145   142    1
    11    28    26   ar
    12   154   155    1
    13   155   156    1
    14    32    31    2
    15    26    25    1
    16    26    27   ar
    17    22    25    1
    18    22    23    1
    19   158   157    1
    20   156   157    2
    21   142   141    1
    22   142   143    1
    23     7     6    1
    24     7     8    1
    25    39    37    1
    26   157   159    1
    27    10     9    1
    28    29    23   am
    29    29    30    1
    30     6     5    1
    31    23    24    2
    32    31    30    1
    33     8     9    2
    34     9    11    1
    35    37    38    1
    36    37    36    2
    37   143   144    2
    38    30    33    1
    39     5     2    1
    40    33    34    1
    41    36    35    1
    42    50    48    1
    43   140   138   am
    44   132   130    1
    45    46    45    1
    46    46    47    1
    47    48    47    2
    48    48    49    1
    49    45    44    1
    50    34    35    1
    51    78    76    1
    52   136   135    2
    53   139   138    2
    54     1     2    1
    55     2     3    1
    56    20    18   ar
    57   138   137    1
    58   103   100    1
    59    40    41    1
    60   101   102    2
    61   101   100    1
    62   130   131    1
    63   130   129    2
    64    76    75    1
    65   135   134    1
    66    44    41    1
    67   160   161    1
    68    19    18   ar
    69    41    42    1
    70    99   100    1
    71    18    17    1
    72   168   166   ar
    73   168   170   ar
    74     3    12   am
    75     3     4    2
    76   171   170    1
    77   166   165   ar
    78   137   134    1
    79   129   128    1
    80    12    13    1
    81   134   133    1
    82   170   169   ar
    83    57    59   ar
    84    57    56   ar
    85    55    56    1
    86    55    52    1
    87    59    60   ar
    88    56    58   ar
    89    75    77    1
    90    75    72    1
    91    17    16    1
    92   161   164    1
    93   161   162    1
    94   165   164    1
    95   165   167   ar
    96    42    43    2
    97   169   167   ar
    98    60    58   ar
    99    60    62   ar
   100    58    61   ar
   101    13    16    1
   102    13    14    1
   103   128   127    1
   104   163   162    2
   105    71    72    1
   106    62    64   ar
   107    54    53    2
   108    72    73    1
   109   121   119   ar
   110    52    53    1
   111    52    51    1
   112    61    63   ar
   113   120   119   ar
   114   127   126    1
   115    64    63   ar
   116    53    65   am
   117    89    87    1
   118   119   118    1
   119    14    15    2
   120   112   110   ar
   121    87    88    1
   122    87    86    2
   123    86    85    1
   124    85    84    1
   125   110   109    1
   126   110   111   ar
   127    73    74    2
   128   109   108    1
   129    98    96   ar
   130   126   123    1
   131    65    66    1
   132   118   117    1
   133   108   105    1
   134    96    97   ar
   135    96    95    1
   136   124   125    2
   137   124   123    1
   138    84    83    1
   139    69    66    1
   140    69    70    1
   141    83    80    1
   142   123   122    1
   143    66    67    1
   144    95    94    1
   145   117   114    1
   146    94    91    1
   147   105   106    1
   148   105   104    1
   149    80    79    1
   150    80    81    1
   151    67    68    2
   152   106   107    2
   153   106   113   am
   154   113   114    1
   155   114   115    1
   156    93    92    2
   157    91    92    1
   158    91    90    1
   159   116   115    2
   160    81    82    2
