@<TRIPOS>MOLECULE
tmp/5l18A00.pdb
 179 167 0 0 0
SMALL
GASTEIGER

@<TRIPOS>ATOM
      1  N         15.9290  -13.0260  -63.4180 N.3    37  ARG37      -0.1231
      2  CA        16.4190  -14.3970  -63.3470 C.3    37  ARG37       0.1694
      3  C         16.9470  -14.5970  -61.9300 C.2    37  ARG37       0.2591
      4  O         16.9400  -13.6590  -61.1260 O.2    37  ARG37      -0.2718
      5  CB        17.4990  -14.6960  -64.4000 C.3    37  ARG37       0.0321
      6  CG        16.9910  -15.5520  -65.5780 C.3    37  ARG37       0.0489
      7  CD        18.0640  -16.5340  -66.0860 C.3    37  ARG37       0.2205
      8  NE        18.3320  -17.5880  -65.1000 N.pl3  37  ARG37      -0.0865
      9  CZ        19.4810  -18.2500  -64.9990 C.cat  37  ARG37       0.5346
     10  NH1       20.4870  -17.9890  -65.8320 N.pl3  37  ARG37       0.1354
     11  NH2       19.6250  -19.1780  -64.0600 N.pl3  37  ARG37       0.1354
     12  N         17.3840  -15.8140  -61.6280 N.am   38  GLU38      -0.1979
     13  CA        17.8790  -16.1760  -60.2970 C.3    38  GLU38       0.1602
     14  C         16.8810  -15.8280  -59.1820 C.2    38  GLU38       0.2287
     15  O         17.2130  -15.1070  -58.2410 O.2    38  GLU38      -0.2864
     16  CB        19.2350  -15.4970  -60.0320 C.3    38  GLU38       0.0415
     17  CG        20.3640  -15.9230  -60.9900 C.3    38  GLU38       0.1163
     18  CD        20.3630  -15.1540  -62.3080 C.2    38  GLU38       0.3649
     19  OE1       19.9610  -13.9730  -62.3080 O.co2  38  GLU38      -0.2457
     20  OE2       20.7600  -15.7340  -63.3460 O.co2  38  GLU38      -0.2457
     21  N         16.6750  -11.3050  -59.1870 N.3    53  LEU53      -0.1245
     22  CA        17.4970  -10.2400  -59.7390 C.3    53  LEU53       0.1561
     23  C         16.8340   -9.6590  -60.9850 C.2    53  LEU53       0.2260
     24  O         16.7470  -10.3180  -62.0180 O.2    53  LEU53      -0.2867
     25  CB        18.9010  -10.7580  -60.0760 C.3    53  LEU53       0.0270
     26  CG        19.7670  -11.1690  -58.8880 C.3    53  LEU53       0.0019
     27  CD1       21.0890  -11.7630  -59.3830 C.3    53  LEU53       0.0001
     28  CD2       20.0320   -9.9750  -57.9970 C.3    53  LEU53       0.0001
     29  N         24.4980  -11.9390  -67.6370 N.3    70  ASP70      -0.1225
     30  CA        24.2990  -12.1200  -66.1980 C.3    70  ASP70       0.1805
     31  C         24.5990  -10.9000  -65.3280 C.2    70  ASP70       0.2597
     32  O         24.0040  -10.7440  -64.2740 O.2    70  ASP70      -0.2718
     33  CB        25.1650  -13.2810  -65.7000 C.3    70  ASP70       0.1424
     34  CG        24.8190  -14.5980  -66.3700 C.2    70  ASP70       0.3668
     35  OD1       23.6330  -14.7980  -66.7260 O.co2  70  ASP70      -0.2456
     36  OD2       25.7380  -15.4350  -66.5340 O.co2  70  ASP70      -0.2456
     37  N         25.5500  -10.0690  -65.7480 N.am   71  ARG71      -0.1979
     38  CA        26.0380   -8.9950  -64.8910 C.3    71  ARG71       0.1597
     39  C         26.0120   -7.6630  -65.6220 C.2    71  ARG71       0.2287
     40  O         26.6330   -7.5060  -66.6740 O.2    71  ARG71      -0.2864
     41  CB        27.4570   -9.3060  -64.4020 C.3    71  ARG71       0.0334
     42  CG        27.5510  -10.5700  -63.5550 C.3    71  ARG71       0.0492
     43  CD        29.0080  -10.8840  -63.1640 C.3    71  ARG71       0.2205
     44  NE        29.8680  -10.9690  -64.3410 N.pl3  71  ARG71      -0.0865
     45  CZ        29.9160  -12.0120  -65.1620 C.cat  71  ARG71       0.5346
     46  NH1       29.1370  -13.0720  -64.9570 N.pl3  71  ARG71       0.1354
     47  NH2       30.7250  -11.9800  -66.2120 N.pl3  71  ARG71       0.1354
     48  N         21.0190   -4.3230  -62.8990 N.3    75  ARG75      -0.1245
     49  CA        20.4110   -5.3790  -62.0870 C.3    75  ARG75       0.1563
     50  C         20.2520   -4.9600  -60.6300 C.2    75  ARG75       0.2260
     51  O         21.0030   -4.1240  -60.1150 O.2    75  ARG75      -0.2867
     52  CB        21.2280   -6.6790  -62.1810 C.3    75  ARG75       0.0307
     53  CG        21.3960   -7.1800  -63.6170 C.3    75  ARG75       0.0489
     54  CD        21.5970   -8.6860  -63.6750 C.3    75  ARG75       0.2205
     55  NE        20.3500   -9.4280  -63.4670 N.pl3  75  ARG75      -0.0865
     56  CZ        20.2490  -10.7470  -63.5880 C.cat  75  ARG75       0.5346
     57  NH1       19.0770  -11.3530  -63.3990 N.pl3  75  ARG75       0.1354
     58  NH2       21.3220  -11.4630  -63.9130 N.pl3  75  ARG75       0.1354
     59  N         24.2460   -7.8690  -58.9410 N.3    98  TRP98      -0.1227
     60  CA        23.9730   -8.9950  -59.8380 C.3    98  TRP98       0.1737
     61  C         24.2300  -10.3660  -59.2010 C.2    98  TRP98       0.2596
     62  O         24.2910  -11.3780  -59.9000 O.2    98  TRP98      -0.2718
     63  CB        24.7920   -8.8590  -61.1360 C.3    98  TRP98       0.0564
     64  CG        26.2110   -8.3380  -60.9850 C.ar   98  TRP98       0.0003
     65  CD1       26.6810   -7.1070  -61.3800 C.ar   98  TRP98       0.0946
     66  CD2       27.3360   -9.0290  -60.4180 C.ar   98  TRP98       0.0152
     67  NE1       28.0230   -6.9960  -61.0880 N.ar   98  TRP98      -0.2442
     68  CE2       28.4490   -8.1600  -60.5060 C.ar   98  TRP98       0.0810
     69  CE3       27.5130  -10.2960  -59.8450 C.ar   98  TRP98       0.0012
     70  CZ2       29.7130   -8.5120  -60.0340 C.ar   98  TRP98       0.0191
     71  CZ3       28.7670  -10.6470  -59.3810 C.ar   98  TRP98       0.0001
     72  CH2       29.8560   -9.7550  -59.4780 C.ar   98  TRP98       0.0015
     73  N         24.3790  -10.3940  -57.8770 N.am   99  SER99      -0.1952
     74  CA        24.4240  -11.6510  -57.1170 C.3    99  SER99       0.1924
     75  C         23.9420  -11.3390  -55.7110 C.2    99  SER99       0.2314
     76  O         24.3510  -10.3180  -55.1460 O.2    99  SER99      -0.2863
     77  CB        25.8370  -12.2480  -57.0740 C.3    99  SER99       0.2116
     78  OG        25.8370  -13.5030  -56.3950 O.3    99  SER99      -0.2180
     79  N         34.9360  -12.2070  -60.1750 N.3   142  ILE142     -0.1245
     80  CA        33.4930  -12.3630  -59.9700 C.3   142  ILE142      0.1561
     81  C         33.1280  -12.9040  -58.5760 C.2   142  ILE142      0.2260
     82  O         32.6400  -14.0290  -58.4180 O.2   142  ILE142     -0.2867
     83  CB        32.8690  -13.2560  -61.0640 C.3   142  ILE142      0.0252
     84  CG1       33.3900  -12.8390  -62.4470 C.3   142  ILE142      0.0019
     85  CG2       31.3440  -13.1220  -61.0570 C.3   142  ILE142      0.0019
     86  CD1       32.7850  -13.6380  -63.5960 C.3   142  ILE142      0.0001
     87  N         30.8640  -13.7030  -55.7370 N.3   144  ARG144     -0.1245
     88  CA        29.4860  -14.1580  -55.9520 C.3   144  ARG144      0.1563
     89  C         28.9610  -14.9690  -54.7590 C.2   144  ARG144      0.2260
     90  O         29.7400  -15.5040  -53.9680 O.2   144  ARG144     -0.2867
     91  CB        29.4010  -14.9750  -57.2450 C.3   144  ARG144      0.0307
     92  CG        30.4160  -16.1210  -57.3480 C.3   144  ARG144      0.0489
     93  CD        30.6060  -16.5180  -58.8030 C.3   144  ARG144      0.2205
     94  NE        31.3990  -17.7410  -58.9840 N.pl3 144  ARG144     -0.0865
     95  CZ        32.7270  -17.7780  -59.0590 C.cat 144  ARG144      0.5346
     96  NH1       33.4410  -16.6650  -58.9300 N.pl3 144  ARG144      0.1354
     97  NH2       33.3460  -18.9400  -59.2510 N.pl3 144  ARG144      0.1354
     98  N         22.3700  -16.8050  -54.2250 N.3   147  GLU147     -0.1245
     99  CA        21.1730  -16.6620  -55.0780 C.3   147  GLU147      0.1567
    100  C         19.9390  -17.3860  -54.5070 C.2   147  GLU147      0.2260
    101  O         19.0150  -17.7340  -55.2420 O.2   147  GLU147     -0.2867
    102  CB        21.4210  -17.1550  -56.5230 C.3   147  GLU147      0.0388
    103  CG        22.8090  -16.8820  -57.1130 C.3   147  GLU147      0.1160
    104  CD        23.1470  -15.4090  -57.2840 C.2   147  GLU147      0.3649
    105  OE1       22.3360  -14.5310  -56.8980 O.co2 147  GLU147     -0.2457
    106  OE2       24.2550  -15.1310  -57.7990 O.co2 147  GLU147     -0.2457
    107  N         35.5840  -20.1790  -62.2320 N.3   166  ALA166     -0.1245
    108  CA        34.4070  -21.0320  -62.3490 C.3   166  ALA166      0.1562
    109  C         34.7850  -22.3870  -62.9420 C.2   166  ALA166      0.2260
    110  O         33.9380  -23.2710  -63.0800 O.2   166  ALA166     -0.2867
    111  CB        33.3460  -20.3610  -63.2000 C.3   166  ALA166      0.0290
    112  N         29.6440  -23.2500  -55.5090 N.3   196  GLU196     -0.1231
    113  CA        28.8800  -22.1050  -56.0120 C.3   196  GLU196      0.1699
    114  C         27.4240  -22.1750  -55.5570 C.2   196  GLU196      0.2592
    115  O         26.8850  -23.2670  -55.3770 O.2   196  GLU196     -0.2718
    116  CB        28.9000  -22.0570  -57.5450 C.3   196  GLU196      0.0402
    117  CG        30.2740  -22.0190  -58.1810 C.3   196  GLU196      0.1161
    118  CD        30.4790  -20.7860  -59.0360 C.2   196  GLU196      0.3649
    119  OE1       29.9400  -19.7190  -58.6800 O.co2 196  GLU196     -0.2457
    120  OE2       31.1810  -20.8710  -60.0620 O.co2 196  GLU196     -0.2457
    121  N         26.7930  -21.0140  -55.3900 N.am  197  GLU197     -0.1979
    122  CA        25.3250  -20.9150  -55.3030 C.3   197  GLU197      0.1602
    123  C         24.6650  -21.8740  -54.3090 C.2   197  GLU197      0.2287
    124  O         23.7770  -22.6530  -54.6680 O.2   197  GLU197     -0.2864
    125  CB        24.7210  -21.1290  -56.6980 C.3   197  GLU197      0.0415
    126  CG        25.1840  -20.0760  -57.7040 C.3   197  GLU197      0.1163
    127  CD        24.6860  -20.3180  -59.1220 C.2   197  GLU197      0.3649
    128  OE1       24.4350  -21.4900  -59.4890 O.co2 197  GLU197     -0.2457
    129  OE2       24.5490  -19.3230  -59.8680 O.co2 197  GLU197     -0.2457
    130  N         26.6630  -26.0750  -55.8070 N.3   212  ARG212     -0.1245
    131  CA        26.9580  -26.4090  -57.1940 C.3   212  ARG212      0.1563
    132  C         28.4730  -26.5060  -57.3800 C.2   212  ARG212      0.2260
    133  O         29.2010  -25.5620  -57.0820 O.2   212  ARG212     -0.2867
    134  CB        26.3520  -25.3450  -58.1240 C.3   212  ARG212      0.0307
    135  CG        26.9110  -25.2750  -59.5510 C.3   212  ARG212      0.0489
    136  CD        26.2720  -24.0730  -60.2630 C.3   212  ARG212      0.2205
    137  NE        26.7670  -23.8520  -61.6240 N.pl3 212  ARG212     -0.0865
    138  CZ        26.2300  -22.9810  -62.4780 C.cat 212  ARG212      0.5346
    139  NH1       25.1710  -22.2690  -62.1200 N.pl3 212  ARG212      0.1354
    140  NH2       26.7510  -22.8260  -63.6940 N.pl3 212  ARG212      0.1354
    141  N         30.9720  -26.4080  -60.1430 N.3   214  ASN214     -0.1240
    142  CA        30.9750  -26.0360  -61.5490 C.3   214  ASN214      0.1653
    143  C         32.2020  -26.5450  -62.2780 C.2   214  ASN214      0.2266
    144  O         32.2780  -26.4470  -63.4860 O.2   214  ASN214     -0.2867
    145  CB        30.8790  -24.5150  -61.7100 C.3   214  ASN214      0.1155
    146  CG        30.3080  -24.1180  -63.0560 C.2   214  ASN214      0.2627
    147  OD1       29.1340  -24.3580  -63.3300 O.2   214  ASN214     -0.2716
    148  ND2       31.1320  -23.5020  -63.9010 N.am  214  ASN214     -0.0877
    149  N         30.4220  -26.7620  -65.8870 N.3   266  ASN266     -0.1240
    150  CA        29.0250  -26.3560  -65.9290 C.3   266  ASN266      0.1653
    151  C         28.2720  -26.9080  -64.7270 C.2   266  ASN266      0.2266
    152  O         28.8270  -27.6360  -63.8970 O.2   266  ASN266     -0.2867
    153  CB        28.3600  -26.8030  -67.2380 C.3   266  ASN266      0.1155
    154  CG        27.1950  -25.9050  -67.6420 C.2   266  ASN266      0.2627
    155  OD1       26.8440  -24.9540  -66.9330 O.2   266  ASN266     -0.2716
    156  ND2       26.5960  -26.2000  -68.7920 N.am  266  ASN266     -0.0877
    157  N         18.5930  -27.9140  -68.9210 N.3   290  ARG290     -0.1245
    158  CA        17.7230  -27.4880  -67.8390 C.3   290  ARG290      0.1563
    159  C         16.2520  -27.6490  -68.2140 C.2   290  ARG290      0.2260
    160  O         15.5440  -26.6660  -68.4330 O.2   290  ARG290     -0.2867
    161  CB        18.0310  -26.0360  -67.4730 C.3   290  ARG290      0.0307
    162  CG        19.4520  -25.8600  -66.9630 C.3   290  ARG290      0.0489
    163  CD        19.8680  -24.3930  -66.8940 C.3   290  ARG290      0.2205
    164  NE        21.1810  -24.2960  -66.2590 N.pl3 290  ARG290     -0.0865
    165  CZ        21.7990  -23.1550  -65.9770 C.cat 290  ARG290      0.5346
    166  NH1       21.2250  -21.9970  -66.2800 N.pl3 290  ARG290      0.1354
    167  NH2       22.9870  -23.1720  -65.3800 N.pl3 290  ARG290      0.1354
    168  N         17.2360  -22.8430  -62.2420 N.3   324  TYR324     -0.1241
    169  CA        17.7020  -22.8900  -60.8550 C.3   324  TYR324      0.1605
    170  C         16.6220  -23.4180  -59.9110 C.2   324  TYR324      0.2264
    171  O         15.4290  -23.2970  -60.1810 O.2   324  TYR324     -0.2867
    172  CB        18.1380  -21.4970  -60.3860 C.3   324  TYR324      0.0534
    173  CG        19.5270  -21.0740  -60.8100 C.ar  324  TYR324     -0.0201
    174  CD1       20.2090  -21.7460  -61.8160 C.ar  324  TYR324     -0.0009
    175  CD2       20.1590  -19.9970  -60.1920 C.ar  324  TYR324     -0.0009
    176  CE1       21.4870  -21.3560  -62.2000 C.ar  324  TYR324      0.0417
    177  CE2       21.4420  -19.6090  -60.5590 C.ar  324  TYR324      0.0417
    178  CZ        22.0960  -20.2910  -61.5630 C.ar  324  TYR324      0.1957
    179  OH        23.3590  -19.9060  -61.9380 O.3   324  TYR324     -0.2866
@<TRIPOS>BOND
     1   157   158    1
     2   156   154   am
     3   160   159    2
     4   159   158    1
     5   158   161    1
     6   154   153    1
     7   154   155    2
     8    29    30    1
     9   161   162    1
    10   153   150    1
    11   162   163    1
    12   163   164    1
    13    35    34   ar
    14    40    39    2
    15    36    34   ar
    16    34    33    1
    17   166   165    1
    18   164   165    2
    19    47    45    1
    20    30    33    1
    21    30    31    1
    22     7     6    1
    23     7     8    1
    24   165   167    1
    25   150   149    1
    26   150   151    1
    27    10     9    1
    28    37    31   am
    29    37    38    1
    30    39    38    1
    31     6     5    1
    32    31    32    2
    33    45    46    1
    34    45    44    2
    35     8     9    2
    36     9    11    1
    37    38    41    1
    38   151   152    2
    39    41    42    1
    40     5     2    1
    41    44    43    1
    42    58    56    1
    43   148   146   am
    44   140   138    1
    45    54    53    1
    46    54    55    1
    47    53    52    1
    48    86    84    1
    49    56    55    2
    50    56    57    1
    51    42    43    1
    52   144   143    2
    53     1     2    1
    54     2     3    1
    55    20    18   ar
    56   147   146    2
    57   111   108    1
    58   110   109    2
    59   146   145    1
    60   109   108    1
    61    48    49    1
    62   138   139    1
    63   138   137    2
    64    84    83    1
    65   108   107    1
    66    18    19   ar
    67    18    17    1
    68   143   142    1
    69   168   169    1
    70   176   174   ar
    71   176   178   ar
    72    52    49    1
    73    49    50    1
    74    24    23    2
    75   179   178    1
    76     3    12   am
    77     3     4    2
    78   174   173   ar
    79   145   142    1
    80    12    13    1
    81   137   136    1
    82   178   177   ar
    83   142   141    1
    84    65    67   ar
    85    65    64   ar
    86    63    64    1
    87    63    60    1
    88    67    68   ar
    89    83    85    1
    90    83    80    1
    91    17    16    1
    92    23    22    1
    93    64    66   ar
    94   169   172    1
    95   169   170    1
    96   173   172    1
    97   173   175   ar
    98    50    51    2
    99   177   175   ar
   100    68    66   ar
   101    68    70   ar
   102    66    69   ar
   103    13    16    1
   104    13    14    1
   105   136   135    1
   106   171   170    2
   107    79    80    1
   108    25    22    1
   109    25    26    1
   110   120   118   ar
   111    70    72   ar
   112    80    81    1
   113    62    61    2
   114   129   127   ar
   115    69    71   ar
   116    60    61    1
   117    60    59    1
   118    22    21    1
   119   135   134    1
   120   128   127   ar
   121    72    71   ar
   122    27    26    1
   123    97    95    1
   124    61    73   am
   125    14    15    2
   126   127   126    1
   127    95    94    2
   128    95    96    1
   129   118   119   ar
   130   118   117    1
   131    94    93    1
   132    26    28    1
   133    93    92    1
   134    81    82    2
   135   117   116    1
   136   134   131    1
   137    73    74    1
   138   106   104   ar
   139   126   125    1
   140   116   113    1
   141   132   131    1
   142   132   133    2
   143    92    91    1
   144   104   103    1
   145   104   105   ar
   146    91    88    1
   147   131   130    1
   148    74    77    1
   149    74    75    1
   150   103   102    1
   151    77    78    1
   152   125   122    1
   153   102    99    1
   154   113   114    1
   155   113   112    1
   156    88    87    1
   157    88    89    1
   158    75    76    2
   159   114   121   am
   160   114   115    2
   161   121   122    1
   162   122   123    1
   163   101   100    2
   164    99   100    1
   165    99    98    1
   166    89    90    2
   167   124   123    2
