@<TRIPOS>MOLECULE
tmp/5l1aA02.pdb
 84 79 0 0 0
SMALL
GASTEIGER

@<TRIPOS>ATOM
      1  N          2.0160   48.1390    8.0530 N.3    42  PHE42      -0.1227
      2  CA         2.9780   47.8160    7.0000 C.3    42  PHE42       0.1736
      3  C          2.3560   46.9350    5.9180 C.2    42  PHE42       0.2595
      4  O          2.5190   47.1980    4.7220 O.2    42  PHE42      -0.2718
      5  CB         4.2080   47.1360    7.6060 C.3    42  PHE42       0.0547
      6  CG         5.1480   46.5590    6.5850 C.ar   42  PHE42      -0.0202
      7  CD1        6.0620   47.3640    5.9350 C.ar   42  PHE42      -0.0042
      8  CD2        5.1200   45.2070    6.2790 C.ar   42  PHE42      -0.0042
      9  CE1        6.9260   46.8350    4.9950 C.ar   42  PHE42      -0.0003
     10  CE2        5.9840   44.6740    5.3380 C.ar   42  PHE42      -0.0003
     11  CZ         6.8860   45.4900    4.6980 C.ar   42  PHE42      -0.0000
     12  N          1.6490   45.8790    6.3150 N.am   43  TYR43      -0.1976
     13  CA         1.1270   44.9490    5.3210 C.3    43  TYR43       0.1639
     14  C         -0.1310   45.4840    4.6510 C.2    43  TYR43       0.2290
     15  O         -0.3010   45.3320    3.4370 O.2    43  TYR43      -0.2864
     16  CB         0.8590   43.5870    5.9590 C.3    43  TYR43       0.0560
     17  CG         2.1190   42.8440    6.3130 C.ar   43  TYR43      -0.0198
     18  CD1        2.8840   42.2330    5.3300 C.ar   43  TYR43      -0.0009
     19  CD2        2.5490   42.7570    7.6270 C.ar   43  TYR43      -0.0009
     20  CE1        4.0450   41.5500    5.6490 C.ar   43  TYR43       0.0417
     21  CE2        3.7060   42.0750    7.9590 C.ar   43  TYR43       0.0417
     22  CZ         4.4500   41.4730    6.9670 C.ar   43  TYR43       0.1957
     23  OH         5.6050   40.7980    7.2930 O.3    43  TYR43      -0.2866
     24  N          0.8960   48.1440    2.2160 N.3    46  ALA46      -0.1245
     25  CA         1.5720   47.5740    1.0560 C.3    46  ALA46       0.1562
     26  C          0.5750   46.9660    0.0800 C.2    46  ALA46       0.2260
     27  O          0.7760   47.0310   -1.1370 O.2    46  ALA46      -0.2867
     28  CB         2.5970   46.5300    1.4970 C.3    46  ALA46       0.0290
     29  N         -1.2890   49.6930   -1.9910 N.3    49  LYS49      -0.1245
     30  CA        -0.4910   50.3050   -3.0420 C.3    49  LYS49       0.1561
     31  C         -0.3550   49.4190   -4.2710 C.2    49  LYS49       0.2260
     32  O          0.1090   49.9000   -5.3090 O.2    49  LYS49      -0.2867
     33  CB         0.9020   50.6650   -2.5130 C.3    49  LYS49       0.0271
     34  CG         0.9100   51.7930   -1.4920 C.3    49  LYS49       0.0035
     35  CD         2.3070   52.0280   -0.9260 C.3    49  LYS49       0.0206
     36  CE         2.8270   50.7940   -0.2010 C.3    49  LYS49       0.1093
     37  NZ         4.1150   51.0420    0.5040 N.3    49  LYS49      -0.1314
     38  N          0.9330   38.6680   -3.8320 N.3    58  GLU58      -0.1231
     39  CA         2.2410   38.4540   -3.2180 C.3    58  GLU58       0.1699
     40  C          2.3140   39.0870   -1.8320 C.2    58  GLU58       0.2592
     41  O          2.9560   38.5410   -0.9270 O.2    58  GLU58      -0.2718
     42  CB         3.3480   39.0010   -4.1210 C.3    58  GLU58       0.0402
     43  CG         4.7560   38.7160   -3.6110 C.3    58  GLU58       0.1161
     44  CD         5.8440   39.1560   -4.5780 C.2    58  GLU58       0.3649
     45  OE1        5.5130   39.6160   -5.6930 O.co2  58  GLU58      -0.2457
     46  OE2        7.0350   39.0380   -4.2200 O.co2  58  GLU58      -0.2457
     47  N          1.6620   40.2370   -1.6470 N.am   59  VAL59      -0.1980
     48  CA         1.6300   40.8740   -0.3340 C.3    59  VAL59       0.1595
     49  C          0.7670   40.0710    0.6300 C.2    59  VAL59       0.2287
     50  O          1.1290   39.8800    1.7980 O.2    59  VAL59      -0.2864
     51  CB         1.1310   42.3250   -0.4630 C.3    59  VAL59       0.0276
     52  CG1        0.9270   42.9470    0.9090 C.3    59  VAL59       0.0022
     53  CG2        2.1070   43.1470   -1.2850 C.3    59  VAL59       0.0022
     54  N          2.6630   37.1790    1.6820 N.3    62  GLU62      -0.1245
     55  CA         3.7480   37.5640    2.5780 C.3    62  GLU62       0.1567
     56  C          3.2310   37.8130    3.9890 C.2    62  GLU62       0.2260
     57  O          3.8830   37.4400    4.9700 O.2    62  GLU62      -0.2867
     58  CB         4.4620   38.8030    2.0390 C.3    62  GLU62       0.0388
     59  CG         5.6670   39.2290    2.8570 C.3    62  GLU62       0.1160
     60  CD         6.0330   40.6820    2.6340 C.2    62  GLU62       0.3649
     61  OE1        5.1800   41.4290    2.1120 O.co2  62  GLU62      -0.2457
     62  OE2        7.1670   41.0780    2.9820 O.co2  62  GLU62      -0.2457
     63  N         13.9700   37.7540    1.3170 N.3    90  THR90      -0.1218
     64  CA        12.8610   38.1660    0.4720 C.3    90  THR90       0.1862
     65  C         12.2370   39.4790    0.9230 C.2    90  THR90       0.2287
     66  O         11.2540   39.9250    0.3210 O.2    90  THR90      -0.2866
     67  CB        11.7920   37.0690    0.4330 C.3    90  THR90       0.1770
     68  OG1       11.5750   36.5620    1.7550 O.3    90  THR90      -0.2211
     69  CG2       12.2290   35.9300   -0.4810 C.3    90  THR90       0.0375
     70  N         12.8550   43.2990    1.0290 N.3    92  GLU92      -0.1231
     71  CA        13.7680   44.2320    0.3810 C.3    92  GLU92       0.1699
     72  C         14.0390   45.4530    1.2500 C.2    92  GLU92       0.2592
     73  O         15.1970   45.8370    1.4450 O.2    92  GLU92      -0.2718
     74  CB        13.2140   44.6460   -0.9800 C.3    92  GLU92       0.0402
     75  CG        12.9770   43.4640   -1.8990 C.3    92  GLU92       0.1161
     76  CD        12.9780   43.8520   -3.3560 C.2    92  GLU92       0.3649
     77  OE1       13.3930   44.9870   -3.6620 O.co2  92  GLU92      -0.2457
     78  OE2       12.5640   43.0230   -4.1920 O.co2  92  GLU92      -0.2457
     79  N         12.9880   46.0700    1.7810 N.am   93  SER93      -0.1952
     80  CA        13.1580   47.2580    2.6040 C.3    93  SER93       0.1924
     81  C         13.8670   46.9050    3.9060 C.2    93  SER93       0.2314
     82  O         13.4490   45.9930    4.6290 O.2    93  SER93      -0.2863
     83  CB        11.8020   47.8960    2.8980 C.3    93  SER93       0.2116
     84  OG        11.9310   48.9740    3.8060 O.3    93  SER93      -0.2180
@<TRIPOS>BOND
     1    45    44   ar
     2    32    31    2
     3    44    46   ar
     4    44    43    1
     5    31    30    1
     6    78    76   ar
     7    42    43    1
     8    42    39    1
     9    38    39    1
    10    77    76   ar
    11    76    75    1
    12    39    40    1
    13    30    33    1
    14    30    29    1
    15    33    34    1
    16    75    74    1
    17    40    47   am
    18    40    41    2
    19    47    48    1
    20    34    35    1
    21    53    51    1
    22    27    26    2
    23    74    71    1
    24    35    36    1
    25    69    67    1
    26    51    48    1
    27    51    52    1
    28    48    49    1
    29    36    37    1
    30    26    25    1
    31    66    65    2
    32    71    70    1
    33    71    72    1
    34    67    64    1
    35    67    68    1
    36    64    65    1
    37    64    63    1
    38    49    50    2
    39    25    28    1
    40    25    24    1
    41    72    73    2
    42    72    79   am
    43    54    55    1
    44    79    80    1
    45    58    55    1
    46    58    59    1
    47    61    60   ar
    48    55    56    1
    49    80    83    1
    50    80    81    1
    51    60    59    1
    52    60    62   ar
    53    83    84    1
    54    15    14    2
    55    81    82    2
    56    56    57    2
    57    14    13    1
    58    11     9   ar
    59    11    10   ar
    60     4     3    2
    61     9     7   ar
    62    13    16    1
    63    13    12    1
    64    18    20   ar
    65    18    17   ar
    66    10     8   ar
    67    20    22   ar
    68     3    12   am
    69     3     2    1
    70     7     6   ar
    71    16    17    1
    72     8     6   ar
    73    17    19   ar
    74     6     5    1
    75    22    23    1
    76    22    21   ar
    77     2     5    1
    78     2     1    1
    79    19    21   ar
