@<TRIPOS>MOLECULE
tmp/5l1eD00.pdb
 208 203 0 0 0
SMALL
GASTEIGER

@<TRIPOS>ATOM
      1  N        -19.3540   11.7770  -40.1310 N.3   499  GLN499     -0.1231
      2  CA       -19.7270   10.3840  -40.3360 C.3   499  GLN499      0.1698
      3  C        -21.1420   10.0880  -39.8640 C.2   499  GLN499      0.2592
      4  O        -21.6960    9.0460  -40.2300 O.2   499  GLN499     -0.2718
      5  CB       -18.7440    9.4610  -39.6120 C.3   499  GLN499      0.0381
      6  CG       -17.2740    9.6260  -40.0050 C.3   499  GLN499      0.0905
      7  CD       -16.9610    9.2460  -41.4620 C.2   499  GLN499      0.2608
      8  OE1      -17.7400    8.5090  -42.1370 O.2   499  GLN499     -0.2717
      9  NE2      -15.7830    9.6860  -41.9250 N.am  499  GLN499     -0.0878
     10  N        -21.7260   10.9810  -39.0630 N.am  500  LYS500     -0.1966
     11  CA       -23.0590   10.8990  -38.4690 C.3   500  LYS500      0.1728
     12  C        -23.1450    9.8660  -37.3530 C.2   500  LYS500      0.2617
     13  O        -24.2290    9.6820  -36.7850 O.2   500  LYS500     -0.2715
     14  CB       -24.1490   10.6060  -39.5040 C.3   500  LYS500      0.0311
     15  CG       -25.5060   10.2620  -38.9180 C.3   500  LYS500      0.0038
     16  CD       -26.0800    9.0810  -39.6780 C.3   500  LYS500      0.0206
     17  CE       -27.4300    8.6550  -39.1500 C.3   500  LYS500      0.1093
     18  NZ       -27.7860    7.3160  -39.7200 N.3   500  LYS500     -0.1314
     19  N        -22.0520    9.1810  -37.0200 N.am  501  SER501     -0.1936
     20  CA       -22.0220    8.3390  -35.8310 C.3   501  SER501      0.2055
     21  C        -21.9300    9.2250  -34.5960 C.2   501  SER501      0.2643
     22  O        -20.8290    9.5230  -34.1200 O.2   501  SER501     -0.2714
     23  CB       -20.8490    7.3570  -35.8890 C.3   501  SER501      0.2130
     24  OG       -19.5900    7.9900  -35.9530 O.3   501  SER501     -0.2179
     25  N        -23.0810    9.6670  -34.0840 N.am  502  LYS502     -0.1963
     26  CA       -23.1620   10.5860  -32.9500 C.3   502  LYS502      0.1713
     27  C        -23.8250    9.8600  -31.7850 C.2   502  LYS502      0.2458
     28  O        -25.0400    9.9910  -31.5680 O.2   502  LYS502     -0.2730
     29  CB       -23.9310   11.8540  -33.3160 C.3   502  LYS502      0.0311
     30  CG       -23.4060   12.5220  -34.5590 C.3   502  LYS502      0.0038
     31  CD       -22.2070   13.3650  -34.2640 C.3   502  LYS502      0.0206
     32  CE       -21.6870   14.1440  -35.4650 C.3   502  LYS502      0.1093
     33  NZ       -21.3450   13.3300  -36.6250 N.3   502  LYS502     -0.1314
     34  N        -23.0620    9.0940  -31.0100 N.am  503  PRO503     -0.2727
     35  CA       -23.6540    8.3470  -29.8970 C.3   503  PRO503      0.1402
     36  C        -23.9180    9.2320  -28.6880 C.2   503  PRO503      0.2269
     37  O        -23.1980   10.1980  -28.4200 O.2   503  PRO503     -0.2865
     38  CB       -22.5870    7.2920  -29.5820 C.3   503  PRO503      0.0296
     39  CG       -21.3050    7.9630  -29.9480 C.3   503  PRO503      0.0237
     40  CD       -21.6150    8.8480  -31.1320 C.3   503  PRO503      0.0939
     41  N        -29.6250   10.5550  -29.2720 N.3   507  SER507     -0.1202
     42  CA       -29.7850    9.5500  -30.3150 C.3   507  SER507      0.2020
     43  C        -30.5870    8.3430  -29.8480 C.2   507  SER507      0.2618
     44  O        -30.8390    7.4400  -30.6530 O.2   507  SER507     -0.2717
     45  CB       -28.4130    9.1030  -30.8250 C.3   507  SER507      0.2103
     46  OG       -27.5940    8.6490  -29.7610 O.3   507  SER507     -0.2182
     47  N        -30.9820    8.3050  -28.5740 N.am  508  PHE508     -0.1975
     48  CA       -31.8460    7.2370  -28.0840 C.3   508  PHE508      0.1639
     49  C        -33.2250    7.3170  -28.7280 C.2   508  PHE508      0.2290
     50  O        -33.6720    6.3760  -29.3910 O.2   508  PHE508     -0.2864
     51  CB       -31.9500    7.3140  -26.5580 C.3   508  PHE508      0.0560
     52  CG       -32.9100    6.3240  -25.9560 C.ar  508  PHE508     -0.0200
     53  CD1      -32.4650    5.0880  -25.5170 C.ar  508  PHE508     -0.0042
     54  CD2      -34.2540    6.6350  -25.8120 C.ar  508  PHE508     -0.0042
     55  CE1      -33.3430    4.1800  -24.9560 C.ar  508  PHE508     -0.0003
     56  CE2      -35.1360    5.7290  -25.2570 C.ar  508  PHE508     -0.0003
     57  CZ       -34.6800    4.5000  -24.8280 C.ar  508  PHE508     -0.0000
     58  N        -34.5770    8.1710  -31.3590 N.3   510  ASP510     -0.1225
     59  CA       -34.3660    8.5390  -32.7550 C.3   510  ASP510      0.1790
     60  C        -35.3700    7.8900  -33.7080 C.2   510  ASP510      0.2439
     61  O        -36.0240    8.6130  -34.4690 O.2   510  ASP510     -0.2733
     62  CB       -32.9330    8.2030  -33.1780 C.3   510  ASP510      0.1423
     63  CG       -32.5380    8.8670  -34.4830 C.2   510  ASP510      0.3668
     64  OD1      -33.3300    9.6760  -35.0100 O.co2 510  ASP510     -0.2456
     65  OD2      -31.4250    8.5940  -34.9760 O.co2 510  ASP510     -0.2456
     66  N        -35.5290    6.5420  -33.7230 N.am  511  PRO511     -0.2729
     67  CA       -36.4300    5.9340  -34.7140 C.3   511  PRO511      0.1401
     68  C        -37.8550    6.4210  -34.5350 C.2   511  PRO511      0.2269
     69  O        -38.4200    7.0620  -35.4270 O.2   511  PRO511     -0.2865
     70  CB       -36.3090    4.4290  -34.4360 C.3   511  PRO511      0.0296
     71  CG       -35.0870    4.2790  -33.5980 C.3   511  PRO511      0.0237
     72  CD       -35.0210    5.5270  -32.7890 C.3   511  PRO511      0.0939
     73  N        -42.6890    9.7390  -28.8470 N.3   517  TRP517     -0.1241
     74  CA       -42.3240    9.4520  -27.4620 C.3   517  TRP517      0.1605
     75  C        -43.1470   10.2770  -26.4810 C.2   517  TRP517      0.2264
     76  O        -43.3730    9.8470  -25.3440 O.2   517  TRP517     -0.2867
     77  CB       -40.8340    9.7100  -27.2340 C.3   517  TRP517      0.0550
     78  CG       -39.9180    8.7860  -27.9770 C.ar  517  TRP517      0.0003
     79  CD1      -39.3040    9.0310  -29.1670 C.ar  517  TRP517      0.0946
     80  CD2      -39.4990    7.4760  -27.5700 C.ar  517  TRP517      0.0152
     81  NE1      -38.5310    7.9550  -29.5320 N.ar  517  TRP517     -0.2442
     82  CE2      -38.6350    6.9860  -28.5690 C.ar  517  TRP517      0.0810
     83  CE3      -39.7730    6.6680  -26.4620 C.ar  517  TRP517      0.0012
     84  CZ2      -38.0430    5.7270  -28.4940 C.ar  517  TRP517      0.0191
     85  CZ3      -39.1840    5.4170  -26.3890 C.ar  517  TRP517      0.0001
     86  CH2      -38.3290    4.9600  -27.3990 C.ar  517  TRP517      0.0015
     87  N        -40.9930    0.3120  -33.9260 N.3   577  TYR577     -0.1241
     88  CA       -39.7600    0.7340  -33.2720 C.3   577  TYR577      0.1605
     89  C        -38.6130   -0.2110  -33.6030 C.2   577  TYR577      0.2264
     90  O        -37.4900    0.2350  -33.8660 O.2   577  TYR577     -0.2867
     91  CB       -39.9790    0.8180  -31.7600 C.3   577  TYR577      0.0534
     92  CG       -38.7150    0.8150  -30.9330 C.ar  577  TYR577     -0.0201
     93  CD1      -38.2230   -0.3650  -30.3940 C.ar  577  TYR577     -0.0009
     94  CD2      -38.0230    1.9920  -30.6760 C.ar  577  TYR577     -0.0009
     95  CE1      -37.0770   -0.3770  -29.6350 C.ar  577  TYR577      0.0417
     96  CE2      -36.8700    1.9880  -29.9120 C.ar  577  TYR577      0.0417
     97  CZ       -36.4040    0.7960  -29.3960 C.ar  577  TYR577      0.1957
     98  OH       -35.2620    0.7580  -28.6320 O.3   577  TYR577     -0.2866
     99  N        -37.6450    0.1250  -37.6820 N.3   580  ASN580     -0.1225
    100  CA       -36.8900    1.3090  -38.0780 C.3   580  ASN580      0.1785
    101  C        -35.5230    1.3590  -37.4070 C.2   580  ASN580      0.2597
    102  O        -34.5920    1.9660  -37.9480 O.2   580  ASN580     -0.2718
    103  CB       -37.6850    2.5740  -37.7590 C.3   580  ASN580      0.1169
    104  CG       -37.1540    3.7910  -38.4890 C.2   580  ASN580      0.2627
    105  OD1      -36.7140    3.6970  -39.6340 O.2   580  ASN580     -0.2716
    106  ND2      -37.1830    4.9380  -37.8250 N.am  580  ASN580     -0.0877
    107  N        -35.3830    0.7370  -36.2340 N.am  581  LEU581     -0.1980
    108  CA       -34.0770    0.6660  -35.5870 C.3   581  LEU581      0.1596
    109  C        -33.0990   -0.1390  -36.4340 C.2   581  LEU581      0.2287
    110  O        -31.9460    0.2650  -36.6290 O.2   581  LEU581     -0.2864
    111  CB       -34.2140    0.0590  -34.1910 C.3   581  LEU581      0.0297
    112  CG       -32.9700   -0.0140  -33.3180 C.3   581  LEU581      0.0022
    113  CD1      -32.5620    1.3710  -32.8310 C.3   581  LEU581      0.0001
    114  CD2      -33.2030   -0.9420  -32.1290 C.3   581  LEU581      0.0001
    115  N        -31.8260    1.6790  -39.8970 N.3   584  PHE584     -0.1227
    116  CA       -30.7050    2.6080  -39.8910 C.3   584  PHE584      0.1736
    117  C        -29.5270    2.0950  -39.0730 C.2   584  PHE584      0.2595
    118  O        -28.6490    2.8760  -38.6940 O.2   584  PHE584     -0.2718
    119  CB       -31.1600    3.9800  -39.4050 C.3   584  PHE584      0.0547
    120  CG       -31.7670    4.8250  -40.4890 C.ar  584  PHE584     -0.0202
    121  CD1      -33.1290    5.0710  -40.5190 C.ar  584  PHE584     -0.0042
    122  CD2      -30.9720    5.3530  -41.4940 C.ar  584  PHE584     -0.0042
    123  CE1      -33.6840    5.8420  -41.5240 C.ar  584  PHE584     -0.0003
    124  CE2      -31.5200    6.1220  -42.5000 C.ar  584  PHE584     -0.0003
    125  CZ       -32.8770    6.3670  -42.5160 C.ar  584  PHE584     -0.0000
    126  N        -29.5000    0.7970  -38.7830 N.am  585  LEU585     -0.1980
    127  CA       -28.2500    0.1190  -38.4820 C.3   585  LEU585      0.1596
    128  C        -27.6430   -0.5130  -39.7240 C.2   585  LEU585      0.2287
    129  O        -26.4360   -0.7800  -39.7460 O.2   585  LEU585     -0.2864
    130  CB       -28.4650   -0.9520  -37.4100 C.3   585  LEU585      0.0297
    131  CG       -28.5190   -0.4390  -35.9710 C.3   585  LEU585      0.0022
    132  CD1      -29.0000   -1.5310  -35.0350 C.3   585  LEU585      0.0001
    133  CD2      -27.1520    0.0750  -35.5400 C.3   585  LEU585      0.0001
    134  N        -27.8220    0.9820  -42.9390 N.3   587  VAL587     -0.1231
    135  CA       -27.2730    2.0510  -43.7620 C.3   587  VAL587      0.1692
    136  C        -26.9570    3.2570  -42.8860 C.2   587  VAL587      0.2592
    137  O        -27.5270    3.4460  -41.8090 O.2   587  VAL587     -0.2718
    138  CB       -28.2410    2.4690  -44.8840 C.3   587  VAL587      0.0266
    139  CG1      -27.7000    3.6770  -45.6330 C.3   587  VAL587      0.0020
    140  CG2      -28.4860    1.3080  -45.8360 C.3   587  VAL587      0.0020
    141  N        -26.0300    4.0820  -43.3720 N.am  588  GLU588     -0.1966
    142  CA       -25.6200    5.3150  -42.6980 C.3   588  GLU588      0.1733
    143  C        -25.6980    6.4460  -43.7200 C.2   588  GLU588      0.2616
    144  O        -24.7930    6.6100  -44.5440 O.2   588  GLU588     -0.2715
    145  CB       -24.2170    5.1850  -42.1140 C.3   588  GLU588      0.0429
    146  CG       -24.1390    4.0710  -41.0700 C.3   588  GLU588      0.1163
    147  CD       -24.4490    4.6670  -39.7120 C.2   588  GLU588      0.3649
    148  OE1      -24.7110    5.8860  -39.5660 O.co2 588  GLU588     -0.2457
    149  OE2      -24.4850    3.8980  -38.7450 O.co2 588  GLU588     -0.2457
    150  N        -26.7780    7.2300  -43.6590 N.am  589  ARG589     -0.1977
    151  CA       -27.0380    8.2380  -44.6810 C.3   589  ARG589      0.1597
    152  C        -26.1410    9.4640  -44.5510 C.2   589  ARG589      0.2287
    153  O        -26.0280   10.2280  -45.5160 O.2   589  ARG589     -0.2864
    154  CB       -28.5040    8.6680  -44.6270 C.3   589  ARG589      0.0334
    155  CG       -28.8500    9.8760  -45.4390 C.3   589  ARG589      0.0492
    156  CD       -30.3620   10.0550  -45.4380 C.3   589  ARG589      0.2205
    157  NE       -30.8820   10.2150  -44.0870 N.pl3 589  ARG589     -0.0865
    158  CZ       -31.0840   11.3910  -43.4960 C.cat 589  ARG589      0.5346
    159  NH1      -30.8080   12.5280  -44.1430 N.pl3 589  ARG589      0.1354
    160  NH2      -31.5670   11.4220  -42.2540 N.pl3 589  ARG589      0.1354
    161  N        -26.7870   11.9940  -42.6420 N.3   591  VAL591     -0.1245
    162  CA       -27.6560   13.0470  -42.1160 C.3   591  VAL591      0.1561
    163  C        -27.2780   14.4070  -42.6930 C.2   591  VAL591      0.2260
    164  O        -28.0410   15.0040  -43.4620 O.2   591  VAL591     -0.2867
    165  CB       -27.5940   13.1160  -40.5790 C.3   591  VAL591      0.0252
    166  CG1      -28.4060   14.2950  -40.0660 C.3   591  VAL591      0.0019
    167  CG2      -28.0870   11.8130  -39.9670 C.3   591  VAL591      0.0019
    168  N        -21.9690   -2.8240  -35.5060 N.3   747  ALA747     -0.1231
    169  CA       -21.8910   -3.2090  -34.0990 C.3   747  ALA747      0.1694
    170  C        -22.8370   -2.3970  -33.2200 C.2   747  ALA747      0.2592
    171  O        -23.5610   -1.5230  -33.7070 O.2   747  ALA747     -0.2718
    172  CB       -20.4530   -3.0870  -33.5870 C.3   747  ALA747      0.0304
    173  N        -22.8360   -2.6860  -31.9220 N.am  748  LEU748     -0.1966
    174  CA       -23.7510   -2.0780  -30.9680 C.3   748  LEU748      0.1728
    175  C        -22.9750   -1.2210  -29.9770 C.2   748  LEU748      0.2616
    176  O        -21.9060   -1.6170  -29.5010 O.2   748  LEU748     -0.2715
    177  CB       -24.5540   -3.1560  -30.2380 C.3   748  LEU748      0.0311
    178  CG       -25.6110   -2.7700  -29.2090 C.3   748  LEU748      0.0022
    179  CD1      -26.8210   -3.6730  -29.3620 C.3   748  LEU748      0.0001
    180  CD2      -25.0350   -2.8920  -27.8120 C.3   748  LEU748      0.0001
    181  N        -23.5230   -0.0480  -29.6660 N.am  749  SER749     -0.1950
    182  CA       -22.8280    0.9730  -28.8910 C.3   749  SER749      0.1924
    183  C        -23.2620    0.9040  -27.4320 C.2   749  SER749      0.2314
    184  O        -24.4510    1.0480  -27.1260 O.2   749  SER749     -0.2863
    185  CB       -23.1060    2.3610  -29.4690 C.3   749  SER749      0.2116
    186  OG       -22.5090    3.3770  -28.6820 O.3   749  SER749     -0.2180
    187  N        -24.8990    4.1670  -25.9390 N.3   752  ASN752     -0.1225
    188  CA       -26.3160    4.4160  -26.1530 C.3   752  ASN752      0.1785
    189  C        -27.2120    3.4110  -25.4410 C.2   752  ASN752      0.2597
    190  O        -28.3960    3.6990  -25.2330 O.2   752  ASN752     -0.2718
    191  CB       -26.6360    4.4100  -27.6510 C.3   752  ASN752      0.1169
    192  CG       -27.7040    5.4160  -28.0180 C.2   752  ASN752      0.2627
    193  OD1      -27.5060    6.2560  -28.8960 O.2   752  ASN752     -0.2716
    194  ND2      -28.8500    5.3310  -27.3530 N.am  752  ASN752     -0.0877
    195  N        -26.6780    2.2470  -25.0650 N.am  753  VAL753     -0.1980
    196  CA       -27.4450    1.3050  -24.2580 C.3   753  VAL753      0.1595
    197  C        -27.6400    1.8470  -22.8480 C.2   753  VAL753      0.2287
    198  O        -28.6560    1.5660  -22.1990 O.2   753  VAL753     -0.2864
    199  CB       -26.7500   -0.0700  -24.2570 C.3   753  VAL753      0.0276
    200  CG1      -27.3990   -1.0140  -23.2580 C.3   753  VAL753      0.0022
    201  CG2      -26.7930   -0.6690  -25.6470 C.3   753  VAL753      0.0022
    202  N        -31.0610    3.6260  -21.4880 N.3   756  VAL756     -0.1245
    203  CA       -32.1740    2.9300  -20.8560 C.3   756  VAL756      0.1561
    204  C        -31.7800    2.3190  -19.5140 C.2   756  VAL756      0.2260
    205  O        -32.6590    2.0610  -18.6780 O.2   756  VAL756     -0.2867
    206  CB       -32.7430    1.8540  -21.8010 C.3   756  VAL756      0.0252
    207  CG1      -31.8020    0.6630  -21.8900 C.3   756  VAL756      0.0019
    208  CG2      -34.1380    1.4300  -21.3580 C.3   756  VAL756      0.0019
@<TRIPOS>BOND
     1   140   138    1
     2   139   138    1
     3   153   152    2
     4   155   156    1
     5   155   154    1
     6   156   157    1
     7   138   135    1
     8   151   154    1
     9   151   152    1
    10   151   150    1
    11   144   143    2
    12   159   158    1
    13   157   158    2
    14   135   134    1
    15   135   136    1
    16   143   150   am
    17   143   142    1
    18   158   160    1
    19   164   163    2
    20   141   136   am
    21   141   142    1
    22   136   137    2
    23   142   145    1
    24   163   162    1
    25   161   162    1
    26   125   124   ar
    27   125   123   ar
    28   124   122   ar
    29     8     7    2
    30   162   165    1
    31   145   146    1
    32     9     7   am
    33   123   121   ar
    34   122   120   ar
    35     7     6    1
    36   146   147    1
    37   165   166    1
    38   165   167    1
    39   121   120   ar
    40   120   119    1
    41     2     1    1
    42     2     3    1
    43     2     5    1
    44     4     3    2
    45     6     5    1
    46   115   116    1
    47   116   119    1
    48   116   117    1
    49     3    10   am
    50   129   128    2
    51   128   127    1
    52    18    17    1
    53   147   148   ar
    54   147   149   ar
    55    16    17    1
    56    16    15    1
    57   105   104    2
    58    14    15    1
    59    14    11    1
    60   117   126   am
    61   117   118    2
    62    10    11    1
    63   126   127    1
    64   104   106   am
    65   104   103    1
    66   127   130    1
    67    11    12    1
    68   100   103    1
    69   100    99    1
    70   100   101    1
    71   102   101    2
    72   130   131    1
    73   101   107   am
    74    12    19   am
    75    12    13    2
    76    19    20    1
    77   110   109    2
    78    33    32    1
    79   109   108    1
    80   107   108    1
    81   131   133    1
    82   131   132    1
    83    24    23    1
    84    23    20    1
    85    20    21    1
    86   108   111    1
    87   168   169    1
    88    32    31    1
    89    69    68    2
    90    64    63   ar
    91    65    63   ar
    92    67    68    1
    93    67    70    1
    94    67    66    1
    95    21    22    2
    96    21    25   am
    97    30    31    1
    98    30    29    1
    99    63    62    1
   100    61    60    2
   101    70    71    1
   102   111   112    1
   103   169   172    1
   104   169   170    1
   105    25    26    1
   106    87    88    1
   107    90    89    2
   108    66    60   am
   109    66    72    1
   110    60    59    1
   111   171   170    2
   112    89    88    1
   113    71    72    1
   114   112   113    1
   115   112   114    1
   116    29    26    1
   117    88    91    1
   118   170   173   am
   119    62    59    1
   120    26    27    1
   121    59    58    1
   122   173   174    1
   123    27    28    2
   124    27    34   am
   125    91    92    1
   126    40    34    1
   127    40    39    1
   128    34    35    1
   129   174   177    1
   130   174   175    1
   131    92    94   ar
   132    92    93   ar
   133    45    42    1
   134    45    46    1
   135    94    96   ar
   136    44    43    2
   137    93    95   ar
   138    42    43    1
   139    42    41    1
   140   177   178    1
   141   175   181   am
   142   175   176    2
   143    39    38    1
   144    96    97   ar
   145    35    38    1
   146    35    36    1
   147    43    47   am
   148   181   182    1
   149    95    97   ar
   150    81    79   ar
   151    81    82   ar
   152   185   182    1
   153   185   186    1
   154    97    98    1
   155    50    49    2
   156   179   178    1
   157   178   180    1
   158    79    78   ar
   159   193   192    2
   160   182   183    1
   161    73    74    1
   162    49    48    1
   163    36    37    2
   164    47    48    1
   165    82    84   ar
   166    82    80   ar
   167    84    86   ar
   168    48    51    1
   169   192   191    1
   170   192   194   am
   171    78    80   ar
   172    78    77    1
   173   191   188    1
   174    80    83   ar
   175    74    77    1
   176    74    75    1
   177   183   184    2
   178    86    85   ar
   179    51    52    1
   180    75    76    2
   181    83    85   ar
   182   188   187    1
   183   188   189    1
   184    52    54   ar
   185    52    53   ar
   186    54    56   ar
   187   201   199    1
   188    53    55   ar
   189   189   190    2
   190   189   195   am
   191    56    57   ar
   192   195   196    1
   193    55    57   ar
   194   196   199    1
   195   196   197    1
   196   199   200    1
   197   197   198    2
   198   207   206    1
   199   206   208    1
   200   206   203    1
   201   202   203    1
   202   203   204    1
   203   204   205    2
