@<TRIPOS>MOLECULE
tmp/5l1fA01.pdb
 150 147 0 0 0
SMALL
GASTEIGER

@<TRIPOS>ATOM
      1  N        -44.4280   10.1240  -51.1370 N.3   501  SER501     -0.1202
      2  CA       -44.5290    9.7410  -49.7300 C.3   501  SER501      0.2020
      3  C        -46.0020    9.6410  -49.3220 C.2   501  SER501      0.2619
      4  O        -46.4800   10.3230  -48.4160 O.2   501  SER501     -0.2717
      5  CB       -43.7760   10.7340  -48.8550 C.3   501  SER501      0.2103
      6  OG       -44.2730   12.0510  -48.9460 O.3   501  SER501     -0.2182
      7  N        -46.7160    8.7630  -50.0150 N.am  502  LYS502     -0.1966
      8  CA       -48.1500    8.5800  -49.8210 C.3   502  LYS502      0.1713
      9  C        -48.4420    8.0180  -48.4360 C.2   502  LYS502      0.2458
     10  O        -48.0790    6.8660  -48.1590 O.2   502  LYS502     -0.2730
     11  CB       -48.7120    7.6510  -50.8980 C.3   502  LYS502      0.0311
     12  CG       -48.3550    8.0860  -52.2950 C.3   502  LYS502      0.0038
     13  CD       -49.2680    9.1640  -52.7840 C.3   502  LYS502      0.0206
     14  CE       -49.0180    9.5790  -54.2280 C.3   502  LYS502      0.1093
     15  NZ       -47.6600   10.0260  -54.5130 N.3   502  LYS502     -0.1314
     16  N        -49.0860    8.7740  -47.5440 N.am  503  PRO503     -0.2727
     17  CA       -49.3550    8.2620  -46.1970 C.3   503  PRO503      0.1402
     18  C        -50.7850    7.7730  -46.0410 C.2   503  PRO503      0.2269
     19  O        -51.3620    7.2090  -46.9760 O.2   503  PRO503     -0.2865
     20  CB       -49.0830    9.4850  -45.3150 C.3   503  PRO503      0.0296
     21  CG       -49.3480   10.6940  -46.2400 C.3   503  PRO503      0.0237
     22  CD       -49.4990   10.1800  -47.6630 C.3   503  PRO503      0.0939
     23  N        -53.1350    2.5780  -45.3600 N.3   507  SER507     -0.1202
     24  CA       -51.8570    1.8930  -45.4680 C.3   507  SER507      0.2020
     25  C        -51.8360    0.9640  -44.2630 C.2   507  SER507      0.2618
     26  O        -51.1130   -0.0370  -44.2900 O.2   507  SER507     -0.2717
     27  CB       -50.5770    2.7280  -45.4870 C.3   507  SER507      0.2103
     28  OG       -49.4310    1.9000  -45.4020 O.3   507  SER507     -0.2182
     29  N        -52.6260    1.2520  -43.2250 N.am  508  PHE508     -0.1975
     30  CA       -52.6080    0.4770  -41.9850 C.3   508  PHE508      0.1639
     31  C        -52.5670   -1.0360  -42.1920 C.2   508  PHE508      0.2290
     32  O        -52.2280   -1.7880  -41.2740 O.2   508  PHE508     -0.2864
     33  CB       -53.4990    1.1420  -40.9300 C.3   508  PHE508      0.0560
     34  CG       -53.2610    0.6470  -39.5300 C.ar  508  PHE508     -0.0200
     35  CD1      -52.0570    0.8900  -38.8920 C.ar  508  PHE508     -0.0042
     36  CD2      -54.2450   -0.0490  -38.8460 C.ar  508  PHE508     -0.0042
     37  CE1      -51.8330    0.4370  -37.6060 C.ar  508  PHE508     -0.0003
     38  CE2      -54.0280   -0.5030  -37.5580 C.ar  508  PHE508     -0.0003
     39  CZ       -52.8200   -0.2590  -36.9380 C.ar  508  PHE508     -0.0000
     40  N        -50.6230   -2.8300  -44.7660 N.3   510  ASP510     -0.1225
     41  CA       -49.5740   -2.9880  -45.7680 C.3   510  ASP510      0.1790
     42  C        -48.5270   -4.0960  -45.6530 C.2   510  ASP510      0.2439
     43  O        -48.3190   -4.8200  -46.6350 O.2   510  ASP510     -0.2733
     44  CB       -48.8880   -1.6370  -45.9910 C.3   510  ASP510      0.1423
     45  CG       -48.4210   -1.4500  -47.4230 C.2   510  ASP510      0.3668
     46  OD1      -48.7660   -0.4150  -48.0300 O.co2 510  ASP510     -0.2456
     47  OD2      -47.7070   -2.3340  -47.9410 O.co2 510  ASP510     -0.2456
     48  N        -47.8160   -4.2610  -44.5050 N.am  511  PRO511     -0.2729
     49  CA       -46.8470   -5.3640  -44.4150 C.3   511  PRO511      0.1401
     50  C        -47.5100   -6.7000  -44.6980 C.2   511  PRO511      0.2269
     51  O        -47.3150   -7.2790  -45.7700 O.2   511  PRO511     -0.2865
     52  CB       -46.3380   -5.2730  -42.9710 C.3   511  PRO511      0.0296
     53  CG       -46.5300   -3.8540  -42.6070 C.3   511  PRO511      0.0237
     54  CD       -47.8140   -3.4600  -43.2690 C.3   511  PRO511      0.0939
     55  N        -54.6290   -9.7860  -43.3100 N.3   517  TRP517     -0.1241
     56  CA       -55.3980   -9.0840  -42.2860 C.3   517  TRP517      0.1605
     57  C        -56.8320   -9.5910  -42.2170 C.2   517  TRP517      0.2264
     58  O        -57.4330   -9.6130  -41.1370 O.2   517  TRP517     -0.2867
     59  CB       -55.3850   -7.5780  -42.5460 C.3   517  TRP517      0.0550
     60  CG       -54.0390   -6.9520  -42.3850 C.ar  517  TRP517      0.0003
     61  CD1      -53.1560   -6.6490  -43.3760 C.ar  517  TRP517      0.0946
     62  CD2      -53.4180   -6.5500  -41.1580 C.ar  517  TRP517      0.0152
     63  NE1      -52.0220   -6.0840  -42.8450 N.ar  517  TRP517     -0.2442
     64  CE2      -52.1590   -6.0110  -41.4840 C.ar  517  TRP517      0.0810
     65  CE3      -53.8060   -6.5940  -39.8150 C.ar  517  TRP517      0.0012
     66  CZ2      -51.2840   -5.5190  -40.5190 C.ar  517  TRP517      0.0191
     67  CZ3      -52.9350   -6.1040  -38.8570 C.ar  517  TRP517      0.0001
     68  CH2      -51.6890   -5.5740  -39.2140 C.ar  517  TRP517      0.0015
     69  N        -44.6210   -9.9030  -39.2450 N.3   577  TYR577     -0.1241
     70  CA       -45.0100   -8.5030  -39.3740 C.3   577  TYR577      0.1605
     71  C        -43.8320   -7.5820  -39.0860 C.2   577  TYR577      0.2264
     72  O        -43.5480   -6.6610  -39.8590 O.2   577  TYR577     -0.2867
     73  CB       -46.1780   -8.1920  -38.4390 C.3   577  TYR577      0.0534
     74  CG       -46.5620   -6.7290  -38.4070 C.ar  577  TYR577     -0.0201
     75  CD1      -46.0740   -5.8840  -37.4170 C.ar  577  TYR577     -0.0009
     76  CD2      -47.4080   -6.1930  -39.3680 C.ar  577  TYR577     -0.0009
     77  CE1      -46.4200   -4.5480  -37.3840 C.ar  577  TYR577      0.0417
     78  CE2      -47.7610   -4.8560  -39.3420 C.ar  577  TYR577      0.0417
     79  CZ       -47.2630   -4.0400  -38.3480 C.ar  577  TYR577      0.1957
     80  OH       -47.6080   -2.7100  -38.3160 O.3   577  TYR577     -0.2866
     81  N        -41.1620   -8.0110  -41.9820 N.3   580  ASN580     -0.1225
     82  CA       -41.5030   -7.3780  -43.2520 C.3   580  ASN580      0.1785
     83  C        -41.5480   -5.8600  -43.1330 C.2   580  ASN580      0.2597
     84  O        -41.2250   -5.1550  -44.0960 O.2   580  ASN580     -0.2718
     85  CB       -42.8420   -7.9100  -43.7620 C.3   580  ASN580      0.1169
     86  CG       -43.2090   -7.3540  -45.1220 C.2   580  ASN580      0.2627
     87  OD1      -43.8690   -6.3200  -45.2260 O.2   580  ASN580     -0.2716
     88  ND2      -42.7810   -8.0380  -46.1760 N.am  580  ASN580     -0.0877
     89  N        -41.9450   -5.3410  -41.9690 N.am  581  LEU581     -0.1980
     90  CA       -41.9740   -3.8950  -41.7800 C.3   581  LEU581      0.1596
     91  C        -40.5640   -3.3220  -41.7060 C.2   581  LEU581      0.2287
     92  O        -40.3000   -2.2360  -42.2360 O.2   581  LEU581     -0.2864
     93  CB       -42.7650   -3.5470  -40.5190 C.3   581  LEU581      0.0297
     94  CG       -42.9900   -2.0640  -40.2100 C.3   581  LEU581      0.0022
     95  CD1      -43.8680   -1.4150  -41.2690 C.3   581  LEU581      0.0001
     96  CD2      -43.5980   -1.8900  -38.8270 C.3   581  LEU581      0.0001
     97  N        -38.7100   -2.9060  -45.2400 N.3   584  PHE584     -0.1227
     98  CA       -39.0730   -1.8020  -46.1190 C.3   584  PHE584      0.1736
     99  C        -38.3810   -0.5050  -45.7180 C.2   584  PHE584      0.2595
    100  O        -37.9890    0.2850  -46.5850 O.2   584  PHE584     -0.2718
    101  CB       -40.5900   -1.6210  -46.1200 C.3   584  PHE584      0.0547
    102  CG       -41.0550   -0.3960  -46.8490 C.ar  584  PHE584     -0.0202
    103  CD1      -41.0530   -0.3540  -48.2330 C.ar  584  PHE584     -0.0042
    104  CD2      -41.5060    0.7110  -46.1500 C.ar  584  PHE584     -0.0042
    105  CE1      -41.4840    0.7710  -48.9070 C.ar  584  PHE584     -0.0003
    106  CE2      -41.9380    1.8390  -46.8180 C.ar  584  PHE584     -0.0003
    107  CZ       -41.9290    1.8680  -48.1980 C.ar  584  PHE584     -0.0000
    108  N        -38.2240   -0.2650  -44.4140 N.am  585  LEU585     -0.1980
    109  CA       -37.5870    0.9680  -43.9650 C.3   585  LEU585      0.1596
    110  C        -36.1040    0.9960  -44.3090 C.2   585  LEU585      0.2287
    111  O        -35.5510    2.0710  -44.5680 O.2   585  LEU585     -0.2864
    112  CB       -37.7860    1.1470  -42.4600 C.3   585  LEU585      0.0297
    113  CG       -39.2260    1.3520  -41.9830 C.3   585  LEU585      0.0022
    114  CD1      -39.2740    1.5060  -40.4700 C.3   585  LEU585      0.0001
    115  CD2      -39.8560    2.5550  -42.6690 C.3   585  LEU585      0.0001
    116  N        -38.8750    8.0690  -37.2650 N.3   748  LEU748     -0.1231
    117  CA       -39.9930    7.4860  -37.9900 C.3   748  LEU748      0.1693
    118  C        -41.1810    8.4400  -37.9900 C.2   748  LEU748      0.2592
    119  O        -41.3820    9.2190  -37.0520 O.2   748  LEU748     -0.2718
    120  CB       -40.3930    6.1450  -37.3730 C.3   748  LEU748      0.0284
    121  CG       -41.4410    5.3030  -38.1030 C.3   748  LEU748      0.0019
    122  CD1      -40.9790    4.9780  -39.5140 C.3   748  LEU748      0.0001
    123  CD2      -41.7390    4.0300  -37.3280 C.3   748  LEU748      0.0001
    124  N        -41.9700    8.3710  -39.0580 N.am  749  SER749     -0.1952
    125  CA       -43.0740    9.3010  -39.2440 C.3   749  SER749      0.1924
    126  C        -44.1520    9.0990  -38.1840 C.2   749  SER749      0.2314
    127  O        -44.3140    8.0120  -37.6230 O.2   749  SER749     -0.2863
    128  CB       -43.6780    9.1370  -40.6380 C.3   749  SER749      0.2116
    129  OG       -44.7750   10.0150  -40.8230 O.3   749  SER749     -0.2180
    130  N        -47.5640   10.4090  -38.7970 N.3   751  SER751     -0.1202
    131  CA       -48.8520   10.3300  -39.4900 C.3   751  SER751      0.2020
    132  C        -49.2970    8.8960  -39.7790 C.2   751  SER751      0.2618
    133  O        -50.2880    8.7210  -40.5050 O.2   751  SER751     -0.2717
    134  CB       -48.7940   11.1230  -40.7980 C.3   751  SER751      0.2103
    135  OG       -47.8720   10.5490  -41.7090 O.3   751  SER751     -0.2182
    136  N        -48.6070    7.8780  -39.2650 N.am  752  ASN752     -0.1974
    137  CA       -48.9880    6.4880  -39.4750 C.3   752  ASN752      0.1688
    138  C        -49.0360    5.6800  -38.1920 C.2   752  ASN752      0.2292
    139  O        -49.7260    4.6530  -38.1570 O.2   752  ASN752     -0.2864
    140  CB       -48.0230    5.8150  -40.4590 C.3   752  ASN752      0.1181
    141  CG       -47.6580    6.7260  -41.6100 C.2   752  ASN752      0.2629
    142  OD1      -46.8220    7.6200  -41.4690 O.2   752  ASN752     -0.2716
    143  ND2      -48.2980    6.5180  -42.7520 N.am  752  ASN752     -0.0877
    144  N        -52.5350    3.1690  -35.4180 N.3   756  VAL756     -0.1245
    145  CA       -52.6860    2.3140  -34.2480 C.3   756  VAL756      0.1561
    146  C        -53.5030    3.0160  -33.1700 C.2   756  VAL756      0.2260
    147  O        -54.2140    2.3600  -32.4000 O.2   756  VAL756     -0.2867
    148  CB       -51.3090    1.8880  -33.7100 C.3   756  VAL756      0.0252
    149  CG1      -51.4010    0.5320  -33.0290 C.3   756  VAL756      0.0019
    150  CG2      -50.2780    1.8690  -34.8280 C.3   756  VAL756      0.0019
@<TRIPOS>BOND
     1    15    14    1
     2    14    13    1
     3    13    12    1
     4    12    11    1
     5     1     2    1
     6    11     8    1
     7     7     8    1
     8     7     3   am
     9     8     9    1
    10     2     3    1
    11     2     5    1
    12     3     4    2
    13     6     5    1
    14   105   103   ar
    15   105   107   ar
    16     9    10    2
    17     9    16   am
    18   103   102   ar
    19   107   106   ar
    20    46    45   ar
    21    47    45   ar
    22    22    16    1
    23    22    21    1
    24    16    17    1
    25    45    44    1
    26    19    18    2
    27   102   104   ar
    28   102   101    1
    29   106   104   ar
    30    43    42    2
    31   100    99    2
    32    21    20    1
    33    17    18    1
    34    17    20    1
    35    88    86   am
    36   101    98    1
    37    98    99    1
    38    98    97    1
    39    44    41    1
    40    51    50    2
    41    41    42    1
    42    41    40    1
    43    99   108   am
    44    42    48   am
    45    27    24    1
    46    27    28    1
    47    24    23    1
    48    24    25    1
    49    87    86    2
    50    86    85    1
    51    50    49    1
    52   111   110    2
    53    48    49    1
    54    48    54    1
    55    49    52    1
    56   108   109    1
    57   110   109    1
    58    26    25    2
    59    25    29   am
    60    84    83    2
    61   109   112    1
    62    85    82    1
    63    61    63   ar
    64    61    60   ar
    65    55    56    1
    66    54    53    1
    67    82    83    1
    68    82    81    1
    69    29    30    1
    70    83    89   am
    71    52    53    1
    72    63    64   ar
    73   143   141   am
    74   115   113    1
    75    59    60    1
    76    59    56    1
    77   112   113    1
    78    60    62   ar
    79    56    57    1
    80    92    91    2
    81    57    58    2
    82    31    30    1
    83    31    32    2
    84    30    33    1
    85   113   114    1
    86    89    90    1
    87    90    91    1
    88    90    93    1
    89   135   134    1
    90   141   142    2
    91   141   140    1
    92    64    62   ar
    93    64    66   ar
    94    95    94    1
    95    62    65   ar
    96    33    34    1
    97   129   128    1
    98   134   131    1
    99   128   125    1
   100    93    94    1
   101    66    68   ar
   102   133   132    2
   103   140   137    1
   104    94    96    1
   105    72    71    2
   106    65    67   ar
   107   132   131    1
   108   132   136   am
   109    34    35   ar
   110    34    36   ar
   111   122   121    1
   112   131   130    1
   113   137   136    1
   114   137   138    1
   115    70    69    1
   116    70    71    1
   117    70    73    1
   118    76    78   ar
   119    76    74   ar
   120    78    79   ar
   121   125   124    1
   122   125   126    1
   123    68    67   ar
   124   124   118   am
   125    35    37   ar
   126    36    38   ar
   127    73    74    1
   128    74    75   ar
   129    79    80    1
   130    79    77   ar
   131   138   139    2
   132   126   127    2
   133   121   120    1
   134   121   123    1
   135   118   117    1
   136   118   119    2
   137   117   120    1
   138   117   116    1
   139    37    39   ar
   140    38    39   ar
   141    75    77   ar
   142   144   145    1
   143   150   148    1
   144   145   148    1
   145   145   146    1
   146   148   149    1
   147   146   147    2
