@<TRIPOS>MOLECULE
tmp/5l1hC01.pdb
 138 133 0 0 0
SMALL
GASTEIGER

@<TRIPOS>ATOM
      1  N        -15.4650   18.8990   38.5880 N.3   502  LYS502     -0.1231
      2  CA       -14.8150   18.7410   37.2780 C.3   502  LYS502      0.1678
      3  C        -15.6690   19.1640   36.0690 C.2   502  LYS502      0.2434
      4  O        -15.1490   19.7100   35.1040 O.2   502  LYS502     -0.2733
      5  CB       -14.4250   17.2750   37.0700 C.3   502  LYS502      0.0284
      6  CG       -13.4800   17.0570   35.9010 C.3   502  LYS502      0.0035
      7  CD       -13.2120   15.5760   35.6570 C.3   502  LYS502      0.0206
      8  CE       -14.2430   14.9530   34.7400 C.3   502  LYS502      0.1093
      9  NZ       -14.2630   15.5640   33.3780 N.3   502  LYS502     -0.1314
     10  N        -17.0550   18.9500   36.1930 N.am  503  PRO503     -0.2729
     11  CA       -17.8400   18.9090   34.9470 C.3   503  PRO503      0.1401
     12  C        -17.2090   18.9260   33.5390 C.2   503  PRO503      0.2269
     13  O        -16.2050   18.2660   33.2940 O.2   503  PRO503     -0.2865
     14  CB       -18.8020   20.0760   35.1490 C.3   503  PRO503      0.0296
     15  CG       -19.1290   20.0040   36.6250 C.3   503  PRO503      0.0237
     16  CD       -18.1590   19.0390   37.2710 C.3   503  PRO503      0.0939
     17  N        -18.3580   15.4990   29.8170 N.3   507  SER507     -0.1202
     18  CA       -19.1210   14.8250   30.8570 C.3   507  SER507      0.2020
     19  C        -20.6190   14.8020   30.5830 C.2   507  SER507      0.2618
     20  O        -21.3440   14.0690   31.2630 O.2   507  SER507     -0.2717
     21  CB       -18.8630   15.4860   32.2170 C.3   507  SER507      0.2103
     22  OG       -19.3060   16.8320   32.2270 O.3   507  SER507     -0.2182
     23  N        -21.1020   15.5780   29.6090 N.am  508  PHE508     -0.1975
     24  CA       -22.5300   15.5670   29.3050 C.3   508  PHE508      0.1639
     25  C        -22.9420   14.2750   28.6100 C.2   508  PHE508      0.2290
     26  O        -23.9770   13.6870   28.9470 O.2   508  PHE508     -0.2864
     27  CB       -22.9000   16.7780   28.4490 C.3   508  PHE508      0.0560
     28  CG       -24.0830   16.5440   27.5520 C.ar  508  PHE508     -0.0200
     29  CD1      -25.3560   16.3960   28.0800 C.ar  508  PHE508     -0.0042
     30  CD2      -23.9210   16.4730   26.1780 C.ar  508  PHE508     -0.0042
     31  CE1      -26.4410   16.1730   27.2540 C.ar  508  PHE508     -0.0003
     32  CE2      -25.0040   16.2570   25.3480 C.ar  508  PHE508     -0.0003
     33  CZ       -26.2660   16.1070   25.8870 C.ar  508  PHE508     -0.0000
     34  N        -21.6660   11.4670   28.9440 N.3   510  ASP510     -0.1225
     35  CA       -21.1270   10.3810   29.7530 C.3   510  ASP510      0.1790
     36  C        -22.1480    9.2930   30.0950 C.2   510  ASP510      0.2439
     37  O        -21.7780    8.1110   30.0870 O.2   510  ASP510     -0.2733
     38  CB       -20.5220   10.9430   31.0420 C.3   510  ASP510      0.1423
     39  CG       -19.2760   10.1970   31.4700 C.2   510  ASP510      0.3668
     40  OD1      -19.0120    9.1110   30.9110 O.co2 510  ASP510     -0.2456
     41  OD2      -18.5630   10.6940   32.3660 O.co2 510  ASP510     -0.2456
     42  N        -23.4360    9.6270   30.4310 N.am  511  PRO511     -0.2729
     43  CA       -24.3910    8.5650   30.7900 C.3   511  PRO511      0.1401
     44  C        -24.4300    7.4580   29.7530 C.2   511  PRO511      0.2269
     45  O        -24.0740    6.3140   30.0500 O.2   511  PRO511     -0.2865
     46  CB       -25.7310    9.3050   30.8560 C.3   511  PRO511      0.0296
     47  CG       -25.3680   10.6740   31.2490 C.3   511  PRO511      0.0237
     48  CD       -24.0470   10.9620   30.5920 C.3   511  PRO511      0.0939
     49  N        -30.9100    5.2040   29.0250 N.3   573  TYR573     -0.1241
     50  CA       -30.2850    6.4520   29.4440 C.3   573  TYR573      0.1605
     51  C        -30.8100    6.8890   30.8040 C.2   573  TYR573      0.2264
     52  O        -30.0340    7.2790   31.6830 O.2   573  TYR573     -0.2867
     53  CB       -30.5300    7.5450   28.4010 C.3   573  TYR573      0.0534
     54  CG       -29.8630    8.8650   28.7230 C.ar  573  TYR573     -0.0201
     55  CD1      -30.5110    9.8280   29.4900 C.ar  573  TYR573     -0.0009
     56  CD2      -28.5880    9.1520   28.2550 C.ar  573  TYR573     -0.0009
     57  CE1      -29.9030   11.0330   29.7840 C.ar  573  TYR573      0.0417
     58  CE2      -27.9760   10.3560   28.5400 C.ar  573  TYR573      0.0417
     59  CZ       -28.6350   11.2910   29.3070 C.ar  573  TYR573      0.1957
     60  OH       -28.0210   12.4880   29.5930 O.3   573  TYR573     -0.2866
     61  N        -28.5040    6.6020   34.1400 N.3   577  LEU577     -0.1245
     62  CA       -28.1660    7.8880   34.7410 C.3   577  LEU577      0.1561
     63  C        -28.5630    7.9360   36.2080 C.2   577  LEU577      0.2260
     64  O        -27.9110    8.6190   37.0090 O.2   577  LEU577     -0.2867
     65  CB       -28.8320    9.0280   33.9710 C.3   577  LEU577      0.0270
     66  CG       -28.5530   10.4550   34.4550 C.3   577  LEU577      0.0019
     67  CD1      -27.0570   10.7260   34.5150 C.3   577  LEU577      0.0001
     68  CD2      -29.2470   11.4770   33.5680 C.3   577  LEU577      0.0001
     69  N        -25.6840    6.6330   38.5060 N.3   580  PHE580     -0.1227
     70  CA       -24.5470    7.4830   38.8170 C.3   580  PHE580      0.1736
     71  C        -24.8970    8.6140   39.7680 C.2   580  PHE580      0.2595
     72  O        -23.9910    9.2060   40.3650 O.2   580  PHE580     -0.2718
     73  CB       -23.9600    8.0650   37.5350 C.3   580  PHE580      0.0547
     74  CG       -23.4440    7.0320   36.5880 C.ar  580  PHE580     -0.0202
     75  CD1      -22.1630    6.5270   36.7270 C.ar  580  PHE580     -0.0042
     76  CD2      -24.2300    6.5790   35.5450 C.ar  580  PHE580     -0.0042
     77  CE1      -21.6810    5.5860   35.8450 C.ar  580  PHE580     -0.0003
     78  CE2      -23.7570    5.6330   34.6650 C.ar  580  PHE580     -0.0003
     79  CZ       -22.4810    5.1390   34.8110 C.ar  580  PHE580     -0.0000
     80  N        -26.1790    8.9390   39.9050 N.am  581  LEU581     -0.1980
     81  CA       -26.6110    9.8950   40.9130 C.3   581  LEU581      0.1596
     82  C        -26.8850    9.2270   42.2520 C.2   581  LEU581      0.2287
     83  O        -26.7490    9.8710   43.2990 O.2   581  LEU581     -0.2864
     84  CB       -27.8540   10.6420   40.4280 C.3   581  LEU581      0.0297
     85  CG       -27.5910   11.5870   39.2560 C.3   581  LEU581      0.0022
     86  CD1      -28.8780   11.9060   38.5220 C.3   581  LEU581      0.0001
     87  CD2      -26.9200   12.8610   39.7460 C.3   581  LEU581      0.0001
     88  N        -22.9590    8.6400   43.9240 N.3   584  GLU584     -0.1245
     89  CA       -22.4550    9.7510   44.7220 C.3   584  GLU584      0.1567
     90  C        -23.1840    9.8270   46.0590 C.2   584  GLU584      0.2260
     91  O        -22.5580    9.9000   47.1160 O.2   584  GLU584     -0.2867
     92  CB       -22.6100   11.0700   43.9620 C.3   584  GLU584      0.0388
     93  CG       -21.8250   11.1300   42.6760 C.3   584  GLU584      0.1160
     94  CD       -20.3390   11.1180   42.8350 C.2   584  GLU584      0.3649
     95  OE1      -19.8150   11.3630   43.9530 O.co2 584  GLU584     -0.2457
     96  OE2      -19.6900   10.9680   41.7880 O.co2 584  GLU584     -0.2457
     97  N        -28.4520   19.9270   41.5680 N.3   744  LEU744     -0.1231
     98  CA       -27.9100   19.7490   40.2260 C.3   744  LEU744      0.1693
     99  C        -27.1910   20.9760   39.6810 C.2   744  LEU744      0.2592
    100  O        -27.7450   22.0800   39.6850 O.2   744  LEU744     -0.2718
    101  CB       -29.0500   19.3370   39.2910 C.3   744  LEU744      0.0284
    102  CG       -28.7420   18.2880   38.2140 C.3   744  LEU744      0.0019
    103  CD1      -30.0240   17.8460   37.5240 C.3   744  LEU744      0.0001
    104  CD2      -27.7320   18.7930   37.1880 C.3   744  LEU744      0.0001
    105  N        -25.9630   20.7790   39.2110 N.am  745  SER745     -0.1952
    106  CA       -25.1460   21.8970   38.7660 C.3   745  SER745      0.1924
    107  C        -25.6610   22.4590   37.4490 C.2   745  SER745      0.2314
    108  O        -26.0080   21.7130   36.5290 O.2   745  SER745     -0.2863
    109  CB       -23.6960   21.4610   38.5940 C.3   745  SER745      0.2116
    110  OG       -23.4850   21.0140   37.2680 O.3   745  SER745     -0.2180
    111  N        -23.6640   24.0050   35.5330 N.3   747  SER747     -0.1202
    112  CA       -22.5180   23.9520   34.6290 C.3   747  SER747      0.2020
    113  C        -22.6510   22.8100   33.6290 C.2   747  SER747      0.2619
    114  O        -22.4320   22.9950   32.4260 O.2   747  SER747     -0.2717
    115  CB       -21.2230   23.8120   35.4310 C.3   747  SER747      0.2103
    116  OG       -21.1610   22.5570   36.0860 O.3   747  SER747     -0.2182
    117  N        -23.0020   21.6170   34.1070 N.am  748  ASN748     -0.1960
    118  CA       -23.1460   20.4840   33.2010 C.3   748  ASN748      0.1819
    119  C        -24.4420   20.5510   32.4010 C.2   748  ASN748      0.2621
    120  O        -24.5030   20.0220   31.2850 O.2   748  ASN748     -0.2715
    121  CB       -23.0750   19.1750   33.9840 C.3   748  ASN748      0.1195
    122  CG       -23.3860   17.9720   33.1230 C.2   748  ASN748      0.2630
    123  OD1      -24.5530   17.6460   32.8960 O.2   748  ASN748     -0.2716
    124  ND2      -22.3440   17.3170   32.6190 N.am  748  ASN748     -0.0877
    125  N        -25.4800   21.1880   32.9480 N.am  749  VAL749     -0.1977
    126  CA       -26.7190   21.3710   32.1980 C.3   749  VAL749      0.1596
    127  C        -26.4720   22.2120   30.9510 C.2   749  VAL749      0.2287
    128  O        -27.1470   22.0370   29.9280 O.2   749  VAL749     -0.2864
    129  CB       -27.7990   21.9950   33.1060 C.3   749  VAL749      0.0276
    130  CG1      -29.0770   22.2610   32.3290 C.3   749  VAL749      0.0022
    131  CG2      -28.0830   21.0800   34.2800 C.3   749  VAL749      0.0022
    132  N        -26.1110   20.7170   27.4210 N.3   752  VAL752     -0.1245
    133  CA       -27.2830   20.4700   26.5880 C.3   752  VAL752      0.1561
    134  C        -27.8250   21.7450   25.9590 C.2   752  VAL752      0.2260
    135  O        -28.6520   21.6670   25.0370 O.2   752  VAL752     -0.2867
    136  CB       -28.4060   19.7920   27.3980 C.3   752  VAL752      0.0252
    137  CG1      -29.2240   18.8650   26.5080 C.3   752  VAL752      0.0019
    138  CG2      -27.8300   19.0440   28.5900 C.3   752  VAL752      0.0019
@<TRIPOS>BOND
     1   135   134    2
     2    32    33   ar
     3    32    30   ar
     4    33    31   ar
     5   134   133    1
     6    30    28   ar
     7   137   136    1
     8   133   136    1
     9   133   132    1
    10    31    29   ar
    11   136   138    1
    12    28    29   ar
    13    28    27    1
    14    56    58   ar
    15    56    54   ar
    16    53    54    1
    17    53    50    1
    18    27    24    1
    19    58    59   ar
    20    25    26    2
    21    25    24    1
    22    54    55   ar
    23    34    35    1
    24    49    50    1
    25    24    23    1
    26    59    60    1
    27    59    57   ar
    28    50    51    1
    29    55    57   ar
    30    23    19   am
    31    44    45    2
    32    44    43    1
    33    35    36    1
    34    35    38    1
    35    17    18    1
    36   128   127    2
    37    37    36    2
    38    36    42   am
    39    42    48    1
    40    42    43    1
    41    19    18    1
    42    19    20    2
    43    48    47    1
    44    43    46    1
    45    51    52    2
    46    46    47    1
    47    18    21    1
    48    40    39   ar
    49   127   126    1
    50    38    39    1
    51   120   119    2
    52    39    41   ar
    53   126   125    1
    54   126   129    1
    55    21    22    1
    56   130   129    1
    57   119   125   am
    58   119   118    1
    59   114   113    2
    60   124   122   am
    61   123   122    2
    62   129   131    1
    63   122   121    1
    64   118   121    1
    65   118   117    1
    66    13    12    2
    67     9     8    1
    68    12    11    1
    69    68    66    1
    70   113   117   am
    71   113   112    1
    72    65    66    1
    73    65    62    1
    74    61    62    1
    75    66    67    1
    76   112   115    1
    77   112   111    1
    78    78    79   ar
    79    78    76   ar
    80     8     7    1
    81    62    63    1
    82    79    77   ar
    83    11    14    1
    84    11    10    1
    85     4     3    2
    86    14    15    1
    87   115   116    1
    88    76    74   ar
    89     7     6    1
    90    77    75   ar
    91     6     5    1
    92     3    10   am
    93     3     2    1
    94    10    16    1
    95    63    64    2
    96   108   107    2
    97    74    75   ar
    98    74    73    1
    99    15    16    1
   100     5     2    1
   101   104   102    1
   102   110   109    1
   103     2     1    1
   104   107   106    1
   105   103   102    1
   106    73    70    1
   107   102   101    1
   108    69    70    1
   109    86    85    1
   110   109   106    1
   111   106   105    1
   112    70    71    1
   113   105    99   am
   114    85    87    1
   115    85    84    1
   116   101    98    1
   117    99   100    2
   118    99    98    1
   119    71    80   am
   120    71    72    2
   121    80    81    1
   122    98    97    1
   123    84    81    1
   124    81    82    1
   125    96    94   ar
   126    82    83    2
   127    93    94    1
   128    93    92    1
   129    94    95   ar
   130    88    89    1
   131    92    89    1
   132    89    90    1
   133    90    91    2
