@<TRIPOS>MOLECULE
tmp/5l1pA01.pdb
 115 106 0 0 0
SMALL
GASTEIGER

@<TRIPOS>ATOM
      1  N         20.3860   14.0500   12.6530 N.3    73  ARG73      -0.1245
      2  CA        21.5470   14.0290   13.5310 C.3    73  ARG73       0.1563
      3  C         22.8360   13.8400   12.7320 C.2    73  ARG73       0.2260
      4  O         23.8750   14.4180   13.0740 O.2    73  ARG73      -0.2867
      5  CB        21.3630   12.9210   14.5750 C.3    73  ARG73       0.0307
      6  CG        22.3910   12.9260   15.6870 C.3    73  ARG73       0.0489
      7  CD        22.3820   14.2440   16.4810 C.3    73  ARG73       0.2205
      8  NE        21.2560   14.3920   17.4130 N.pl3  73  ARG73      -0.0865
      9  CZ        21.2070   15.3200   18.3680 C.cat  73  ARG73       0.5346
     10  NH1       22.2160   16.1690   18.5120 N.pl3  73  ARG73       0.1354
     11  NH2       20.1660   15.3980   19.1820 N.pl3  73  ARG73       0.1354
     12  N         23.7500   17.1930   11.3440 N.3    76  MET76      -0.1245
     13  CA        24.2480   18.0340   12.4270 C.3    76  MET76       0.1570
     14  C         25.6850   17.6710   12.7920 C.2    76  MET76       0.2261
     15  O         26.5470   18.5490   12.9200 O.2    76  MET76      -0.2867
     16  CB        23.3470   17.9160   13.6530 C.3    76  MET76       0.0387
     17  CG        23.9220   18.6460   14.8660 C.3    76  MET76       0.0595
     18  SD        22.6740   18.9650   16.1170 S.3    76  MET76      -0.1393
     19  CE        21.6980   20.2370   15.2750 C.3    76  MET76       0.0692
     20  N         29.4490   19.7720   12.2180 N.3    80  MET80      -0.1245
     21  CA        30.3220   20.0810   13.3380 C.3    80  MET80       0.1570
     22  C         31.6810   19.3930   13.2370 C.2    80  MET80       0.2261
     23  O         32.4220   19.3810   14.2260 O.2    80  MET80      -0.2867
     24  CB        29.6260   19.7050   14.6480 C.3    80  MET80       0.0387
     25  CG        28.2920   20.4400   14.8650 C.3    80  MET80       0.0595
     26  SD        27.3890   19.9510   16.3620 S.3    80  MET80      -0.1393
     27  CE        28.5270   20.4830   17.6440 C.3    80  MET80       0.0692
     28  N         22.8750   26.7050   12.0920 N.3   231  PHE231     -0.1241
     29  CA        22.9660   26.9640   13.5250 C.3   231  PHE231      0.1605
     30  C         22.7090   28.4350   13.8780 C.2   231  PHE231      0.2264
     31  O         22.4890   28.7500   15.0560 O.2   231  PHE231     -0.2867
     32  CB        24.3570   26.5470   14.0760 C.3   231  PHE231      0.0534
     33  CG        24.7520   25.1030   13.7600 C.ar  231  PHE231     -0.0203
     34  CD1       23.7890   24.1200   13.5730 C.ar  231  PHE231     -0.0042
     35  CD2       26.0940   24.7480   13.6370 C.ar  231  PHE231     -0.0042
     36  CE1       24.1530   22.8050   13.2820 C.ar  231  PHE231     -0.0003
     37  CE2       26.4700   23.4450   13.3400 C.ar  231  PHE231     -0.0003
     38  CZ        25.5010   22.4640   13.1640 C.ar  231  PHE231     -0.0000
     39  N         18.0280   28.3520   16.9540 N.3   235  THR235     -0.1218
     40  CA        18.1200   28.3530   18.4130 C.3   235  THR235      0.1862
     41  C         17.8220   29.7290   18.9830 C.2   235  THR235      0.2287
     42  O         17.1850   29.8400   20.0400 O.2   235  THR235     -0.2866
     43  CB        19.5030   27.8920   18.8900 C.3   235  THR235      0.1770
     44  OG1       20.5040   28.7530   18.3400 O.3   235  THR235     -0.2211
     45  CG2       19.7800   26.4410   18.4880 C.3   235  THR235      0.0375
     46  N         15.0050   30.8180   21.7050 N.3   239  ARG239     -0.1245
     47  CA        15.2910   31.5460   22.9390 C.3   239  ARG239      0.1563
     48  C         14.4540   32.8180   23.0570 C.2   239  ARG239      0.2260
     49  O         14.1400   33.2440   24.1750 O.2   239  ARG239     -0.2867
     50  CB        16.7890   31.8600   23.0350 C.3   239  ARG239      0.0307
     51  CG        17.6580   30.6180   23.2650 C.3   239  ARG239      0.0489
     52  CD        16.8950   29.5290   24.0430 C.3   239  ARG239      0.2205
     53  NE        17.6720   28.3030   24.2020 N.pl3 239  ARG239     -0.0865
     54  CZ        17.7990   27.3680   23.2620 C.cat 239  ARG239      0.5346
     55  NH1       17.2160   27.5190   22.0810 N.pl3 239  ARG239      0.1354
     56  NH2       18.5160   26.2790   23.4960 N.pl3 239  ARG239      0.1354
     57  N         16.7370   18.8930   23.2650 N.3   282  ASN282     -0.1240
     58  CA        17.8030   19.7520   22.7510 C.3   282  ASN282      0.1653
     59  C         18.7080   20.2980   23.8500 C.2   282  ASN282      0.2266
     60  O         19.7660   20.8440   23.5300 O.2   282  ASN282     -0.2867
     61  CB        17.2200   20.9280   21.9610 C.3   282  ASN282      0.1155
     62  CG        16.3420   21.8140   22.8170 C.2   282  ASN282      0.2627
     63  OD1       15.4720   21.3280   23.5410 O.2   282  ASN282     -0.2716
     64  ND2       16.5610   23.1180   22.7410 N.am  282  ASN282     -0.0877
     65  N         20.3810   18.5100   25.8180 N.3   284  LEU284     -0.1231
     66  CA        21.3420   17.4430   26.0610 C.3   284  LEU284      0.1693
     67  C         22.4300   17.5470   25.0120 C.2   284  LEU284      0.2592
     68  O         22.1360   17.5250   23.8090 O.2   284  LEU284     -0.2718
     69  CB        20.6930   16.0640   25.9720 C.3   284  LEU284      0.0284
     70  CG        19.5320   15.7220   26.8980 C.3   284  LEU284      0.0019
     71  CD1       18.9280   14.3770   26.4930 C.3   284  LEU284      0.0001
     72  CD2       20.0010   15.7020   28.3540 C.3   284  LEU284      0.0001
     73  N         23.6770   17.6540   25.4550 N.am  285  ILE285     -0.1966
     74  CA        24.8260   17.6370   24.5640 C.3   285  ILE285      0.1712
     75  C         25.3430   16.1940   24.4830 C.2   285  ILE285      0.2458
     76  O         25.7140   15.6310   25.5260 O.2   285  ILE285     -0.2730
     77  CB        25.9210   18.5940   25.0410 C.3   285  ILE285      0.0289
     78  CG1       25.4790   20.0520   24.8380 C.3   285  ILE285      0.0022
     79  CG2       27.2560   18.2860   24.3520 C.3   285  ILE285      0.0023
     80  CD1       26.5180   21.0840   25.3550 C.3   285  ILE285      0.0001
     81  N         25.3850   15.5860   23.3000 N.am  286  PRO286     -0.2727
     82  CA        25.8280   14.1890   23.1820 C.3   286  PRO286      0.1402
     83  C         27.3300   14.0530   22.9680 C.2   286  PRO286      0.2269
     84  O         27.9590   14.8490   22.2690 O.2   286  PRO286     -0.2865
     85  CB        25.0620   13.7140   21.9420 C.3   286  PRO286      0.0296
     86  CG        25.0230   14.9560   21.0710 C.3   286  PRO286      0.0237
     87  CD        24.9250   16.1390   22.0120 C.3   286  PRO286      0.0939
     88  N         22.8100   19.8320   29.9480 N.3   310  ILE310     -0.1245
     89  CA        23.1020   21.2260   30.2800 C.3   310  ILE310      0.1561
     90  C         21.8610   21.9370   30.7970 C.2   310  ILE310      0.2260
     91  O         21.9670   22.9070   31.5540 O.2   310  ILE310     -0.2867
     92  CB        23.7040   21.9620   29.0680 C.3   310  ILE310      0.0252
     93  CG1       22.7140   21.9740   27.8900 C.3   310  ILE310      0.0019
     94  CG2       25.0490   21.3460   28.6910 C.3   310  ILE310      0.0019
     95  CD1       23.1830   22.8110   26.6930 C.3   310  ILE310      0.0001
     96  N         24.2850   26.9680   28.9140 N.3   338  ALA338     -0.1245
     97  CA        23.3800   26.9280   27.7650 C.3   338  ALA338      0.1562
     98  C         24.0960   27.1130   26.4300 C.2   338  ALA338      0.2260
     99  O         23.5300   26.7510   25.3900 O.2   338  ALA338     -0.2867
    100  CB        22.2700   27.9820   27.8990 C.3   338  ALA338      0.0290
    101  N         15.5060   18.4130   16.2500 N.3   386  ILE386     -0.1231
    102  CA        16.6480   18.4420   17.1620 C.3   386  ILE386      0.1692
    103  C         16.6400   19.7300   17.9670 C.2   386  ILE386      0.2592
    104  O         16.9400   19.7320   19.1670 O.2   386  ILE386     -0.2718
    105  CB        17.9710   18.2750   16.3900 C.3   386  ILE386      0.0266
    106  CG1       18.0660   16.8970   15.7630 C.3   386  ILE386      0.0019
    107  CG2       19.1520   18.5220   17.3210 C.3   386  ILE386      0.0020
    108  CD1       19.3700   16.6920   15.0200 C.3   386  ILE386      0.0001
    109  N         16.2710   20.8410   17.3190 N.am  387  THR387     -0.1953
    110  CA        16.2450   22.1760   17.9040 C.3   387  THR387      0.1897
    111  C         14.9120   22.5040   18.5850 C.2   387  THR387      0.2313
    112  O         14.8010   23.5560   19.2270 O.2   387  THR387     -0.2863
    113  CB        16.5870   23.2210   16.8120 C.3   387  THR387      0.1794
    114  OG1       15.8390   22.9510   15.6110 O.3   387  THR387     -0.2208
    115  CG2       18.0780   23.1500   16.4560 C.3   387  THR387      0.0378
@<TRIPOS>BOND
     1    12    13    1
     2    28    29    1
     3    20    21    1
     4    13    14    1
     5    13    16    1
     6     1     2    1
     7     3     4    2
     8     3     2    1
     9    14    15    2
    10    38    36   ar
    11    38    37   ar
    12    22    21    1
    13    22    23    2
    14    36    34   ar
    15    21    24    1
    16    37    35   ar
    17    29    30    1
    18    29    32    1
    19     2     5    1
    20    34    33   ar
    21    35    33   ar
    22    16    17    1
    23    33    32    1
    24    30    31    2
    25     5     6    1
    26    24    25    1
    27    25    26    1
    28    17    18    1
    29   108   106    1
    30    19    18    1
    31   114   113    1
    32     6     7    1
    33   106   105    1
    34   101   102    1
    35    26    27    1
    36   105   102    1
    37   105   107    1
    38   115   113    1
    39     7     8    1
    40   113   110    1
    41    39    40    1
    42   102   103    1
    43   109   110    1
    44   109   103   am
    45     8     9    2
    46   110   111    1
    47   103   104    2
    48    44    43    1
    49     9    10    1
    50     9    11    1
    51    40    43    1
    52    40    41    1
    53    45    43    1
    54   111   112    2
    55    41    42    2
    56    86    85    1
    57    86    87    1
    58    46    47    1
    59    85    82    1
    60    61    58    1
    61    61    62    1
    62    87    81    1
    63    55    54    1
    64    84    83    2
    65    64    62   am
    66    58    57    1
    67    58    59    1
    68    62    63    2
    69    47    50    1
    70    47    48    1
    71    83    82    1
    72    50    51    1
    73    48    49    2
    74    82    81    1
    75    54    56    1
    76    54    53    2
    77    51    52    1
    78    81    75   am
    79    60    59    2
    80    68    67    2
    81    52    53    1
    82    79    77    1
    83    75    74    1
    84    75    76    2
    85    74    77    1
    86    74    73    1
    87    78    77    1
    88    78    80    1
    89    67    73   am
    90    67    66    1
    91    99    98    2
    92    65    66    1
    93    69    66    1
    94    69    70    1
    95    98    97    1
    96    71    70    1
    97    95    93    1
    98    70    72    1
    99    97   100    1
   100    97    96    1
   101    93    92    1
   102    94    92    1
   103    92    89    1
   104    88    89    1
   105    89    90    1
   106    90    91    2
