@<TRIPOS>MOLECULE
tmp/5l1rA01.pdb
 106 95 0 0 0
SMALL
GASTEIGER

@<TRIPOS>ATOM
      1  N         20.4580   14.0110   12.4780 N.3    73  ARG73      -0.1245
      2  CA        21.5770   14.0180   13.4170 C.3    73  ARG73       0.1563
      3  C         22.9100   13.8690   12.6870 C.2    73  ARG73       0.2260
      4  O         23.9060   14.4990   13.0630 O.2    73  ARG73      -0.2867
      5  CB        21.3880   12.8980   14.4450 C.3    73  ARG73       0.0307
      6  CG        22.4990   12.7910   15.4560 C.3    73  ARG73       0.0489
      7  CD        22.4490   13.9360   16.4340 C.3    73  ARG73       0.2205
      8  NE        21.2250   13.9440   17.2330 N.pl3  73  ARG73      -0.0865
      9  CZ        20.9510   14.8660   18.1490 C.cat  73  ARG73       0.5346
     10  NH1       21.8110   15.8480   18.3730 N.pl3  73  ARG73       0.1354
     11  NH2       19.8210   14.8100   18.8400 N.pl3  73  ARG73       0.1354
     12  N         23.8850   17.2680   11.2890 N.3    76  MET76      -0.1245
     13  CA        24.3660   18.1540   12.3390 C.3    76  MET76       0.1570
     14  C         25.7870   17.7910   12.7450 C.2    76  MET76       0.2261
     15  O         26.6490   18.6680   12.8840 O.2    76  MET76      -0.2867
     16  CB        23.4360   18.1000   13.5480 C.3    76  MET76       0.0387
     17  CG        23.9270   18.9820   14.6890 C.3    76  MET76       0.0595
     18  SD        22.6920   19.2360   15.9700 S.3    76  MET76      -0.1393
     19  CE        21.6080   20.3940   15.1300 C.3    76  MET76       0.0692
     20  N         29.4740   19.9480   12.1160 N.3    80  MET80      -0.1245
     21  CA        30.3520   20.2050   13.2470 C.3    80  MET80       0.1570
     22  C         31.6870   19.4860   13.1230 C.2    80  MET80       0.2261
     23  O         32.4420   19.4390   14.1050 O.2    80  MET80      -0.2867
     24  CB        29.6460   19.7850   14.5420 C.3    80  MET80       0.0387
     25  CG        28.4480   20.6790   14.8930 C.3    80  MET80       0.0595
     26  SD        27.4410   20.0560   16.2600 S.3    80  MET80      -0.1393
     27  CE        28.4900   20.5140   17.6540 C.3    80  MET80       0.0692
     28  N         23.0540   26.7110   12.1130 N.3   231  PHE231     -0.1241
     29  CA        23.1340   26.9700   13.5520 C.3   231  PHE231      0.1605
     30  C         22.8510   28.4240   13.9240 C.2   231  PHE231      0.2264
     31  O         22.6440   28.7140   15.1080 O.2   231  PHE231     -0.2867
     32  CB        24.5230   26.5790   14.0960 C.3   231  PHE231      0.0534
     33  CG        24.9120   25.1470   13.7960 C.ar  231  PHE231     -0.0203
     34  CD1       26.2380   24.7950   13.6200 C.ar  231  PHE231     -0.0042
     35  CD2       23.9390   24.1610   13.6650 C.ar  231  PHE231     -0.0042
     36  CE1       26.5910   23.4780   13.3320 C.ar  231  PHE231     -0.0003
     37  CE2       24.2860   22.8380   13.3780 C.ar  231  PHE231     -0.0003
     38  CZ        25.6100   22.5000   13.2160 C.ar  231  PHE231     -0.0000
     39  N         17.9960   28.3370   16.6320 N.3   235  THR235     -0.1218
     40  CA        18.1020   28.2660   18.0880 C.3   235  THR235      0.1862
     41  C         17.8270   29.6210   18.7320 C.2   235  THR235      0.2287
     42  O         17.2180   29.6930   19.8100 O.2   235  THR235     -0.2866
     43  CB        19.4800   27.7520   18.5110 C.3   235  THR235      0.1770
     44  OG1       20.4980   28.6570   18.0680 O.3   235  THR235     -0.2211
     45  CG2       19.7360   26.3780   17.9260 C.3   235  THR235      0.0375
     46  N         14.9090   30.7250   21.5720 N.3   239  ARG239     -0.1245
     47  CA        15.1500   31.4010   22.8500 C.3   239  ARG239      0.1563
     48  C         14.3510   32.6900   22.9780 C.2   239  ARG239      0.2260
     49  O         13.9880   33.0720   24.0960 O.2   239  ARG239     -0.2867
     50  CB        16.6500   31.6770   23.0640 C.3   239  ARG239      0.0307
     51  CG        17.5350   30.3990   23.0250 C.3   239  ARG239      0.0489
     52  CD        16.9790   29.3380   23.9740 C.3   239  ARG239      0.2205
     53  NE        17.8110   28.1260   24.0990 N.pl3 239  ARG239     -0.0865
     54  CZ        17.9300   27.1880   23.1640 C.cat 239  ARG239      0.5346
     55  NH1       17.2840   27.3130   22.0080 N.pl3 239  ARG239      0.1354
     56  NH2       18.6740   26.1030   23.3870 N.pl3 239  ARG239      0.1354
     57  N         16.7690   18.9070   23.1100 N.3   282  ASN282     -0.1240
     58  CA        17.8660   19.7340   22.6160 C.3   282  ASN282      0.1653
     59  C         18.7970   20.1900   23.7340 C.2   282  ASN282      0.2266
     60  O         19.9220   20.6180   23.4530 O.2   282  ASN282     -0.2867
     61  CB        17.3140   20.9580   21.8760 C.3   282  ASN282      0.1155
     62  CG        16.4990   21.8390   22.7760 C.2   282  ASN282      0.2627
     63  OD1       15.5400   21.3840   23.4000 O.2   282  ASN282     -0.2716
     64  ND2       16.8880   23.1000   22.8790 N.am  282  ASN282     -0.0877
     65  N         20.2470   18.2700   25.7880 N.3   284  LEU284     -0.1245
     66  CA        21.1360   17.1430   26.0640 C.3   284  LEU284      0.1561
     67  C         22.2270   17.1720   25.0030 C.2   284  LEU284      0.2260
     68  O         21.9380   17.0030   23.8150 O.2   284  LEU284     -0.2867
     69  CB        20.3800   15.8180   26.0200 C.3   284  LEU284      0.0270
     70  CG        19.2110   15.5680   26.9700 C.3   284  LEU284      0.0019
     71  CD1       18.5570   14.2560   26.6040 C.3   284  LEU284      0.0001
     72  CD2       19.7000   15.5310   28.4030 C.3   284  LEU284      0.0001
     73  N         22.7040   19.8050   29.8810 N.3   310  ILE310     -0.1245
     74  CA        22.9730   21.2060   30.1970 C.3   310  ILE310      0.1561
     75  C         21.7260   21.8910   30.7440 C.2   310  ILE310      0.2260
     76  O         21.8310   22.7860   31.5940 O.2   310  ILE310     -0.2867
     77  CB        23.5260   21.9580   28.9680 C.3   310  ILE310      0.0252
     78  CG1       22.5550   21.8880   27.7740 C.3   310  ILE310      0.0019
     79  CG2       24.9280   21.4500   28.6050 C.3   310  ILE310      0.0019
     80  CD1       23.0270   22.7190   26.5470 C.3   310  ILE310      0.0001
     81  N         24.0290   26.9600   28.7820 N.3   338  ALA338     -0.1245
     82  CA        23.1430   26.8770   27.6230 C.3   338  ALA338      0.1562
     83  C         23.8670   27.0690   26.2930 C.2   338  ALA338      0.2260
     84  O         23.3220   26.6800   25.2510 O.2   338  ALA338     -0.2867
     85  CB        22.0110   27.8980   27.7330 C.3   338  ALA338      0.0290
     86  N         29.6950   27.4500   22.0010 N.3   346  CYS346     -0.1235
     87  CA        28.9750   28.0590   20.8910 C.3   346  CYS346      0.1677
     88  C         29.7240   29.2560   20.3030 C.2   346  CYS346      0.2270
     89  O         30.0670   30.2030   21.0190 O.2   346  CYS346     -0.2867
     90  CB        27.5890   28.5080   21.3600 C.3   346  CYS346      0.0956
     91  SG        26.7470   29.6490   20.1990 S.3   346  CYS346     -0.0801
     92  N         15.5600   18.4840   16.0210 N.3   386  ILE386     -0.1231
     93  CA        16.6930   18.5190   16.9530 C.3   386  ILE386      0.1692
     94  C         16.6750   19.8140   17.7540 C.2   386  ILE386      0.2592
     95  O         16.9410   19.8240   18.9630 O.2   386  ILE386     -0.2718
     96  CB        18.0260   18.3500   16.1950 C.3   386  ILE386      0.0266
     97  CG1       18.0960   16.9970   15.4930 C.3   386  ILE386      0.0019
     98  CG2       19.2150   18.4840   17.1440 C.3   386  ILE386      0.0020
     99  CD1       19.3880   16.8230   14.7160 C.3   386  ILE386      0.0001
    100  N         16.3300   20.9230   17.0960 N.am  387  THR387     -0.1953
    101  CA        16.2590   22.2390   17.7230 C.3   387  THR387      0.1897
    102  C         14.9500   22.5010   18.4700 C.2   387  THR387      0.2313
    103  O         14.8260   23.5650   19.0860 O.2   387  THR387     -0.2863
    104  CB        16.4590   23.3340   16.6600 C.3   387  THR387      0.1794
    105  OG1       15.7720   22.9590   15.4630 O.3   387  THR387     -0.2208
    106  CG2       17.9400   23.5270   16.3330 C.3   387  THR387      0.0378
@<TRIPOS>BOND
     1    12    13    1
     2    28    29    1
     3    20    21    1
     4    13    14    1
     5    13    16    1
     6     1     2    1
     7     3     4    2
     8     3     2    1
     9    14    15    2
    10    22    21    1
    11    22    23    2
    12    38    36   ar
    13    38    37   ar
    14    21    24    1
    15    36    34   ar
    16    37    35   ar
    17     2     5    1
    18    16    17    1
    19    29    30    1
    20    29    32    1
    21    34    33   ar
    22    35    33   ar
    23    33    32    1
    24    30    31    2
    25     5     6    1
    26    24    25    1
    27    17    18    1
    28    99    97    1
    29    25    26    1
    30    19    18    1
    31     6     7    1
    32   105   104    1
    33    97    96    1
    34    92    93    1
    35    96    93    1
    36    96    98    1
    37    26    27    1
    38   106   104    1
    39     7     8    1
    40    39    40    1
    41   104   101    1
    42    93    94    1
    43   100   101    1
    44   100    94   am
    45     8     9    2
    46   101   102    1
    47    94    95    2
    48    45    43    1
    49    44    43    1
    50    40    43    1
    51    40    41    1
    52     9    10    1
    53     9    11    1
    54   102   103    2
    55    41    42    2
    56    91    90    1
    57    88    87    1
    58    88    89    2
    59    87    90    1
    60    87    86    1
    61    46    47    1
    62    61    58    1
    63    61    62    1
    64    55    54    1
    65    58    57    1
    66    58    59    1
    67    62    64   am
    68    62    63    2
    69    47    48    1
    70    47    50    1
    71    48    49    2
    72    51    50    1
    73    51    52    1
    74    54    56    1
    75    54    53    2
    76    60    59    2
    77    68    67    2
    78    52    53    1
    79    67    66    1
    80    84    83    2
    81    65    66    1
    82    69    66    1
    83    69    70    1
    84    83    82    1
    85    80    78    1
    86    71    70    1
    87    70    72    1
    88    82    85    1
    89    82    81    1
    90    78    77    1
    91    79    77    1
    92    77    74    1
    93    73    74    1
    94    74    75    1
    95    75    76    2
