@<TRIPOS>MOLECULE
tmp/5l20B00.pdb
 106 104 0 0 0
SMALL
GASTEIGER

@<TRIPOS>ATOM
      1  N         16.7350   17.4950  -13.3830 N.3    33  ASP33      -0.1225
      2  CA        16.8510   18.5100  -14.4340 C.3    33  ASP33       0.1805
      3  C         18.2450   18.4280  -15.0190 C.2    33  ASP33       0.2598
      4  O         19.1380   19.2270  -14.6910 O.2    33  ASP33      -0.2718
      5  CB        16.5520   19.8840  -13.8190 C.3    33  ASP33       0.1424
      6  CG        16.4540   20.9870  -14.8580 C.2    33  ASP33       0.3668
      7  OD1       16.8300   20.7400  -16.0200 O.co2  33  ASP33      -0.2456
      8  OD2       16.0590   22.1120  -14.4840 O.co2  33  ASP33      -0.2456
      9  N         18.4530   17.3760  -15.8170 N.am   34  ASP34      -0.1960
     10  CA        19.7300   17.0940  -16.4700 C.3    34  ASP34       0.1840
     11  C         19.5190   16.0480  -17.5450 C.2    34  ASP34       0.2622
     12  O         18.4270   15.5290  -17.7000 O.2    34  ASP34      -0.2715
     13  CB        20.8010   16.6080  -15.5010 C.3    34  ASP34       0.1450
     14  CG        20.4790   15.3350  -14.9280 C.2    34  ASP34       0.3671
     15  OD1       19.2570   15.0590  -14.9050 O.co2  34  ASP34      -0.2456
     16  OD2       21.3990   14.6280  -14.4410 O.co2  34  ASP34      -0.2456
     17  N         20.5660   15.7590  -18.2990 N.am   35  CYS35      -0.1954
     18  CA        20.4530   14.7630  -19.3560 C.3    35  CYS35       0.1843
     19  C         20.4460   13.3410  -18.8360 C.2    35  CYS35       0.2625
     20  O         21.1190   13.0210  -17.8330 O.2    35  CYS35      -0.2714
     21  CB        21.6220   14.8740  -20.3330 C.3    35  CYS35       0.0997
     22  SG        21.7450   16.4110  -21.2540 S.3    35  CYS35      -0.0797
     23  N         19.7320   12.4870  -19.5630 N.am   36  TYR36      -0.1974
     24  CA        19.9220   11.0480  -19.5000 C.3    36  TYR36       0.1639
     25  C         19.6010   10.3890  -18.1590 C.2    36  TYR36       0.2290
     26  O         20.1460    9.3320  -17.8550 O.2    36  TYR36      -0.2864
     27  CB        21.3850   10.7280  -19.9010 C.3    36  TYR36       0.0560
     28  CG        21.7570   11.0560  -21.3450 C.ar   36  TYR36      -0.0198
     29  CD1       20.9550   10.6430  -22.3800 C.ar   36  TYR36      -0.0009
     30  CD2       22.9040   11.7950  -21.6500 C.ar   36  TYR36      -0.0009
     31  CE1       21.2530   10.9420  -23.6810 C.ar   36  TYR36       0.0417
     32  CE2       23.2240   12.0980  -22.9830 C.ar   36  TYR36       0.0417
     33  CZ        22.4010   11.6420  -23.9770 C.ar   36  TYR36       0.1957
     34  OH        22.6640   11.8980  -25.3340 O.3    36  TYR36      -0.2866
     35  N         18.8980   14.2130  -24.0480 N.3    59  GLU59      -0.1231
     36  CA        19.4870   15.4740  -23.6410 C.3    59  GLU59       0.1699
     37  C         18.4070   16.5330  -23.4100 C.2    59  GLU59       0.2592
     38  O         17.4760   16.6310  -24.1890 O.2    59  GLU59      -0.2718
     39  CB        20.5180   15.9270  -24.6710 C.3    59  GLU59       0.0402
     40  CG        21.7440   14.9980  -24.6170 C.3    59  GLU59       0.1161
     41  CD        22.8140   15.2690  -25.6330 C.2    59  GLU59       0.3649
     42  OE1       23.0600   16.4500  -25.9680 O.co2  59  GLU59      -0.2457
     43  OE2       23.4600   14.2810  -26.0400 O.co2  59  GLU59      -0.2457
     44  N         18.5600   17.3100  -22.3370 N.am   60  VAL60      -0.1966
     45  CA        17.7010   18.4400  -21.9980 C.3    60  VAL60       0.1727
     46  C         18.4570   19.6990  -22.3620 C.2    60  VAL60       0.2616
     47  O         19.6530   19.7770  -22.0680 O.2    60  VAL60      -0.2715
     48  CB        17.3880   18.4400  -20.4760 C.3    60  VAL60       0.0290
     49  CG1       16.6620   19.7050  -19.9960 C.3    60  VAL60       0.0023
     50  CG2       16.6100   17.1860  -20.1150 C.3    60  VAL60       0.0023
     51  N         17.7950   20.6780  -22.9820 N.am   61  MET61      -0.1963
     52  CA        18.5160   21.9030  -23.3290 C.3    61  MET61       0.1736
     53  C         19.0350   22.5870  -22.0790 C.2    61  MET61       0.2616
     54  O         18.4770   22.3980  -20.9880 O.2    61  MET61      -0.2715
     55  CB        17.6110   22.8510  -24.1130 C.3    61  MET61       0.0427
     56  CG        16.9240   22.1960  -25.3210 C.3    61  MET61       0.0599
     57  SD        17.9960   21.2490  -26.4420 S.3    61  MET61      -0.1393
     58  CE        19.1970   22.4840  -26.7200 C.3    61  MET61       0.0692
     59  N         20.0930   23.3880  -22.2190 N.am   62  ALA62      -0.1963
     60  CA        20.7270   23.9980  -21.0510 C.3    62  ALA62       0.1728
     61  C         19.7580   24.8660  -20.2590 C.2    62  ALA62       0.2616
     62  O         19.9230   25.0550  -19.0520 O.2    62  ALA62      -0.2715
     63  CB        21.9490   24.8130  -21.4790 C.3    62  ALA62       0.0334
     64  N         18.7210   25.4010  -20.9200 N.am   63  TYR63      -0.1960
     65  CA        17.6820   26.1420  -20.2050 C.3    63  TYR63       0.1771
     66  C         17.1290   25.3490  -19.0020 C.2    63  TYR63       0.2620
     67  O         16.8690   25.9200  -17.9410 O.2    63  TYR63      -0.2715
     68  CB        16.5320   26.5340  -21.1580 C.3    63  TYR63       0.0574
     69  CG        15.7080   27.6430  -20.5610 C.ar   63  TYR63      -0.0198
     70  CD1       16.0640   28.9840  -20.7640 C.ar   63  TYR63      -0.0009
     71  CD2       14.6320   27.3870  -19.7380 C.ar   63  TYR63      -0.0009
     72  CE1       15.3380   30.0170  -20.1710 C.ar   63  TYR63       0.0417
     73  CE2       13.9130   28.4000  -19.1530 C.ar   63  TYR63       0.0417
     74  CZ        14.2700   29.7200  -19.3580 C.ar   63  TYR63       0.1957
     75  OH        13.5470   30.7440  -18.7700 O.3    63  TYR63      -0.2866
     76  N         16.9730   24.0350  -19.2040 N.am   64  GLY64      -0.1954
     77  CA        16.4950   23.1420  -18.1440 C.3    64  GLY64       0.1869
     78  C         14.9760   23.1580  -18.0450 C.2    64  GLY64       0.2309
     79  O         14.2570   23.4540  -19.0120 O.2    64  GLY64      -0.2863
     80  N         15.2310   25.4340  -29.8510 N.3    96  THR96      -0.1218
     81  CA        15.5000   24.0340  -30.1950 C.3    96  THR96       0.1862
     82  C         14.3330   23.2570  -29.6200 C.2    96  THR96       0.2287
     83  O         14.2920   23.0420  -28.4040 O.2    96  THR96      -0.2866
     84  CB        16.8290   23.5290  -29.6190 C.3    96  THR96       0.1770
     85  OG1       17.9000   24.3110  -30.1630 O.3    96  THR96      -0.2211
     86  CG2       17.0800   22.0660  -30.0130 C.3    96  THR96       0.0375
     87  N         17.1970   16.3680  -29.1760 N.3   182  TYR182     -0.1241
     88  CA        18.3960   17.0040  -29.6800 C.3   182  TYR182      0.1605
     89  C         19.6090   16.4280  -29.0020 C.2   182  TYR182      0.2264
     90  O         19.5800   16.1760  -27.8000 O.2   182  TYR182     -0.2867
     91  CB        18.3590   18.5190  -29.4510 C.3   182  TYR182      0.0534
     92  CG        19.5570   19.2100  -30.0920 C.ar  182  TYR182     -0.0201
     93  CD1       19.5880   19.4540  -31.4620 C.ar  182  TYR182     -0.0009
     94  CD2       20.6550   19.6020  -29.3250 C.ar  182  TYR182     -0.0009
     95  CE1       20.6830   20.0640  -32.0410 C.ar  182  TYR182      0.0417
     96  CE2       21.7530   20.2160  -29.8920 C.ar  182  TYR182      0.0417
     97  CZ        21.7530   20.4430  -31.2520 C.ar  182  TYR182      0.1957
     98  OH        22.8520   21.0450  -31.8240 O.3   182  TYR182     -0.2866
     99  N         23.9510   17.1060  -28.7570 N.3   184  MET184     -0.1245
    100  CA        25.0260   17.9880  -29.2170 C.3   184  MET184      0.1570
    101  C         25.8720   17.2910  -30.2970 C.2   184  MET184      0.2261
    102  O         26.3120   17.9260  -31.2500 O.2   184  MET184     -0.2867
    103  CB        25.9000   18.4320  -28.0440 C.3   184  MET184      0.0387
    104  CG        25.2050   19.3560  -27.0190 C.3   184  MET184      0.0595
    105  SD        26.5360   19.8900  -25.9120 S.3   184  MET184     -0.1393
    106  CE        26.0790   20.5780  -24.3760 C.3   184  MET184      0.0692
@<TRIPOS>BOND
     1    95    93   ar
     2    95    97   ar
     3    98    97    1
     4    93    92   ar
     5    97    96   ar
     6   102   101    2
     7   101   100    1
     8    81    80    1
     9    81    82    1
    10    81    84    1
    11    85    84    1
    12    92    91    1
    13    92    94   ar
    14    86    84    1
    15    96    94   ar
    16    88    91    1
    17    88    87    1
    18    88    89    1
    19    82    83    2
    20   100    99    1
    21   100   103    1
    22    89    90    2
    23   103   104    1
    24   104   105    1
    25    58    57    1
    26    57    56    1
    27    43    41   ar
    28    42    41   ar
    29   105   106    1
    30    41    40    1
    31    34    33    1
    32    56    55    1
    33    39    40    1
    34    39    36    1
    35    38    37    2
    36    55    52    1
    37    35    36    1
    38    33    31   ar
    39    33    32   ar
    40    31    29   ar
    41    36    37    1
    42    37    44   am
    43    52    51    1
    44    52    53    1
    45    32    30   ar
    46    51    46   am
    47    29    28   ar
    48    46    47    2
    49    46    45    1
    50    44    45    1
    51    59    53   am
    52    59    60    1
    53    53    54    2
    54    45    48    1
    55    30    28   ar
    56    63    60    1
    57    28    27    1
    58    22    21    1
    59    68    69    1
    60    68    65    1
    61    60    61    1
    62    64    61   am
    63    64    65    1
    64    70    69   ar
    65    70    72   ar
    66    69    71   ar
    67    48    50    1
    68    48    49    1
    69    21    18    1
    70    61    62    2
    71    65    66    1
    72    72    74   ar
    73    27    24    1
    74    71    73   ar
    75    23    24    1
    76    23    19   am
    77    24    25    1
    78    74    73   ar
    79    74    75    1
    80    18    19    1
    81    18    17    1
    82    76    66   am
    83    76    77    1
    84    79    78    2
    85    66    67    2
    86    19    20    2
    87    17    11   am
    88    25    26    2
    89    77    78    1
    90    12    11    2
    91    11    10    1
    92    10     9    1
    93    10    13    1
    94     7     6   ar
    95     9     3   am
    96    13    14    1
    97     3     4    2
    98     3     2    1
    99    14    15   ar
   100    14    16   ar
   101     6     8   ar
   102     6     5    1
   103     2     5    1
   104     2     1    1
