@<TRIPOS>MOLECULE
tmp/5l22A00.pdb
 126 123 0 0 0
SMALL
GASTEIGER

@<TRIPOS>ATOM
      1  N         35.1520    2.2950   31.3160 N.3   102  PRO102     -0.2116
      2  CA        34.2810    2.4780   30.1500 C.3   102  PRO102      0.1372
      3  C         33.1210    1.4900   30.1140 C.2   102  PRO102      0.2244
      4  O         32.0920    1.7790   29.5030 O.2   102  PRO102     -0.2868
      5  CB        35.2270    2.2560   28.9650 C.3   102  PRO102      0.0268
      6  CG        36.3270    1.4160   29.5050 C.3   102  PRO102      0.0207
      7  CD        36.5000    1.8430   30.9290 C.3   102  PRO102      0.0892
      8  N         45.3880   -1.1360   29.2550 N.3   322  PRO322     -0.2103
      9  CA        44.1860   -0.3260   29.0460 C.3   322  PRO322      0.1489
     10  C         43.1800   -0.5060   30.1800 C.2   322  PRO322      0.2418
     11  O         43.1780   -1.5630   30.8110 O.2   322  PRO322     -0.2734
     12  CB        43.6320   -0.8520   27.7200 C.3   322  PRO322      0.0282
     13  CG        44.1550   -2.2330   27.6060 C.3   322  PRO322      0.0208
     14  CD        45.5000   -2.2250   28.2680 C.3   322  PRO322      0.0893
     15  N         42.3550    0.5190   30.4500 N.am  323  PRO323     -0.2718
     16  CA        41.3320    0.4170   31.4960 C.3   323  PRO323      0.1535
     17  C         40.4690   -0.8300   31.3260 C.2   323  PRO323      0.2598
     18  O         39.8810   -1.0210   30.2610 O.2   323  PRO323     -0.2715
     19  CB        40.5080    1.6930   31.3060 C.3   323  PRO323      0.0310
     20  CG        41.4540    2.6560   30.6810 C.3   323  PRO323      0.0237
     21  CD        42.3540    1.8460   29.8070 C.3   323  PRO323      0.0939
     22  N         40.4130   -1.6640   32.3600 N.am  324  GLU324     -0.1964
     23  CA        39.6860   -2.9290   32.3030 C.3   324  GLU324      0.1733
     24  C         40.2710   -3.8240   31.2160 C.2   324  GLU324      0.2616
     25  O         39.5380   -4.3690   30.3880 O.2   324  GLU324     -0.2715
     26  CB        38.1980   -2.6900   32.0390 C.3   324  GLU324      0.0429
     27  CG        37.5660   -1.6260   32.9210 C.3   324  GLU324      0.1163
     28  CD        36.1390   -1.3070   32.5150 C.2   324  GLU324      0.3649
     29  OE1       35.3420   -0.9170   33.3940 O.co2 324  GLU324     -0.2457
     30  OE2       35.8160   -1.4410   31.3150 O.co2 324  GLU324     -0.2457
     31  N         41.5930   -3.9730   31.2310 N.am  325  GLY325     -0.1955
     32  CA        42.3080   -4.6380   30.1540 C.3   325  GLY325      0.1869
     33  C         43.0210   -5.9220   30.5370 C.2   325  GLY325      0.2309
     34  O         43.2810   -6.7630   29.6760 O.2   325  GLY325     -0.2863
     35  N         48.9760   -3.7510   26.8260 N.3   329  VAL329     -0.1245
     36  CA        48.8110   -3.4690   25.4020 C.3   329  VAL329      0.1561
     37  C         50.0560   -2.7770   24.8400 C.2   329  VAL329      0.2260
     38  O         50.3050   -2.8120   23.6340 O.2   329  VAL329     -0.2867
     39  CB        47.5630   -2.5910   25.1430 C.3   329  VAL329      0.0252
     40  CG1       47.7980   -1.1580   25.6150 C.3   329  VAL329      0.0019
     41  CG2       47.1830   -2.6200   23.6700 C.3   329  VAL329      0.0019
     42  N         50.7500   -2.9120   11.6300 N.3   348  PRO348     -0.2102
     43  CA        49.4600   -3.6120   11.5470 C.3   348  PRO348      0.1504
     44  C         48.4360   -3.0990   12.5640 C.2   348  PRO348      0.2576
     45  O         48.7310   -2.1510   13.2890 O.2   348  PRO348     -0.2718
     46  CB        49.8360   -5.0710   11.8200 C.3   348  PRO348      0.0282
     47  CG        51.1100   -5.0110   12.5820 C.3   348  PRO348      0.0208
     48  CD        51.8340   -3.7960   12.0920 C.3   348  PRO348      0.0893
     49  N         47.2570   -3.7150   12.6150 N.am  349  SER349     -0.1938
     50  CA        46.1780   -3.2350   13.4820 C.3   349  SER349      0.2055
     51  C         46.3100   -3.7410   14.9150 C.2   349  SER349      0.2643
     52  O         45.8410   -3.0980   15.8530 O.2   349  SER349     -0.2714
     53  CB        44.8150   -3.6460   12.9210 C.3   349  SER349      0.2130
     54  OG        44.3940   -2.7590   11.8980 O.3   349  SER349     -0.2179
     55  N         46.9440   -4.8940   15.0830 N.am  350  GLY350     -0.1954
     56  CA        47.1760   -5.4420   16.4050 C.3   350  GLY350      0.1869
     57  C         48.3400   -4.7700   17.1070 C.2   350  GLY350      0.2309
     58  O         48.5950   -5.0310   18.2840 O.2   350  GLY350     -0.2863
     59  N         49.0110   -1.7220   18.2540 N.3   352  GLY352     -0.1210
     60  CA        48.7450   -0.9020   19.4210 C.3   352  GLY352      0.1956
     61  C         49.2850    0.5040   19.2440 C.2   352  GLY352      0.2612
     62  O         49.8850    1.0710   20.1560 O.2   352  GLY352     -0.2717
     63  N         49.0960    1.0320   18.0410 N.am  353  LYS353     -0.1965
     64  CA        49.5810    2.3720   17.7280 C.3   353  LYS353      0.1728
     65  C         48.6490    3.4530   18.2710 C.2   353  LYS353      0.2617
     66  O         49.1070    4.5200   18.6850 O.2   353  LYS353     -0.2715
     67  CB        49.7640    2.5410   16.2140 C.3   353  LYS353      0.0311
     68  CG        48.8590    1.6750   15.3490 C.3   353  LYS353      0.0038
     69  CD        49.0980    1.8970   13.8600 C.3   353  LYS353      0.0206
     70  CE        48.6800    0.6970   13.0290 C.3   353  LYS353      0.1093
     71  NZ        47.2160    0.4500   13.0760 N.3   353  LYS353     -0.1314
     72  N         47.3220    3.2190   18.2880 N.am  354  SER354     -0.1936
     73  CA        46.3680    4.1450   18.8900 C.3   354  SER354      0.2055
     74  C         46.5820    4.1750   20.4000 C.2   354  SER354      0.2643
     75  O         46.3300    5.1850   21.0530 O.2   354  SER354     -0.2714
     76  CB        44.9220    3.7510   18.5680 C.3   354  SER354      0.2130
     77  OG        44.7130    3.6250   17.1710 O.3   354  SER354     -0.2179
     78  N         47.0490    3.0590   20.9500 N.am  355  SER355     -0.1949
     79  CA        47.3480    2.9780   22.3750 C.3   355  SER355      0.1924
     80  C         48.5520    3.8500   22.7080 C.2   355  SER355      0.2314
     81  O         48.5790    4.5190   23.7420 O.2   355  SER355     -0.2863
     82  CB        47.6130    1.5320   22.7950 C.3   355  SER355      0.2116
     83  OG        46.5120    0.6950   22.4780 O.3   355  SER355     -0.2180
     84  N         47.1440    7.2710   22.6970 N.3   358  ARG358     -0.1245
     85  CA        46.3390    7.5570   23.8780 C.3   358  ARG358      0.1563
     86  C         47.1840    7.7150   25.1410 C.2   358  ARG358      0.2260
     87  O         46.7870    8.4230   26.0650 O.2   358  ARG358     -0.2867
     88  CB        45.3020    6.4520   24.0860 C.3   358  ARG358      0.0307
     89  CG        44.2130    6.4160   23.0260 C.3   358  ARG358      0.0489
     90  CD        43.4600    5.0960   23.0460 C.3   358  ARG358      0.2205
     91  NE        42.4730    5.0090   21.9730 N.pl3 358  ARG358     -0.0865
     92  CZ        41.8200    3.8990   21.6390 C.cat 358  ARG358      0.5346
     93  NH1       42.0500    2.7650   22.2870 N.pl3 358  ARG358      0.1354
     94  NH2       40.9380    3.9200   20.6490 N.pl3 358  ARG358      0.1354
     95  N         45.2200    7.2610   28.7280 N.3   364  TRP364     -0.1241
     96  CA        45.5540    6.0480   29.4650 C.3   364  TRP364      0.1605
     97  C         46.8070    6.2680   30.3010 C.2   364  TRP364      0.2264
     98  O         47.7660    6.8910   29.8430 O.2   364  TRP364     -0.2867
     99  CB        45.7690    4.8760   28.5070 C.3   364  TRP364      0.0550
    100  CG        44.5160    4.3820   27.8590 C.ar  364  TRP364      0.0003
    101  CD1       43.2410    4.8020   28.1030 C.ar  364  TRP364      0.0946
    102  CD2       44.4190    3.3660   26.8570 C.ar  364  TRP364      0.0152
    103  NE1       42.3560    4.1100   27.3130 N.ar  364  TRP364     -0.2442
    104  CE2       43.0560    3.2220   26.5380 C.ar  364  TRP364      0.0810
    105  CE3       45.3550    2.5640   26.1980 C.ar  364  TRP364      0.0012
    106  CZ2       42.6050    2.3090   25.5890 C.ar  364  TRP364      0.0191
    107  CZ3       44.9070    1.6600   25.2580 C.ar  364  TRP364      0.0001
    108  CH2       43.5450    1.5380   24.9620 C.ar  364  TRP364      0.0015
    109  N         40.6320    8.1670   16.1840 N.3   395  GLN395     -0.1245
    110  CA        40.2530    7.2370   15.1270 C.3   395  GLN395      0.1566
    111  C         38.7450    7.2820   14.8860 C.2   395  GLN395      0.2260
    112  O         38.2820    7.1040   13.7570 O.2   395  GLN395     -0.2867
    113  CB        40.6910    5.8120   15.4890 C.3   395  GLN395      0.0367
    114  CG        41.5480    5.1310   14.4290 C.3   395  GLN395      0.0905
    115  CD        42.0360    3.7570   14.8580 C.2   395  GLN395      0.2608
    116  OE1       43.0470    3.6290   15.5510 O.2   395  GLN395     -0.2717
    117  NE2       41.3190    2.7210   14.4430 N.am  395  GLN395     -0.0878
    118  N         44.9020    8.4390   12.3040 N.3   475  GLU475     -0.1245
    119  CA        44.2240    8.0010   11.0860 C.3   475  GLU475      0.1567
    120  C         43.1720    9.0140   10.6320 C.2   475  GLU475      0.2260
    121  O         41.9790    8.7090   10.5990 O.2   475  GLU475     -0.2867
    122  CB        43.5850    6.6250   11.3010 C.3   475  GLU475      0.0388
    123  CG        44.5460    5.5880   11.8830 C.3   475  GLU475      0.1160
    124  CD        44.0760    4.1590   11.6920 C.2   475  GLU475      0.3649
    125  OE1       44.4190    3.3100   12.5410 O.co2 475  GLU475     -0.2457
    126  OE2       43.3800    3.8810   10.6930 O.co2 475  GLU475     -0.2457
@<TRIPOS>BOND
     1   121   120    2
     2   120   119    1
     3   126   124   ar
     4   119   122    1
     5   119   118    1
     6   122   123    1
     7    43    42    1
     8    43    46    1
     9    43    44    1
    10    42    48    1
    11   124   123    1
    12   124   125   ar
    13    46    47    1
    14    54    53    1
    15    48    47    1
    16    44    49   am
    17    44    45    2
    18    49    50    1
    19    53    50    1
    20    70    71    1
    21    70    69    1
    22    50    51    1
    23   112   111    2
    24    69    68    1
    25   114   115    1
    26   114   113    1
    27   117   115   am
    28   115   116    2
    29   111   110    1
    30    51    55   am
    31    51    52    2
    32    55    56    1
    33   110   113    1
    34   110   109    1
    35    68    67    1
    36    67    64    1
    37    56    57    1
    38    57    58    2
    39    77    76    1
    40    64    63    1
    41    64    65    1
    42    63    61   am
    43    59    60    1
    44    65    72   am
    45    65    66    2
    46    72    73    1
    47    76    73    1
    48    73    74    1
    49    61    60    1
    50    61    62    2
    51    74    78   am
    52    74    75    2
    53    94    92    1
    54    78    79    1
    55    92    91    2
    56    92    93    1
    57    91    90    1
    58    79    80    1
    59    79    82    1
    60    83    82    1
    61    84    85    1
    62    80    81    2
    63    89    90    1
    64    89    88    1
    65    38    37    2
    66    41    39    1
    67    85    88    1
    68    85    86    1
    69    37    36    1
    70   108   107   ar
    71   108   106   ar
    72    86    87    2
    73    39    36    1
    74    39    40    1
    75   107   105   ar
    76    36    35    1
    77   106   104   ar
    78   105   102   ar
    79   104   102   ar
    80   104   103   ar
    81   102   100   ar
    82   103   101   ar
    83    13    12    1
    84    13    14    1
    85    12     9    1
    86   100   101   ar
    87   100    99    1
    88    14     8    1
    89    99    96    1
    90    95    96    1
    91     5     6    1
    92     5     2    1
    93     9     8    1
    94     9    10    1
    95    96    97    1
    96     4     3    2
    97     6     7    1
    98    34    33    2
    99    21    15    1
   100    21    20    1
   101    98    97    2
   102     3     2    1
   103     2     1    1
   104    32    33    1
   105    32    31    1
   106    10    15   am
   107    10    11    2
   108    18    17    2
   109    25    24    2
   110    15    16    1
   111    20    19    1
   112     7     1    1
   113    24    31   am
   114    24    23    1
   115    19    16    1
   116    30    28   ar
   117    17    16    1
   118    17    22   am
   119    26    23    1
   120    26    27    1
   121    23    22    1
   122    28    27    1
   123    28    29   ar
