@<TRIPOS>MOLECULE
tmp/5l26C02.pdb
 99 93 0 0 0
SMALL
GASTEIGER

@<TRIPOS>ATOM
      1  N       -140.5350   43.9950    2.8600 N.3    47  VAL47      -0.1245
      2  CA      -139.9710   44.9160    1.8780 C.3    47  VAL47       0.1561
      3  C       -139.4750   44.2320    0.6040 C.2    47  VAL47       0.2260
      4  O       -139.2960   44.8900   -0.4210 O.2    47  VAL47      -0.2867
      5  CB      -138.8040   45.7280    2.4800 C.3    47  VAL47       0.0252
      6  CG1     -139.2680   46.4920    3.7090 C.3    47  VAL47       0.0019
      7  CG2     -137.6340   44.8180    2.8180 C.3    47  VAL47       0.0019
      8  N       -143.4860   50.7450   -0.6030 N.3    56  MET56      -0.1230
      9  CA      -142.9800   51.6220    0.4480 C.3    56  MET56       0.1702
     10  C       -141.4600   51.7010    0.3980 C.2    56  MET56       0.2592
     11  O       -140.8750   52.7680    0.5900 O.2    56  MET56      -0.2718
     12  CB      -143.4350   51.1340    1.8250 C.3    56  MET56       0.0401
     13  CG      -144.9410   51.1330    2.0250 C.3    56  MET56       0.0596
     14  SD      -145.4180   50.5030    3.6450 S.3    56  MET56      -0.1393
     15  CE      -144.6120   51.6870    4.7200 C.3    56  MET56       0.0692
     16  N       -140.8270   50.5620    0.1380 N.am   57  LEU57      -0.1980
     17  CA      -139.3780   50.4990    0.0030 C.3    57  LEU57       0.1596
     18  C       -138.9260   51.2810   -1.2250 C.2    57  LEU57       0.2287
     19  O       -137.8880   51.9420   -1.2060 O.2    57  LEU57      -0.2864
     20  CB      -138.9090   49.0460   -0.0900 C.3    57  LEU57       0.0297
     21  CG      -137.4030   48.8220   -0.2320 C.3    57  LEU57       0.0022
     22  CD1     -136.6650   49.3750    0.9750 C.3    57  LEU57       0.0001
     23  CD2     -137.0930   47.3460   -0.4220 C.3    57  LEU57       0.0001
     24  N       -140.5870   53.8050   -2.5160 N.3    59  GLU59      -0.1231
     25  CA      -140.8470   55.2110   -2.2300 C.3    59  GLU59       0.1699
     26  C       -139.7200   55.8040   -1.3940 C.2    59  GLU59       0.2592
     27  O       -139.2790   56.9290   -1.6350 O.2    59  GLU59      -0.2718
     28  CB      -142.1860   55.3760   -1.5080 C.3    59  GLU59       0.0402
     29  CG      -142.6210   56.8100   -1.2800 C.3    59  GLU59       0.1161
     30  CD      -143.1450   57.4780   -2.4960 C.2    59  GLU59       0.3649
     31  OE1     -143.9010   56.8340   -3.2670 O.co2  59  GLU59      -0.2457
     32  OE2     -142.8770   58.7300   -2.5750 O.co2  59  GLU59      -0.2457
     33  N       -139.2580   55.0380   -0.4100 N.am   60  ALA60      -0.1980
     34  CA      -138.1510   55.4590    0.4390 C.3    60  ALA60       0.1597
     35  C       -136.8710   55.5670   -0.3780 C.2    60  ALA60       0.2287
     36  O       -136.0400   56.4420   -0.1370 O.2    60  ALA60      -0.2864
     37  CB      -137.9660   54.4900    1.5940 C.3    60  ALA60       0.0319
     38  N       -136.8250   56.3020   -3.5910 N.3    62  LYS62      -0.1231
     39  CA      -137.0110   57.4880   -4.4200 C.3    62  LYS62       0.1693
     40  C       -136.7480   58.7690   -3.6320 C.2    62  LYS62       0.2593
     41  O       -136.1570   59.7150   -4.1510 O.2    62  LYS62      -0.2718
     42  CB      -138.4230   57.5150   -5.0060 C.3    62  LYS62       0.0285
     43  CG      -138.5830   58.3900   -6.2030 C.3    62  LYS62       0.0035
     44  CD      -140.0440   58.4070   -6.6130 C.3    62  LYS62       0.0206
     45  CE      -140.4270   59.7350   -7.2650 C.3    62  LYS62       0.1093
     46  NZ      -140.2040   60.9340   -6.3670 N.3    62  LYS62      -0.1314
     47  N       -137.1890   58.7890   -2.3780 N.am   63  THR63      -0.1939
     48  CA      -137.0270   59.9600   -1.5230 C.3    63  THR63       0.2028
     49  C       -135.5580   60.2300   -1.2140 C.2    63  THR63       0.2642
     50  O       -135.0740   61.3500   -1.3810 O.2    63  THR63      -0.2714
     51  CB      -137.8020   59.7980   -0.2000 C.3    63  THR63       0.1808
     52  OG1     -139.1980   59.6410   -0.4800 O.3    63  THR63      -0.2208
     53  CG2     -137.6000   61.0140    0.6920 C.3    63  THR63       0.0379
     54  N       -134.8550   59.1940   -0.7680 N.am   64  ILE64      -0.1977
     55  CA      -133.4430   59.3150   -0.4260 C.3    64  ILE64       0.1596
     56  C       -132.6050   59.5910   -1.6760 C.2    64  ILE64       0.2287
     57  O       -131.6110   60.3170   -1.6160 O.2    64  ILE64      -0.2864
     58  CB      -132.9400   58.0470    0.2990 C.3    64  ILE64       0.0276
     59  CG1     -133.6680   57.8940    1.6370 C.3    64  ILE64       0.0022
     60  CG2     -131.4350   58.0970    0.5160 C.3    64  ILE64       0.0022
     61  CD1     -133.0950   56.8300    2.5400 C.3    64  ILE64       0.0001
     62  N       -137.6280   58.8350   16.0440 N.3   125  LEU125     -0.1245
     63  CA      -137.4810   57.5650   15.3410 C.3   125  LEU125      0.1561
     64  C       -136.7600   56.5300   16.2000 C.2   125  LEU125      0.2260
     65  O       -137.0760   55.3420   16.1470 O.2   125  LEU125     -0.2867
     66  CB      -136.7330   57.7630   14.0210 C.3   125  LEU125      0.0270
     67  CG      -137.4660   58.5470   12.9310 C.3   125  LEU125      0.0019
     68  CD1     -136.5970   58.6790   11.6910 C.3   125  LEU125      0.0001
     69  CD2     -138.7920   57.8830   12.5900 C.3   125  LEU125      0.0001
     70  N       -129.5160   54.6340   11.2650 N.3   152  PHE152     -0.1241
     71  CA      -129.3010   55.9170   10.6070 C.3   152  PHE152      0.1605
     72  C       -127.8510   56.3960   10.6740 C.2   152  PHE152      0.2264
     73  O       -127.3300   56.9460    9.7040 O.2   152  PHE152     -0.2867
     74  CB      -130.2210   56.9780   11.2180 C.3   152  PHE152      0.0534
     75  CG      -131.6920   56.6480   11.1090 C.ar  152  PHE152     -0.0203
     76  CD1     -132.2390   56.4420    9.8800 C.ar  152  PHE152     -0.0042
     77  CD2     -132.4390   56.4390   12.2610 C.ar  152  PHE152     -0.0042
     78  CE1     -133.5840   56.1030    9.7470 C.ar  152  PHE152     -0.0003
     79  CE2     -133.7650   56.0720   12.1270 C.ar  152  PHE152     -0.0003
     80  CZ      -134.3010   55.8590   10.8520 C.ar  152  PHE152     -0.0000
     81  N       -131.2080   50.1230    1.9520 N.3   204  ILE204     -0.1245
     82  CA      -132.2570   50.5670    2.8620 C.3   204  ILE204      0.1561
     83  C       -132.7120   49.4180    3.7470 C.2   204  ILE204      0.2260
     84  O       -132.6860   49.5150    4.9730 O.2   204  ILE204     -0.2867
     85  CB      -133.4760   51.1270    2.1040 C.3   204  ILE204      0.0252
     86  CG1     -133.0580   52.2760    1.1860 C.3   204  ILE204      0.0019
     87  CG2     -134.5450   51.5860    3.0820 C.3   204  ILE204      0.0019
     88  CD1     -132.3120   53.3760    1.8970 C.3   204  ILE204      0.0001
     89  N       -132.1080   48.4720    8.0250 N.3   208  PHE208     -0.1241
     90  CA      -133.2110   48.2800    8.9590 C.3   208  PHE208      0.1605
     91  C       -133.1610   46.8980    9.6050 C.2   208  PHE208      0.2264
     92  O       -133.4790   46.7460   10.7840 O.2   208  PHE208     -0.2867
     93  CB      -134.5560   48.4850    8.2570 C.3   208  PHE208      0.0534
     94  CG      -134.9550   49.9280    8.1170 C.ar  208  PHE208     -0.0203
     95  CD1     -135.5970   50.5860    9.1530 C.ar  208  PHE208     -0.0042
     96  CD2     -134.6940   50.6240    6.9500 C.ar  208  PHE208     -0.0042
     97  CE1     -135.9670   51.9130    9.0270 C.ar  208  PHE208     -0.0003
     98  CE2     -135.0620   51.9510    6.8170 C.ar  208  PHE208     -0.0003
     99  CZ      -135.7000   52.5960    7.8580 C.ar  208  PHE208     -0.0000
@<TRIPOS>BOND
     1    45    44    1
     2    45    46    1
     3    44    43    1
     4    43    42    1
     5    42    39    1
     6    39    40    1
     7    39    38    1
     8    41    40    2
     9    40    47   am
    10    31    30   ar
    11    32    30   ar
    12    24    25    1
    13    30    29    1
    14    47    48    1
    15    25    28    1
    16    25    26    1
    17    56    57    2
    18    56    55    1
    19    27    26    2
    20    48    49    1
    21    48    51    1
    22    28    29    1
    23    26    33   am
    24    50    49    2
    25    18    19    2
    26    18    17    1
    27    49    54   am
    28    54    55    1
    29     8     9    1
    30    52    51    1
    31    55    58    1
    32    23    21    1
    33     4     3    2
    34    33    34    1
    35    35    36    2
    36    35    34    1
    37    21    20    1
    38    21    22    1
    39    51    53    1
    40    20    17    1
    41    17    16    1
    42    16    10   am
    43    58    60    1
    44    58    59    1
    45    10     9    1
    46    10    11    2
    47    34    37    1
    48     9    12    1
    49     3     2    1
    50    86    88    1
    51    86    85    1
    52    59    61    1
    53    12    13    1
    54     2     5    1
    55     2     1    1
    56    81    82    1
    57    13    14    1
    58    85    82    1
    59    85    87    1
    60     5     7    1
    61     5     6    1
    62    82    83    1
    63    14    15    1
    64    83    84    2
    65    98    96   ar
    66    98    99   ar
    67    96    94   ar
    68    99    97   ar
    69    89    90    1
    70    94    93    1
    71    94    95   ar
    72    93    90    1
    73    90    91    1
    74    97    95   ar
    75    91    92    2
    76    73    72    2
    77    78    76   ar
    78    78    80   ar
    79    76    75   ar
    80    71    72    1
    81    71    74    1
    82    71    70    1
    83    80    79   ar
    84    75    74    1
    85    75    77   ar
    86    68    67    1
    87    79    77   ar
    88    69    67    1
    89    67    66    1
    90    66    63    1
    91    63    62    1
    92    63    64    1
    93    65    64    2
