@<TRIPOS>MOLECULE
tmp/5l26A01.pdb
 111 107 0 0 0
SMALL
GASTEIGER

@<TRIPOS>ATOM
      1  N        -66.7350   55.2820    6.5930 N.3    40  ILE40      -0.1245
      2  CA       -67.9460   54.5220    6.3000 C.3    40  ILE40       0.1561
      3  C        -68.7650   55.2090    5.2120 C.2    40  ILE40       0.2260
      4  O        -69.2220   54.5660    4.2640 O.2    40  ILE40      -0.2867
      5  CB       -68.8180   54.3350    7.5590 C.3    40  ILE40       0.0252
      6  CG1      -68.1810   53.3080    8.4960 C.3    40  ILE40       0.0019
      7  CG2      -70.2190   53.8850    7.1820 C.3    40  ILE40       0.0019
      8  CD1      -68.9540   53.0810    9.7750 C.3    40  ILE40       0.0001
      9  N        -69.6050   53.4120    1.7540 N.3    44  LEU44      -0.1245
     10  CA       -70.9540   53.2350    1.2280 C.3    44  LEU44       0.1561
     11  C        -71.1120   53.9760   -0.0980 C.2    44  LEU44       0.2260
     12  O        -71.6320   53.4260   -1.0680 O.2    44  LEU44      -0.2867
     13  CB       -72.0010   53.7220    2.2370 C.3    44  LEU44       0.0270
     14  CG       -72.4010   52.7460    3.3500 C.3    44  LEU44       0.0019
     15  CD1      -73.3260   53.4110    4.3620 C.3    44  LEU44       0.0001
     16  CD2      -73.0590   51.5160    2.7500 C.3    44  LEU44       0.0001
     17  N        -79.9820   46.2980   13.6990 N.3   129  VAL129     -0.1231
     18  CA       -78.7980   45.8140   12.9970 C.3   129  VAL129      0.1692
     19  C        -77.8770   46.9640   12.6020 C.2   129  VAL129      0.2591
     20  O        -76.7020   46.9830   12.9720 O.2   129  VAL129     -0.2718
     21  CB       -79.1720   45.0140   11.7340 C.3   129  VAL129      0.0266
     22  CG1      -77.9350   44.7410   10.8900 C.3   129  VAL129      0.0020
     23  CG2      -79.8580   43.7120   12.1150 C.3   129  VAL129      0.0020
     24  N        -78.4160   47.9200   11.8510 N.am  130  ILE130     -0.1980
     25  CA       -77.6400   49.0630   11.3820 C.3   130  ILE130      0.1595
     26  C        -77.1720   49.9280   12.5490 C.2   130  ILE130      0.2287
     27  O        -76.0310   50.3930   12.5680 O.2   130  ILE130     -0.2864
     28  CB       -78.4520   49.9270   10.3970 C.3   130  ILE130      0.0276
     29  CG1      -78.9110   49.0820    9.2070 C.3   130  ILE130      0.0022
     30  CG2      -77.6320   51.1150    9.9190 C.3   130  ILE130      0.0022
     31  CD1      -79.6810   49.8610    8.1670 C.3   130  ILE130      0.0001
     32  N        -76.6470   48.9000   15.5710 N.3   132  GLY132     -0.1210
     33  CA       -75.6160   48.1380   16.2510 C.3   132  GLY132      0.1956
     34  C        -74.2860   48.2010   15.5260 C.2   132  GLY132      0.2612
     35  O        -73.2260   48.1920   16.1510 O.2   132  GLY132     -0.2717
     36  N        -74.3440   48.2650   14.1990 N.am  133  PHE133     -0.1962
     37  CA       -73.1400   48.3720   13.3840 C.3   133  PHE133      0.1771
     38  C        -72.4470   49.7090   13.6130 C.2   133  PHE133      0.2619
     39  O        -71.2200   49.7990   13.5690 O.2   133  PHE133     -0.2715
     40  CB       -73.4770   48.2010   11.9000 C.3   133  PHE133      0.0574
     41  CG       -72.2930   48.3540   10.9830 C.ar  133  PHE133     -0.0200
     42  CD1      -71.4820   47.2700   10.6900 C.ar  133  PHE133     -0.0042
     43  CD2      -71.9980   49.5800   10.4060 C.ar  133  PHE133     -0.0042
     44  CE1      -70.3960   47.4060    9.8450 C.ar  133  PHE133     -0.0003
     45  CE2      -70.9130   49.7230    9.5620 C.ar  133  PHE133     -0.0003
     46  CZ       -70.1110   48.6350    9.2810 C.ar  133  PHE133     -0.0000
     47  N        -73.2400   50.7470   13.8570 N.am  134  LEU134     -0.1963
     48  CA       -72.7030   52.0920   14.0120 C.3   134  LEU134      0.1728
     49  C        -72.1210   52.3230   15.4010 C.2   134  LEU134      0.2616
     50  O        -71.1960   53.1140   15.5640 O.2   134  LEU134     -0.2715
     51  CB       -73.7830   53.1330   13.7170 C.3   134  LEU134      0.0311
     52  CG       -74.2870   53.1590   12.2720 C.3   134  LEU134      0.0022
     53  CD1      -75.3360   54.2430   12.0860 C.3   134  LEU134      0.0001
     54  CD2      -73.1300   53.3520   11.3030 C.3   134  LEU134      0.0001
     55  N        -72.6580   51.6370   16.4040 N.am  135  GLN135     -0.1963
     56  CA       -72.1410   51.7850   17.7590 C.3   135  GLN135      0.1733
     57  C        -70.8860   50.9410   17.9450 C.2   135  GLN135      0.2616
     58  O        -70.1060   51.1680   18.8700 O.2   135  GLN135     -0.2715
     59  CB       -73.1980   51.4000   18.7960 C.3   135  GLN135      0.0408
     60  CG       -73.4640   49.9100   18.9040 C.3   135  GLN135      0.0908
     61  CD       -74.3700   49.5700   20.0700 C.2   135  GLN135      0.2608
     62  OE1      -74.7810   50.4490   20.8260 O.2   135  GLN135     -0.2717
     63  NE2      -74.6850   48.2890   20.2220 N.am  135  GLN135     -0.0878
     64  N        -70.6950   49.9710   17.0590 N.am  136  LYS136     -0.1963
     65  CA       -69.5230   49.1050   17.1140 C.3   136  LYS136      0.1728
     66  C        -68.3260   49.7530   16.4280 C.2   136  LYS136      0.2616
     67  O        -67.2010   49.6790   16.9210 O.2   136  LYS136     -0.2715
     68  CB       -69.8260   47.7500   16.4720 C.3   136  LYS136      0.0311
     69  CG       -68.8990   46.6520   16.8710 C.3   136  LYS136      0.0038
     70  CD       -69.2460   45.4010   16.0850 C.3   136  LYS136      0.0206
     71  CE       -68.0130   44.5300   15.8460 C.3   136  LYS136      0.1093
     72  NZ       -66.9110   45.2410   15.0880 N.3   136  LYS136     -0.1314
     73  N        -68.5760   50.3930   15.2910 N.am  137  MET137     -0.1977
     74  CA       -67.5060   50.9800   14.4930 C.3   137  MET137      0.1605
     75  C        -67.1660   52.4040   14.9250 C.2   137  MET137      0.2287
     76  O        -65.9940   52.7780   14.9790 O.2   137  MET137     -0.2864
     77  CB       -67.8850   50.9690   13.0100 C.3   137  MET137      0.0413
     78  CG       -68.1290   49.5820   12.4420 C.3   137  MET137      0.0598
     79  SD       -66.6790   48.5200   12.5780 S.3   137  MET137     -0.1393
     80  CE       -67.2960   47.0090   11.8400 C.3   137  MET137      0.0692
     81  N        -82.9160   56.8260    8.4510 N.3   152  ILE152     -0.1245
     82  CA       -82.7810   56.3700    7.0740 C.3   152  ILE152      0.1561
     83  C        -84.1490   56.1130    6.4500 C.2   152  ILE152      0.2260
     84  O        -84.3890   56.4520    5.2900 O.2   152  ILE152     -0.2867
     85  CB       -81.9380   55.0820    6.9900 C.3   152  ILE152      0.0252
     86  CG1      -80.5710   55.2950    7.6390 C.3   152  ILE152      0.0019
     87  CG2      -81.7830   54.6330    5.5440 C.3   152  ILE152      0.0019
     88  CD1      -79.6910   54.0640    7.6240 C.3   152  ILE152      0.0001
     89  N        -79.0790   56.2930    3.1310 N.3   209  PHE209     -0.1241
     90  CA       -78.2320   55.4250    3.9420 C.3   209  PHE209      0.1605
     91  C        -76.9770   56.1560    4.4150 C.2   209  PHE209      0.2264
     92  O        -76.4960   55.9220    5.5220 O.2   209  PHE209     -0.2867
     93  CB       -77.8490   54.1630    3.1640 C.3   209  PHE209      0.0534
     94  CG       -78.9320   53.1170    3.1280 C.ar  209  PHE209     -0.0203
     95  CD1      -79.1260   52.2640    4.2030 C.ar  209  PHE209     -0.0042
     96  CD2      -79.7490   52.9810    2.0180 C.ar  209  PHE209     -0.0042
     97  CE1      -80.1190   51.3000    4.1740 C.ar  209  PHE209     -0.0003
     98  CE2      -80.7430   52.0190    1.9820 C.ar  209  PHE209     -0.0003
     99  CZ       -80.9280   51.1780    3.0620 C.ar  209  PHE209     -0.0000
    100  N        -76.9620   58.5350    7.9290 N.3   212  ALA212     -0.1231
    101  CA       -76.6660   58.1110    9.2950 C.3   212  ALA212      0.1679
    102  C        -75.1930   58.3030    9.6870 C.2   212  ALA212      0.2434
    103  O        -74.9150   58.8890   10.7330 O.2   212  ALA212     -0.2733
    104  CB       -77.0880   56.6550    9.5010 C.3   212  ALA212      0.0304
    105  N        -74.2390   57.8150    8.8670 N.am  213  PRO213     -0.2729
    106  CA       -72.8620   58.0750    9.3010 C.3   213  PRO213      0.1401
    107  C        -72.4460   59.5280    9.0850 C.2   213  PRO213      0.2269
    108  O        -71.6680   60.0630    9.8750 O.2   213  PRO213     -0.2865
    109  CB       -72.0360   57.1340    8.4220 C.3   213  PRO213      0.0296
    110  CG       -72.8400   56.9880    7.1860 C.3   213  PRO213      0.0237
    111  CD       -74.2770   57.0090    7.6320 C.3   213  PRO213      0.0939
@<TRIPOS>BOND
     1    12    11    2
     2    11    10    1
     3    10     9    1
     4    10    13    1
     5    98    96   ar
     6    98    99   ar
     7    96    94   ar
     8    13    14    1
     9    16    14    1
    10    99    97   ar
    11    94    93    1
    12    94    95   ar
    13    89    90    1
    14    93    90    1
    15    14    15    1
    16    90    91    1
    17    97    95   ar
    18     4     3    2
    19    91    92    2
    20     3     2    1
    21    84    83    2
    22    87    85    1
    23     2     1    1
    24     2     5    1
    25    83    82    1
    26    85    82    1
    27    85    86    1
    28    82    81    1
    29     7     5    1
    30   110   111    1
    31   110   109    1
    32     5     6    1
    33    88    86    1
    34   111   105    1
    35   100   101    1
    36    31    29    1
    37   109   106    1
    38     6     8    1
    39   105   106    1
    40   105   102   am
    41   107   106    1
    42   107   108    2
    43    29    28    1
    44    46    45   ar
    45    46    44   ar
    46   101   104    1
    47   101   102    1
    48    45    43   ar
    49   102   103    2
    50    44    42   ar
    51    30    28    1
    52    28    25    1
    53    43    41   ar
    54    42    41   ar
    55    22    21    1
    56    41    40    1
    57    54    52    1
    58    25    24    1
    59    25    26    1
    60    21    23    1
    61    21    18    1
    62    80    79    1
    63    24    19   am
    64    40    37    1
    65    53    52    1
    66    52    51    1
    67    78    79    1
    68    78    77    1
    69    26    27    2
    70    19    20    2
    71    19    18    1
    72    18    17    1
    73    77    74    1
    74    37    38    1
    75    37    36    1
    76    39    38    2
    77    38    47   am
    78    51    48    1
    79    47    48    1
    80    48    49    1
    81    36    34   am
    82    74    75    1
    83    74    73    1
    84    75    76    2
    85    72    71    1
    86    73    66   am
    87    49    50    2
    88    49    55   am
    89    34    35    2
    90    34    33    1
    91    32    33    1
    92    71    70    1
    93    70    69    1
    94    55    56    1
    95    66    67    2
    96    66    65    1
    97    68    69    1
    98    68    65    1
    99    64    65    1
   100    64    57   am
   101    56    57    1
   102    56    59    1
   103    57    58    2
   104    59    60    1
   105    60    61    1
   106    61    63   am
   107    61    62    2
