@<TRIPOS>MOLECULE
tmp/5l26A00.pdb
 121 113 0 0 0
SMALL
GASTEIGER

@<TRIPOS>ATOM
      1  N        -87.0940   47.3810   -6.5180 N.3    64  THR64      -0.1203
      2  CA       -88.0050   46.9430   -5.4680 C.3    64  THR64       0.1994
      3  C        -88.9260   48.0780   -5.0370 C.2    64  THR64       0.2617
      4  O        -90.1490   47.9410   -5.0590 O.2    64  THR64      -0.2717
      5  CB       -87.2390   46.4170   -4.2400 C.3    64  THR64       0.1784
      6  OG1      -86.4910   45.2500   -4.6060 O.3    64  THR64      -0.2211
      7  CG2      -88.2050   46.0620   -3.1210 C.3    64  THR64       0.0376
      8  N        -88.3270   49.2020   -4.6580 N.am   65  ILE65      -0.1979
      9  CA       -89.0820   50.3610   -4.1970 C.3    65  ILE65       0.1595
     10  C        -89.8900   50.9810   -5.3380 C.2    65  ILE65       0.2287
     11  O        -90.9850   51.5030   -5.1200 O.2    65  ILE65      -0.2864
     12  CB       -88.1450   51.4130   -3.5640 C.3    65  ILE65       0.0276
     13  CG1      -87.4350   50.8070   -2.3500 C.3    65  ILE65       0.0022
     14  CG2      -88.9160   52.6610   -3.1610 C.3    65  ILE65       0.0022
     15  CD1      -86.6750   51.8050   -1.5110 C.3    65  ILE65       0.0001
     16  N        -92.9390   49.2530   -5.2970 N.3    68  VAL68      -0.1245
     17  CA       -93.7110   49.6850   -4.1370 C.3    68  VAL68       0.1561
     18  C        -94.4540   50.9790   -4.4480 C.2    68  VAL68       0.2260
     19  O        -95.6400   51.1170   -4.1430 O.2    68  VAL68      -0.2867
     20  CB       -92.8120   49.8910   -2.9020 C.3    68  VAL68       0.0252
     21  CG1      -93.6250   50.4190   -1.7310 C.3    68  VAL68       0.0019
     22  CG2      -92.1140   48.5900   -2.5310 C.3    68  VAL68       0.0019
     23  N        -97.0320   55.3730    2.2290 N.3   110  PHE110     -0.1241
     24  CA       -95.7960   54.9650    2.8860 C.3   110  PHE110      0.1605
     25  C        -95.8760   55.1210    4.4010 C.2   110  PHE110      0.2264
     26  O        -95.2180   54.3890    5.1360 O.2   110  PHE110     -0.2867
     27  CB       -94.6090   55.7560    2.3340 C.3   110  PHE110      0.0534
     28  CG       -93.9580   55.1120    1.1430 C.ar  110  PHE110     -0.0203
     29  CD1      -92.8050   54.3590    1.2920 C.ar  110  PHE110     -0.0042
     30  CD2      -94.5040   55.2480   -0.1220 C.ar  110  PHE110     -0.0042
     31  CE1      -92.2050   53.7600    0.2000 C.ar  110  PHE110     -0.0003
     32  CE2      -93.9100   54.6490   -1.2170 C.ar  110  PHE110     -0.0003
     33  CZ       -92.7580   53.9060   -1.0560 C.ar  110  PHE110     -0.0000
     34  N        -97.6040   52.0500    5.2390 N.3   113  LEU113     -0.1231
     35  CA       -96.7010   50.9320    4.9930 C.3   113  LEU113      0.1693
     36  C        -95.6870   50.7810    6.1200 C.2   113  LEU113      0.2591
     37  O        -95.4740   49.6810    6.6300 O.2   113  LEU113     -0.2718
     38  CB       -95.9740   51.1110    3.6590 C.3   113  LEU113      0.0284
     39  CG       -94.9170   50.0520    3.3380 C.3   113  LEU113      0.0019
     40  CD1      -95.5370   48.6620    3.3190 C.3   113  LEU113      0.0001
     41  CD2      -94.2310   50.3560    2.0150 C.3   113  LEU113      0.0001
     42  N        -95.0640   51.8920    6.5030 N.am  114  MET114     -0.1979
     43  CA       -94.1020   51.8940    7.5990 C.3   114  MET114      0.1605
     44  C        -94.7740   51.4990    8.9080 C.2   114  MET114      0.2287
     45  O        -94.1500   50.8930    9.7790 O.2   114  MET114     -0.2864
     46  CB       -93.4450   53.2680    7.7400 C.3   114  MET114      0.0413
     47  CG       -92.5280   53.6400    6.5880 C.3   114  MET114      0.0598
     48  SD       -91.1820   52.4630    6.3780 S.3   114  MET114     -0.1393
     49  CE       -90.3930   52.5750    7.9790 C.3   114  MET114      0.0692
     50  N        -94.8360   47.7890    8.8200 N.3   117  LEU117     -0.1245
     51  CA       -93.4900   47.2530    8.9930 C.3   117  LEU117      0.1561
     52  C        -93.0170   47.3620   10.4420 C.2   117  LEU117      0.2260
     53  O        -92.2910   46.4960   10.9310 O.2   117  LEU117     -0.2867
     54  CB       -92.5150   47.9700    8.0580 C.3   117  LEU117      0.0270
     55  CG       -92.8330   47.8040    6.5700 C.3   117  LEU117      0.0019
     56  CD1      -91.9090   48.6480    5.7090 C.3   117  LEU117      0.0001
     57  CD2      -92.7560   46.3390    6.1690 C.3   117  LEU117      0.0001
     58  N        -88.9040   46.6890   10.8610 N.3   123  MET123     -0.1245
     59  CA       -88.1110   47.9100   10.9530 C.3   123  MET123      0.1570
     60  C        -87.3040   48.0060   12.2440 C.2   123  MET123      0.2261
     61  O        -86.2060   48.5610   12.2480 O.2   123  MET123     -0.2867
     62  CB       -89.0140   49.1340   10.8070 C.3   123  MET123      0.0387
     63  CG       -89.3850   49.4200    9.3660 C.3   123  MET123      0.0595
     64  SD       -87.9030   49.6430    8.3600 S.3   123  MET123     -0.1393
     65  CE       -88.5890   49.6450    6.7070 C.3   123  MET123      0.0692
     66  N        -82.9160   56.8260    8.4510 N.3   152  ILE152     -0.1231
     67  CA       -82.7810   56.3700    7.0740 C.3   152  ILE152      0.1692
     68  C        -84.1490   56.1130    6.4500 C.2   152  ILE152      0.2592
     69  O        -84.3890   56.4520    5.2900 O.2   152  ILE152     -0.2718
     70  CB       -81.9380   55.0820    6.9900 C.3   152  ILE152      0.0266
     71  CG1      -80.5710   55.2950    7.6390 C.3   152  ILE152      0.0019
     72  CG2      -81.7830   54.6330    5.5440 C.3   152  ILE152      0.0020
     73  CD1      -79.6910   54.0640    7.6240 C.3   152  ILE152      0.0001
     74  N        -85.0490   55.5280    7.2340 N.am  153  PHE153     -0.1976
     75  CA       -86.3490   55.1050    6.7240 C.3   153  PHE153      0.1639
     76  C        -87.4840   56.0630    7.1000 C.2   153  PHE153      0.2290
     77  O        -88.3420   56.3640    6.2710 O.2   153  PHE153     -0.2864
     78  CB       -86.6760   53.6970    7.2280 C.3   153  PHE153      0.0560
     79  CG       -85.5820   52.6950    6.9840 C.ar  153  PHE153     -0.0200
     80  CD1      -85.4820   52.0360    5.7700 C.ar  153  PHE153     -0.0042
     81  CD2      -84.6540   52.4100    7.9730 C.ar  153  PHE153     -0.0042
     82  CE1      -84.4750   51.1130    5.5460 C.ar  153  PHE153     -0.0003
     83  CE2      -83.6460   51.4890    7.7550 C.ar  153  PHE153     -0.0003
     84  CZ       -83.5570   50.8400    6.5400 C.ar  153  PHE153     -0.0000
     85  N        -89.0760   58.0680    4.1790 N.3   188  GLY188     -0.1225
     86  CA       -89.3950   57.2100    3.0520 C.3   188  GLY188      0.1811
     87  C        -90.6500   57.6610    2.3320 C.2   188  GLY188      0.2280
     88  O        -90.8230   57.4020    1.1420 O.2   188  GLY188     -0.2866
     89  N        -89.6950   60.6960    0.2390 N.3   191  LEU191     -0.1245
     90  CA       -88.7310   60.2030   -0.7390 C.3   191  LEU191      0.1561
     91  C        -89.4650   59.7440   -1.9930 C.2   191  LEU191      0.2260
     92  O        -89.0510   60.0460   -3.1110 O.2   191  LEU191     -0.2867
     93  CB       -87.8910   59.0600   -0.1560 C.3   191  LEU191      0.0270
     94  CG       -86.7040   58.5450   -0.9790 C.3   191  LEU191      0.0019
     95  CD1      -85.5880   58.0850   -0.0580 C.3   191  LEU191      0.0001
     96  CD2      -87.1130   57.4110   -1.9100 C.3   191  LEU191      0.0001
     97  N        -81.8870   56.7570   -2.4550 N.3   205  ILE205     -0.1245
     98  CA       -81.6190   55.5930   -1.6180 C.3   205  ILE205      0.1561
     99  C        -80.2060   55.6520   -1.0530 C.2   205  ILE205      0.2260
    100  O        -79.9870   55.4050    0.1330 O.2   205  ILE205     -0.2867
    101  CB       -81.7960   54.2770   -2.4000 C.3   205  ILE205      0.0252
    102  CG1      -83.1570   54.2480   -3.0960 C.3   205  ILE205      0.0019
    103  CG2      -81.6440   53.0810   -1.4750 C.3   205  ILE205      0.0019
    104  CD1      -84.3190   54.4480   -2.1560 C.3   205  ILE205      0.0001
    105  N        -79.9460   58.3960    1.5270 N.3   208  SER208     -0.1202
    106  CA       -80.6910   58.0670    2.7370 C.3   208  SER208      0.2020
    107  C        -79.8680   57.2060    3.6890 C.2   208  SER208      0.2618
    108  O        -79.9480   57.3660    4.9070 O.2   208  SER208     -0.2717
    109  CB       -81.9980   57.3540    2.3840 C.3   208  SER208      0.2103
    110  OG       -82.8680   58.2140    1.6690 O.3   208  SER208     -0.2182
    111  N        -79.0790   56.2930    3.1310 N.am  209  PHE209     -0.1975
    112  CA       -78.2320   55.4250    3.9420 C.3   209  PHE209      0.1639
    113  C        -76.9770   56.1560    4.4150 C.2   209  PHE209      0.2290
    114  O        -76.4960   55.9220    5.5220 O.2   209  PHE209     -0.2864
    115  CB       -77.8490   54.1630    3.1640 C.3   209  PHE209      0.0560
    116  CG       -78.9320   53.1170    3.1280 C.ar  209  PHE209     -0.0200
    117  CD1      -79.1260   52.2640    4.2030 C.ar  209  PHE209     -0.0042
    118  CD2      -79.7490   52.9810    2.0180 C.ar  209  PHE209     -0.0042
    119  CE1      -80.1190   51.3000    4.1740 C.ar  209  PHE209     -0.0003
    120  CE2      -80.7430   52.0190    1.9820 C.ar  209  PHE209     -0.0003
    121  CZ       -80.9280   51.1780    3.0620 C.ar  209  PHE209     -0.0000
@<TRIPOS>BOND
     1     1     2    1
     2     2     3    1
     3     2     5    1
     4    10    11    2
     5    10     9    1
     6    16    17    1
     7     4     3    2
     8     3     8   am
     9     8     9    1
    10     6     5    1
    11    18    19    2
    12    18    17    1
    13     5     7    1
    14     9    12    1
    15    17    20    1
    16    12    14    1
    17    12    13    1
    18    92    91    2
    19   102   101    1
    20   102   104    1
    21    20    22    1
    22    20    21    1
    23    97    98    1
    24   101    98    1
    25   101   103    1
    26    13    15    1
    27    91    90    1
    28    96    94    1
    29    98    99    1
    30    32    33   ar
    31    32    30   ar
    32    33    31   ar
    33    99   100    2
    34    94    93    1
    35    94    95    1
    36    90    93    1
    37    90    89    1
    38    30    28   ar
    39    31    29   ar
    40    88    87    2
    41    28    29   ar
    42    28    27    1
    43   105   106    1
    44   110   109    1
    45   120   118   ar
    46   120   121   ar
    47    41    39    1
    48   118   116   ar
    49    23    24    1
    50    87    86    1
    51    27    24    1
    52   109   106    1
    53   106   107    1
    54    24    25    1
    55    86    85    1
    56   121   119   ar
    57   116   115    1
    58   116   117   ar
    59   111   107   am
    60   111   112    1
    61   115   112    1
    62    40    39    1
    63    39    38    1
    64    38    35    1
    65   107   108    2
    66   112   113    1
    67   119   117   ar
    68    25    26    2
    69   113   114    2
    70    35    34    1
    71    35    36    1
    72    69    68    2
    73    72    70    1
    74    82    80   ar
    75    82    84   ar
    76    56    55    1
    77    80    79   ar
    78    36    42   am
    79    36    37    2
    80    57    55    1
    81    77    76    2
    82    48    47    1
    83    48    49    1
    84    68    67    1
    85    68    74   am
    86    42    43    1
    87    84    83   ar
    88    55    54    1
    89    47    46    1
    90    65    64    1
    91    75    76    1
    92    75    78    1
    93    75    74    1
    94    79    78    1
    95    79    81   ar
    96    70    67    1
    97    70    71    1
    98    67    66    1
    99    43    46    1
   100    43    44    1
   101    73    71    1
   102    83    81   ar
   103    54    51    1
   104    64    63    1
   105    50    51    1
   106    44    45    2
   107    51    52    1
   108    63    62    1
   109    52    53    2
   110    62    59    1
   111    58    59    1
   112    59    60    1
   113    60    61    2
