@<TRIPOS>MOLECULE
tmp/5l26B03.pdb
 142 132 0 0 0
SMALL
GASTEIGER

@<TRIPOS>ATOM
      1  N       -107.3110   81.1850    1.5080 N.3   105  ILE105     -0.1245
      2  CA      -107.3840   81.2050    2.9620 C.3   105  ILE105      0.1561
      3  C       -106.0660   80.7180    3.5490 C.2   105  ILE105      0.2260
      4  O       -105.5600   81.2800    4.5200 O.2   105  ILE105     -0.2867
      5  CB      -108.5370   80.3290    3.4880 C.3   105  ILE105      0.0252
      6  CG1     -109.8690   80.7810    2.8880 C.3   105  ILE105      0.0019
      7  CG2     -108.5930   80.3700    5.0070 C.3   105  ILE105      0.0019
      8  CD1     -111.0460   79.9310    3.3120 C.3   105  ILE105      0.0001
      9  N       -109.7570   87.5490   10.9040 N.3   153  GLY153     -0.1210
     10  CA      -111.0680   87.0280   11.2320 C.3   153  GLY153      0.1956
     11  C       -111.5500   87.4140   12.6150 C.2   153  GLY153      0.2612
     12  O       -110.7770   87.8830   13.4510 O.2   153  GLY153     -0.2717
     13  N       -112.8410   87.2020   12.8470 N.am  154  GLN154     -0.1965
     14  CA      -113.4830   87.5330   14.1140 C.3   154  GLN154      0.1733
     15  C       -112.9240   86.7340   15.2880 C.2   154  GLN154      0.2617
     16  O       -112.9960   87.1790   16.4320 O.2   154  GLN154     -0.2715
     17  CB      -114.9910   87.3000   14.0120 C.3   154  GLN154      0.0408
     18  CG      -115.3730   85.9020   13.5500 C.3   154  GLN154      0.0908
     19  CD      -116.8710   85.6890   13.5440 C.2   154  GLN154      0.2608
     20  OE1     -117.6240   86.5300   14.0290 O.2   154  GLN154     -0.2717
     21  NE2     -117.3130   84.5630   12.9950 N.am  154  GLN154     -0.0878
     22  N       -112.3810   85.5530   15.0080 N.am  155  THR155     -0.1937
     23  CA      -111.8210   84.7100   16.0610 C.3   155  THR155      0.2028
     24  C       -110.3690   85.0660   16.3450 C.2   155  THR155      0.2642
     25  O       -109.9090   84.9710   17.4820 O.2   155  THR155     -0.2714
     26  CB      -111.8960   83.2150   15.7010 C.3   155  THR155      0.1808
     27  OG1     -111.2400   82.9890   14.4470 O.3   155  THR155     -0.2208
     28  CG2     -113.3400   82.7590   15.6080 C.3   155  THR155      0.0379
     29  N       -109.6510   85.4760   15.3060 N.am  156  GLU156     -0.1976
     30  CA      -108.2380   85.8070   15.4360 C.3   156  GLU156      0.1602
     31  C       -108.0440   87.2410   15.9150 C.2   156  GLU156      0.2287
     32  O       -106.9780   87.6000   16.4160 O.2   156  GLU156     -0.2864
     33  CB      -107.5220   85.6000   14.1010 C.3   156  GLU156      0.0415
     34  CG      -107.6780   84.2030   13.5270 C.3   156  GLU156      0.1163
     35  CD      -107.0820   84.0790   12.1410 C.2   156  GLU156      0.3649
     36  OE1     -106.6360   85.1090   11.5950 O.co2 156  GLU156     -0.2457
     37  OE2     -107.0600   82.9540   11.5990 O.co2 156  GLU156     -0.2457
     38  N       -112.6900   88.6080    6.9470 N.3   185  ALA185     -0.1245
     39  CA      -111.2550   88.3960    7.0630 C.3   185  ALA185      0.1562
     40  C       -110.5720   88.6770    5.7270 C.2   185  ALA185      0.2260
     41  O       -111.2030   88.6050    4.6700 O.2   185  ALA185     -0.2867
     42  CB      -110.9600   86.9770    7.5260 C.3   185  ALA185      0.0290
     43  N       -108.4580   86.8610    4.3480 N.3   187  SER187     -0.1202
     44  CA      -108.3790   85.5830    3.6470 C.3   187  SER187      0.2020
     45  C       -109.5940   85.3440    2.7580 C.2   187  SER187      0.2618
     46  O       -109.4590   85.0650    1.5670 O.2   187  SER187     -0.2717
     47  CB      -108.2370   84.4300    4.6450 C.3   187  SER187      0.2103
     48  OG      -109.3260   84.3940    5.5510 O.3   187  SER187     -0.2182
     49  N       -110.7820   85.4470    3.3440 N.am  188  VAL188     -0.1979
     50  CA      -112.0120   85.2470    2.5910 C.3   188  VAL188      0.1595
     51  C       -112.2920   86.4300    1.6650 C.2   188  VAL188      0.2287
     52  O       -113.0600   86.3030    0.7140 O.2   188  VAL188     -0.2864
     53  CB      -113.2200   85.0340    3.5230 C.3   188  VAL188      0.0276
     54  CG1     -113.0610   83.7440    4.3210 C.3   188  VAL188      0.0022
     55  CG2     -113.3840   86.2250    4.4460 C.3   188  VAL188      0.0022
     56  N       -108.9780   75.4270    8.3610 N.3   250  ILE250     -0.1245
     57  CA      -110.0590   76.4030    8.3080 C.3   250  ILE250      0.1561
     58  C       -110.7570   76.3170    6.9540 C.2   250  ILE250      0.2260
     59  O       -111.9850   76.2860    6.8770 O.2   250  ILE250     -0.2867
     60  CB      -109.5500   77.8410    8.5420 C.3   250  ILE250      0.0252
     61  CG1     -109.1180   78.0260    9.9970 C.3   250  ILE250      0.0019
     62  CG2     -110.6280   78.8540    8.1950 C.3   250  ILE250      0.0019
     63  CD1     -108.4930   79.3760   10.2820 C.3   250  ILE250      0.0001
     64  N       -114.5380   75.4550    6.0180 N.3   254  VAL254     -0.1245
     65  CA      -115.3560   76.3730    5.2320 C.3   254  VAL254      0.1561
     66  C       -115.9440   75.6720    4.0110 C.2   254  VAL254      0.2260
     67  O       -117.1430   75.7700    3.7460 O.2   254  VAL254     -0.2867
     68  CB      -114.5440   77.6030    4.7720 C.3   254  VAL254      0.0252
     69  CG1     -115.3230   78.4070    3.7380 C.3   254  VAL254      0.0019
     70  CG2     -114.1710   78.4710    5.9670 C.3   254  VAL254      0.0019
     71  N       -119.9640   74.9750    3.2270 N.3   258  LEU258     -0.1245
     72  CA      -120.6210   75.4800    2.0280 C.3   258  LEU258      0.1561
     73  C       -121.2780   74.3560    1.2330 C.2   258  LEU258      0.2260
     74  O       -122.4040   74.5020    0.7600 O.2   258  LEU258     -0.2867
     75  CB      -119.6220   76.2310    1.1480 C.3   258  LEU258      0.0270
     76  CG      -119.0430   77.5090    1.7570 C.3   258  LEU258      0.0019
     77  CD1     -118.0870   78.1820    0.7890 C.3   258  LEU258      0.0001
     78  CD2     -120.1600   78.4550    2.1590 C.3   258  LEU258      0.0001
     79  N       -124.7150   82.4450    5.0610 N.3   322  ASN322     -0.1225
     80  CA      -123.4500   83.1640    5.1750 C.3   322  ASN322      0.1785
     81  C       -123.2400   84.0480    3.9500 C.2   322  ASN322      0.2597
     82  O       -124.0630   84.0590    3.0350 O.2   322  ASN322     -0.2718
     83  CB      -122.2440   82.2380    5.3850 C.3   322  ASN322      0.1169
     84  CG      -122.0720   81.2230    4.2670 C.2   322  ASN322      0.2627
     85  OD1     -122.0920   81.5650    3.0840 O.2   322  ASN322     -0.2716
     86  ND2     -121.8970   79.9620    4.6430 N.am  322  ASN322     -0.0877
     87  N       -122.1320   84.7820    3.9340 N.am  323  GLU323     -0.1965
     88  CA      -121.8620   85.7360    2.8640 C.3   323  GLU323      0.1733
     89  C       -121.3850   85.0540    1.5830 C.2   323  GLU323      0.2616
     90  O       -121.5500   85.5970    0.4900 O.2   323  GLU323     -0.2715
     91  CB      -120.8250   86.7670    3.3190 C.3   323  GLU323      0.0429
     92  CG      -119.4120   86.2220    3.4710 C.3   323  GLU323      0.1163
     93  CD      -119.2180   85.4060    4.7370 C.2   323  GLU323      0.3649
     94  OE1     -120.1610   85.3290    5.5520 O.co2 323  GLU323     -0.2457
     95  OE2     -118.1170   84.8430    4.9180 O.co2 323  GLU323     -0.2457
     96  N       -120.7930   83.8700    1.7190 N.am  324  PHE324     -0.1974
     97  CA      -120.2880   83.1360    0.5620 C.3   324  PHE324      0.1639
     98  C       -121.4250   82.7020   -0.3560 C.2   324  PHE324      0.2290
     99  O       -121.3230   82.8170   -1.5760 O.2   324  PHE324     -0.2864
    100  CB      -119.4750   81.9180    1.0020 C.3   324  PHE324      0.0560
    101  CG      -118.0130   82.2040    1.2090 C.ar  324  PHE324     -0.0200
    102  CD1     -117.1380   82.2150    0.1340 C.ar  324  PHE324     -0.0042
    103  CD2     -117.5140   82.4550    2.4760 C.ar  324  PHE324     -0.0042
    104  CE1     -115.7930   82.4750    0.3190 C.ar  324  PHE324     -0.0003
    105  CE2     -116.1700   82.7160    2.6670 C.ar  324  PHE324     -0.0003
    106  CZ      -115.3080   82.7260    1.5870 C.ar  324  PHE324     -0.0000
    107  N       -119.4270   89.1230    8.2910 N.3   357  PHE357     -0.1241
    108  CA      -119.6440   87.7790    8.8150 C.3   357  PHE357      0.1605
    109  C       -120.9480   87.6770    9.5960 C.2   357  PHE357      0.2264
    110  O       -121.2680   86.6250   10.1470 O.2   357  PHE357     -0.2867
    111  CB      -118.4800   87.3560    9.7120 C.3   357  PHE357      0.0534
    112  CG      -117.2300   87.0150    8.9610 C.ar  357  PHE357     -0.0203
    113  CD1     -117.2660   86.7880    7.5960 C.ar  357  PHE357     -0.0042
    114  CD2     -116.0170   86.9120    9.6220 C.ar  357  PHE357     -0.0042
    115  CE1     -116.1150   86.4700    6.9030 C.ar  357  PHE357     -0.0003
    116  CE2     -114.8640   86.5950    8.9350 C.ar  357  PHE357     -0.0003
    117  CZ      -114.9130   86.3730    7.5760 C.ar  357  PHE357     -0.0000
    118  N       -123.9840   86.6520   10.4740 N.3   359  ASN359     -0.1240
    119  CA      -125.0080   85.6640   10.1640 C.3   359  ASN359      0.1653
    120  C       -125.3490   84.8120   11.3820 C.2   359  ASN359      0.2266
    121  O       -124.6550   84.8620   12.3980 O.2   359  ASN359     -0.2867
    122  CB      -124.5680   84.7760    8.9930 C.3   359  ASN359      0.1155
    123  CG      -123.2350   84.0900    9.2370 C.2   359  ASN359      0.2627
    124  OD1     -123.0340   83.4330   10.2580 O.2   359  ASN359     -0.2716
    125  ND2     -122.3150   84.2390    8.2900 N.am  359  ASN359     -0.0877
    126  N       -125.0300   81.7470   11.7660 N.3   361  GLY361     -0.1210
    127  CA      -124.0460   80.7010   11.9660 C.3   361  GLY361      0.1956
    128  C       -122.7560   81.1780   12.6060 C.2   361  GLY361      0.2612
    129  O       -121.9900   80.3780   13.1420 O.2   361  GLY361     -0.2717
    130  N       -122.5120   82.4840   12.5520 N.am  362  SER362     -0.1952
    131  CA      -121.2890   83.0510   13.1110 C.3   362  SER362      0.1924
    132  C       -121.3680   83.1610   14.6290 C.2   362  SER362      0.2314
    133  O       -120.3490   83.3420   15.2980 O.2   362  SER362     -0.2863
    134  CB      -121.0070   84.4250   12.5030 C.3   362  SER362      0.2116
    135  OG      -120.7890   84.3330   11.1060 O.3   362  SER362     -0.2180
    136  N       -119.6400   80.3270   16.2390 N.3   365  VAL365     -0.1245
    137  CA      -118.2150   80.5140   15.9980 C.3   365  VAL365      0.1561
    138  C       -117.6350   81.4730   17.0290 C.2   365  VAL365      0.2260
    139  O       -116.5580   81.2350   17.5790 O.2   365  VAL365     -0.2867
    140  CB      -117.9440   81.0520   14.5830 C.3   365  VAL365      0.0252
    141  CG1     -116.4510   81.2300   14.3580 C.3   365  VAL365      0.0019
    142  CG2     -118.5380   80.1160   13.5390 C.3   365  VAL365      0.0019
@<TRIPOS>BOND
     1    99    98    2
     2    98    97    1
     3   102   104   ar
     4   102   101   ar
     5   104   106   ar
     6    90    89    2
     7    97   100    1
     8    97    96    1
     9    52    51    2
    10    74    73    2
    11    77    76    1
    12   100   101    1
    13    75    76    1
    14    75    72    1
    15   101   103   ar
    16    73    72    1
    17     1     2    1
    18    46    45    2
    19    89    96   am
    20    89    88    1
    21   106   105   ar
    22    51    50    1
    23    76    78    1
    24    72    71    1
    25   103   105   ar
    26    50    49    1
    27    50    53    1
    28    45    49   am
    29    45    44    1
    30    88    91    1
    31    88    87    1
    32     6     8    1
    33     6     5    1
    34     2     5    1
    35     2     3    1
    36    82    81    2
    37    85    84    2
    38    91    92    1
    39    92    93    1
    40     5     7    1
    41    53    54    1
    42    53    55    1
    43     3     4    2
    44    44    43    1
    45    44    47    1
    46    69    68    1
    47    67    66    2
    48    87    81   am
    49    81    80    1
    50    66    65    1
    51    84    86   am
    52    84    83    1
    53    47    48    1
    54    41    40    2
    55    93    95   ar
    56    93    94   ar
    57    68    65    1
    58    68    70    1
    59    79    80    1
    60    80    83    1
    61    65    64    1
    62    40    39    1
    63    59    58    2
    64   115   117   ar
    65   115   113   ar
    66    38    39    1
    67    58    57    1
    68    39    42    1
    69   117   116   ar
    70   113   112   ar
    71    62    60    1
    72   125   123   am
    73   107   108    1
    74    57    56    1
    75    57    60    1
    76    60    61    1
    77   108   109    1
    78   108   111    1
    79   116   114   ar
    80   112   114   ar
    81   112   111    1
    82   122   123    1
    83   122   119    1
    84   123   124    2
    85   109   110    2
    86    61    63    1
    87   119   118    1
    88   119   120    1
    89     9    10    1
    90   135   134    1
    91    10    11    1
    92   120   121    2
    93    36    35   ar
    94    37    35   ar
    95   126   127    1
    96   127   128    1
    97    35    34    1
    98   134   131    1
    99   130   128   am
   100   130   131    1
   101   128   129    2
   102    11    13   am
   103    11    12    2
   104    13    14    1
   105    21    19   am
   106   131   132    1
   107    34    33    1
   108   142   140    1
   109    19    18    1
   110    19    20    2
   111    18    17    1
   112    17    14    1
   113    33    30    1
   114    14    15    1
   115   141   140    1
   116    27    26    1
   117   140   137    1
   118   132   133    2
   119    22    15   am
   120    22    23    1
   121    15    16    2
   122    29    30    1
   123    29    24   am
   124    30    31    1
   125    28    26    1
   126    26    23    1
   127    31    32    2
   128   137   136    1
   129   137   138    1
   130    23    24    1
   131    24    25    2
   132   138   139    2
