@<TRIPOS>MOLECULE
tmp/5l26B02.pdb
 117 110 0 0 0
SMALL
GASTEIGER

@<TRIPOS>ATOM
      1  N       -104.5440   97.5470   -6.6050 N.3    61  LYS61      -0.1231
      2  CA      -103.4240   97.0710   -7.4090 C.3    61  LYS61       0.1693
      3  C       -102.4440   96.2680   -6.5600 C.2    61  LYS61       0.2593
      4  O       -101.9300   95.2370   -6.9930 O.2    61  LYS61      -0.2718
      5  CB      -102.7040   98.2480   -8.0710 C.3    61  LYS61       0.0285
      6  CG      -101.4810   97.8600   -8.8910 C.3    61  LYS61       0.0035
      7  CD      -101.8700   97.1040  -10.1510 C.3    61  LYS61       0.0206
      8  CE      -100.6460   96.7550  -10.9850 C.3    61  LYS61       0.1093
      9  NZ       -99.8800   97.9690  -11.3830 N.3    61  LYS61      -0.1314
     10  N       -102.1970   96.7460   -5.3450 N.am   62  THR62      -0.1939
     11  CA      -101.2440   96.1130   -4.4410 C.3    62  THR62       0.2028
     12  C       -101.7240   94.7460   -3.9660 C.2    62  THR62       0.2642
     13  O       -101.0120   93.7500   -4.0900 O.2    62  THR62      -0.2714
     14  CB      -100.9720   96.9970   -3.2100 C.3    62  THR62       0.1808
     15  OG1     -100.4150   98.2480   -3.6330 O.3    62  THR62      -0.2208
     16  CG2     -100.0050   96.3100   -2.2580 C.3    62  THR62       0.0379
     17  N       -102.9350   94.7080   -3.4240 N.am   63  ILE63      -0.1977
     18  CA      -103.4860   93.4800   -2.8660 C.3    63  ILE63       0.1596
     19  C       -103.7610   92.4450   -3.9630 C.2    63  ILE63       0.2287
     20  O       -103.6270   91.2420   -3.7360 O.2    63  ILE63      -0.2864
     21  CB      -104.7680   93.7760   -2.0580 C.3    63  ILE63       0.0276
     22  CG1     -104.4360   94.7170   -0.8950 C.3    63  ILE63       0.0022
     23  CG2     -105.4020   92.4930   -1.5430 C.3    63  ILE63       0.0022
     24  CD1     -105.5460   94.8800    0.1140 C.3    63  ILE63       0.0001
     25  N       -101.8870   92.1140   -6.5600 N.3    65  ASN65      -0.1225
     26  CA      -100.5530   91.5660   -6.7710 C.3    65  ASN65       0.1785
     27  C       -100.2750   90.4560   -5.7670 C.2    65  ASN65       0.2597
     28  O        -99.7320   89.4090   -6.1160 O.2    65  ASN65      -0.2718
     29  CB       -99.4860   92.6580   -6.6580 C.3    65  ASN65       0.1169
     30  CG       -99.4910   93.6060   -7.8410 C.2    65  ASN65       0.2627
     31  OD1      -99.8370   93.2210   -8.9570 O.2    65  ASN65      -0.2716
     32  ND2      -99.1030   94.8530   -7.6020 N.am   65  ASN65      -0.0877
     33  N       -100.6660   90.6970   -4.5190 N.am   66  VAL66      -0.1980
     34  CA      -100.5070   89.7210   -3.4490 C.3    66  VAL66       0.1595
     35  C       -101.3270   88.4650   -3.7300 C.2    66  VAL66       0.2287
     36  O       -100.8430   87.3460   -3.5580 O.2    66  VAL66      -0.2864
     37  CB      -100.9210   90.3120   -2.0870 C.3    66  VAL66       0.0276
     38  CG1     -100.7560   89.2820   -0.9850 C.3    66  VAL66       0.0022
     39  CG2     -100.1020   91.5580   -1.7840 C.3    66  VAL66       0.0022
     40  N        -99.6390   86.5120   -6.2650 N.3    69  TYR69      -0.1241
     41  CA       -98.5210   85.7980   -5.6620 C.3    69  TYR69       0.1605
     42  C        -99.0120   84.5070   -5.0210 C.2    69  TYR69       0.2264
     43  O        -98.3630   83.4660   -5.1210 O.2    69  TYR69      -0.2867
     44  CB       -97.8140   86.6730   -4.6240 C.3    69  TYR69       0.0534
     45  CG       -97.1790   87.9170   -5.2010 C.ar   69  TYR69      -0.0201
     46  CD1      -96.6480   87.9190   -6.4840 C.ar   69  TYR69      -0.0009
     47  CD2      -97.1170   89.0930   -4.4640 C.ar   69  TYR69      -0.0009
     48  CE1      -96.0680   89.0560   -7.0150 C.ar   69  TYR69       0.0417
     49  CE2      -96.5400   90.2340   -4.9870 C.ar   69  TYR69       0.0417
     50  CZ       -96.0170   90.2100   -6.2620 C.ar   69  TYR69       0.1957
     51  OH       -95.4420   91.3430   -6.7880 O.3    69  TYR69      -0.2866
     52  N       -103.0900   83.5160    2.8290 N.3   108  PHE108     -0.1241
     53  CA      -103.2230   84.7380    3.6140 C.3   108  PHE108      0.1605
     54  C       -103.0810   84.4760    5.1090 C.2   108  PHE108      0.2264
     55  O       -102.6000   85.3330    5.8470 O.2   108  PHE108     -0.2867
     56  CB      -104.5590   85.4220    3.3180 C.3   108  PHE108      0.0534
     57  CG      -104.5130   86.3460    2.1350 C.ar  108  PHE108     -0.0203
     58  CD1     -104.2750   87.7000    2.3060 C.ar  108  PHE108     -0.0042
     59  CD2     -104.6930   85.8610    0.8510 C.ar  108  PHE108     -0.0042
     60  CE1     -104.2260   88.5530    1.2190 C.ar  108  PHE108     -0.0003
     61  CE2     -104.6440   86.7090   -0.2390 C.ar  108  PHE108     -0.0003
     62  CZ      -104.4110   88.0570   -0.0540 C.ar  108  PHE108     -0.0000
     63  N        -99.4620   84.4700    5.4610 N.3   111  LEU111     -0.1231
     64  CA       -98.9710   85.8280    5.2670 C.3   111  LEU111      0.1693
     65  C        -99.2480   86.6990    6.4880 C.2   111  LEU111      0.2591
     66  O        -98.3800   87.4510    6.9270 O.2   111  LEU111     -0.2718
     67  CB       -99.6020   86.4520    4.0210 C.3   111  LEU111      0.0284
     68  CG       -99.1820   87.8870    3.7010 C.3   111  LEU111      0.0019
     69  CD1      -97.6750   87.9780    3.5310 C.3   111  LEU111      0.0001
     70  CD2      -99.8960   88.3880    2.4570 C.3   111  LEU111      0.0001
     71  N       -100.4560   86.5930    7.0350 N.am  112  MET112     -0.1979
     72  CA      -100.8120   87.3390    8.2390 C.3   112  MET112      0.1605
     73  C        -99.9540   86.9010    9.4200 C.2   112  MET112      0.2287
     74  O        -99.6050   87.7100   10.2780 O.2   112  MET112     -0.2864
     75  CB      -102.2950   87.1630    8.5790 C.3   112  MET112      0.0413
     76  CG      -103.2550   87.8220    7.5980 C.3   112  MET112      0.0598
     77  SD      -102.9080   89.5690    7.3230 S.3   112  MET112     -0.1393
     78  CE      -102.9980   90.1830    8.9980 C.3   112  MET112      0.0692
     79  N        -96.6460   88.6500    8.9960 N.3   115  LEU115     -0.1245
     80  CA       -96.7870   90.0710    9.3030 C.3   115  LEU115      0.1561
     81  C        -96.8990   90.3200   10.8060 C.2   115  LEU115      0.2260
     82  O        -96.3420   91.2870   11.3250 O.2   115  LEU115     -0.2867
     83  CB       -98.0040   90.6540    8.5810 C.3   115  LEU115      0.0270
     84  CG       -97.9480   90.6040    7.0520 C.3   115  LEU115      0.0019
     85  CD1      -99.2340   91.1360    6.4400 C.3   115  LEU115      0.0001
     86  CD2      -96.7440   91.3710    6.5290 C.3   115  LEU115      0.0001
     87  N        -98.4030   94.2380   11.5730 N.3   121  MET121     -0.1245
     88  CA       -99.8180   94.3090   11.9180 C.3   121  MET121      0.1570
     89  C       -100.0600   94.9020   13.3030 C.2   121  MET121      0.2261
     90  O       -101.0680   95.5700   13.5220 O.2   121  MET121     -0.2867
     91  CB      -100.4550   92.9250   11.8180 C.3   121  MET121      0.0387
     92  CG      -100.7690   92.5330   10.3890 C.3   121  MET121      0.0595
     93  SD      -101.9460   93.6820    9.6450 S.3   121  MET121     -0.1393
     94  CE      -101.7460   93.3280    7.9000 C.3   121  MET121      0.0692
     95  N       -108.3490   93.3940    9.2080 N.3   151  PHE151     -0.1241
     96  CA      -107.4270   92.4990    8.5160 C.3   151  PHE151      0.1605
     97  C       -107.7590   91.0230    8.7370 C.2   151  PHE151      0.2264
     98  O       -107.8420   90.2530    7.7830 O.2   151  PHE151     -0.2867
     99  CB      -105.9840   92.7530    8.9620 C.3   151  PHE151      0.0534
    100  CG      -105.5520   94.1950    8.8590 C.ar  151  PHE151     -0.0203
    101  CD1     -105.1810   94.7460    7.6410 C.ar  151  PHE151     -0.0042
    102  CD2     -105.5120   94.9950    9.9870 C.ar  151  PHE151     -0.0042
    103  CE1     -104.7880   96.0700    7.5540 C.ar  151  PHE151     -0.0003
    104  CE2     -105.1230   96.3120    9.9090 C.ar  151  PHE151     -0.0003
    105  CZ      -104.7590   96.8540    8.6930 C.ar  151  PHE151     -0.0000
    106  N       -109.2840   89.0010    5.7780 N.3   186  GLY186     -0.1225
    107  CA      -108.5180   89.2620    4.5730 C.3   186  GLY186      0.1811
    108  C       -108.4330   88.0240    3.7040 C.2   186  GLY186      0.2280
    109  O       -108.3570   88.1160    2.4800 O.2   186  GLY186     -0.2866
    110  N       -111.6710   87.5750    1.9410 N.3   189  LEU189     -0.1245
    111  CA      -111.8140   88.7440    1.0750 C.3   189  LEU189      0.1561
    112  C       -111.2380   88.4360   -0.3030 C.2   189  LEU189      0.2260
    113  O       -111.8770   88.6920   -1.3230 O.2   189  LEU189     -0.2867
    114  CB      -111.1290   89.9730    1.6890 C.3   189  LEU189      0.0270
    115  CG      -111.2280   91.3190    0.9580 C.3   189  LEU189      0.0019
    116  CD1     -111.3780   92.4670    1.9470 C.3   189  LEU189      0.0001
    117  CD2     -110.0110   91.5510    0.0770 C.3   189  LEU189      0.0001
@<TRIPOS>BOND
     1     9     8    1
     2     8     7    1
     3     7     6    1
     4    31    30    2
     5     6     5    1
     6     5     2    1
     7    30    32   am
     8    30    29    1
     9     2     1    1
    10     2     3    1
    11    48    46   ar
    12    48    50   ar
    13     4     3    2
    14    51    50    1
    15    26    29    1
    16    26    25    1
    17    26    27    1
    18     3    10   am
    19    46    45   ar
    20    40    41    1
    21    50    49   ar
    22    28    27    2
    23    27    33   am
    24    41    42    1
    25    41    44    1
    26    10    11    1
    27    45    44    1
    28    45    47   ar
    29    43    42    2
    30    49    47   ar
    31    33    34    1
    32    11    12    1
    33    11    14    1
    34    13    12    2
    35    12    17   am
    36    19    20    2
    37    19    18    1
    38    35    36    2
    39    35    34    1
    40    15    14    1
    41    34    37    1
    42    17    18    1
    43    14    16    1
    44    18    21    1
    45    37    39    1
    46    37    38    1
    47    21    23    1
    48    21    22    1
    49   113   112    2
    50    22    24    1
    51   112   111    1
    52    61    62   ar
    53    61    59   ar
    54    62    60   ar
    55   117   115    1
    56    59    57   ar
    57   115   114    1
    58   115   116    1
    59   111   114    1
    60   111   110    1
    61    60    58   ar
    62    57    58   ar
    63    57    56    1
    64    70    68    1
    65   109   108    2
    66    52    53    1
    67    56    53    1
    68    69    68    1
    69    53    54    1
    70    68    67    1
    71   108   107    1
    72    67    64    1
    73   107   106    1
    74    54    55    2
    75    64    63    1
    76    64    65    1
    77    85    84    1
    78    65    66    2
    79    65    71   am
    80    86    84    1
    81    71    72    1
    82    84    83    1
    83    77    76    1
    84    77    78    1
    85   103   101   ar
    86   103   105   ar
    87    76    75    1
    88   101   100   ar
    89    98    97    2
    90    94    93    1
    91    72    75    1
    92    72    73    1
    93    96    97    1
    94    96    99    1
    95    96    95    1
    96    83    80    1
    97   105   104   ar
    98   100    99    1
    99   100   102   ar
   100    79    80    1
   101    80    81    1
   102    73    74    2
   103    93    92    1
   104   104   102   ar
   105    92    91    1
   106    81    82    2
   107    87    88    1
   108    91    88    1
   109    88    89    1
   110    89    90    2
