@<TRIPOS>MOLECULE
tmp/5l2aA00.pdb
 108 101 0 0 0
SMALL
GASTEIGER

@<TRIPOS>ATOM
      1  N         -6.5820   91.0770    6.6180 N.3    49  VAL49      -0.1245
      2  CA        -6.1580   92.1920    7.4250 C.3    49  VAL49       0.1561
      3  C         -6.8440   92.3850    8.7370 C.2    49  VAL49       0.2260
      4  O         -6.4400   93.2300    9.5300 O.2    49  VAL49      -0.2867
      5  CB        -6.2800   93.5040    6.5820 C.3    49  VAL49       0.0252
      6  CG1       -5.5080   93.4190    5.2470 C.3    49  VAL49       0.0019
      7  CG2       -7.7470   93.8010    6.3000 C.3    49  VAL49       0.0019
      8  N         -1.3760   89.1290    8.5980 N.3    55  GLY55      -0.1225
      9  CA        -1.8040   90.3150    7.8820 C.3    55  GLY55       0.1811
     10  C         -1.9720   91.5280    8.7750 C.2    55  GLY55       0.2280
     11  O         -1.6910   92.6530    8.3650 O.2    55  GLY55      -0.2866
     12  N          1.0650   93.2090    9.1780 N.3    58  MET58      -0.1230
     13  CA         1.3730   93.9850    7.9820 C.3    58  MET58       0.1702
     14  C          0.5230   95.2490    7.9140 C.2    58  MET58       0.2592
     15  O          1.0180   96.3180    7.5600 O.2    58  MET58      -0.2718
     16  CB         1.1610   93.1420    6.7250 C.3    58  MET58       0.0401
     17  CG         2.1130   91.9660    6.5940 C.3    58  MET58       0.0596
     18  SD         1.7880   90.9850    5.1180 S.3    58  MET58      -0.1393
     19  CE         1.8870   92.2470    3.8500 C.3    58  MET58       0.0692
     20  N         -0.7560   95.1150    8.2510 N.am   59  LEU59      -0.1980
     21  CA        -1.6680   96.2520    8.2640 C.3    59  LEU59       0.1596
     22  C         -1.2110   97.2900    9.2800 C.2    59  LEU59       0.2287
     23  O         -1.2560   98.4920    9.0190 O.2    59  LEU59      -0.2864
     24  CB        -3.0950   95.7970    8.5750 C.3    59  LEU59       0.0297
     25  CG        -4.1460   96.9060    8.6860 C.3    59  LEU59       0.0022
     26  CD1       -4.2540   97.6810    7.3830 C.3    59  LEU59       0.0001
     27  CD2       -5.4960   96.3330    9.0850 C.3    59  LEU59       0.0001
     28  N          1.9000   97.5570   10.3580 N.3    61  GLU61      -0.1231
     29  CA         3.1660   98.0610    9.8380 C.3    61  GLU61       0.1699
     30  C          2.9300   99.0930    8.7410 C.2    61  GLU61       0.2592
     31  O          3.6520  100.0870    8.6470 O.2    61  GLU61      -0.2718
     32  CB         4.0240   96.9110    9.3030 C.3    61  GLU61       0.0402
     33  CG         5.2260   97.4480    8.5250 C.3    61  GLU61       0.1161
     34  CD         6.3200   96.4330    8.2450 C.2    61  GLU61       0.3649
     35  OE1        6.1650   95.2540    8.6100 O.co2  61  GLU61      -0.2457
     36  OE2        7.3500   96.8380    7.6620 O.co2  61  GLU61      -0.2457
     37  N          1.9160   98.8500    7.9180 N.am   62  ALA62      -0.1980
     38  CA         1.5480   99.7800    6.8590 C.3    62  ALA62       0.1597
     39  C          1.0380  101.0850    7.4540 C.2    62  ALA62       0.2287
     40  O          1.2950  102.1650    6.9210 O.2    62  ALA62      -0.2864
     41  CB         0.5000   99.1650    5.9460 C.3    62  ALA62       0.0319
     42  N          1.9280  102.3080   10.4190 N.3    64  LYS64      -0.1231
     43  CA         3.0940  102.9810   10.9740 C.3    64  LYS64       0.1693
     44  C          3.8770  103.7000    9.8820 C.2    64  LYS64       0.2593
     45  O          4.4200  104.7810   10.1030 O.2    64  LYS64      -0.2718
     46  CB         4.0000  101.9840   11.7030 C.3    64  LYS64       0.0285
     47  CG         3.3430  101.2780   12.8790 C.3    64  LYS64       0.0035
     48  CD         3.1330  102.2160   14.0580 C.3    64  LYS64       0.0206
     49  CE         4.4600  102.6280   14.6760 C.3    64  LYS64       0.1093
     50  NZ         4.2700  103.4630   15.8960 N.3    64  LYS64      -0.1314
     51  N          3.9320  103.0890    8.7030 N.am   65  THR65      -0.1939
     52  CA         4.6530  103.6630    7.5750 C.3    65  THR65       0.2028
     53  C          3.9850  104.9470    7.0980 C.2    65  THR65       0.2642
     54  O          4.6370  105.9800    6.9500 O.2    65  THR65      -0.2714
     55  CB         4.7410  102.6740    6.3990 C.3    65  THR65       0.1808
     56  OG1        5.3830  101.4680    6.8330 O.3    65  THR65      -0.2208
     57  CG2        5.5330  103.2800    5.2510 C.3    65  THR65       0.0379
     58  N          2.6800  104.8740    6.8600 N.am   66  ILE66      -0.1977
     59  CA         1.9240  106.0260    6.3820 C.3    66  ILE66       0.1596
     60  C          1.8460  107.1080    7.4570 C.2    66  ILE66       0.2287
     61  O          1.8320  108.3010    7.1500 O.2    66  ILE66      -0.2864
     62  CB         0.5030  105.6140    5.9380 C.3    66  ILE66       0.0276
     63  CG1        0.5860  104.5790    4.8130 C.3    66  ILE66       0.0022
     64  CG2       -0.3010  106.8210    5.4770 C.3    66  ILE66       0.0022
     65  CD1       -0.7480  104.2210    4.2080 C.3    66  ILE66       0.0001
     66  N          4.1570  107.9310    9.3950 N.3    68  ASN68      -0.1240
     67  CA         5.3760  108.7040    9.2130 C.3    68  ASN68       0.1653
     68  C          5.1830  109.8180    8.1920 C.2    68  ASN68       0.2266
     69  O          5.4370  110.9880    8.4790 O.2    68  ASN68      -0.2867
     70  CB         6.5220  107.7960    8.7760 C.3    68  ASN68       0.1155
     71  CG         6.8460  106.7250    9.7990 C.2    68  ASN68       0.2627
     72  OD1        7.5630  105.7690    9.5030 O.2    68  ASN68      -0.2716
     73  ND2        6.3220  106.8810   11.0090 N.am   68  ASN68      -0.0877
     74  N         -6.4590  104.5100   -5.0390 N.3   154  PHE154     -0.1241
     75  CA        -5.5910  105.6170   -4.6500 C.3   154  PHE154      0.1605
     76  C         -6.2390  106.9650   -4.9370 C.2   154  PHE154      0.2264
     77  O         -6.0160  107.9380   -4.2150 O.2   154  PHE154     -0.2867
     78  CB        -4.2470  105.5130   -5.3730 C.3   154  PHE154      0.0534
     79  CG        -3.5560  104.1900   -5.1820 C.ar  154  PHE154     -0.0203
     80  CD1       -2.7170  103.9810   -4.1020 C.ar  154  PHE154     -0.0042
     81  CD2       -3.7470  103.1580   -6.0860 C.ar  154  PHE154     -0.0042
     82  CE1       -2.0820  102.7660   -3.9240 C.ar  154  PHE154     -0.0003
     83  CE2       -3.1160  101.9390   -5.9140 C.ar  154  PHE154     -0.0003
     84  CZ        -2.2820  101.7450   -4.8320 C.ar  154  PHE154     -0.0000
     85  N         -7.2610  101.9210    5.5990 N.3   206  ILE206     -0.1231
     86  CA        -6.3730  101.2210    4.6780 C.3   206  ILE206      0.1692
     87  C         -7.0830  100.0310    4.0460 C.2   206  ILE206      0.2591
     88  O         -7.0360   99.8390    2.8320 O.2   206  ILE206     -0.2718
     89  CB        -5.0940  100.7330    5.3830 C.3   206  ILE206      0.0266
     90  CG1       -4.3470  101.9140    6.0030 C.3   206  ILE206      0.0019
     91  CG2       -4.1960   99.9920    4.4040 C.3   206  ILE206      0.0020
     92  CD1       -4.0130  103.0070    5.0170 C.3   206  ILE206      0.0001
     93  N         -7.7460   99.2370    4.8820 N.am  207  ALA207     -0.1980
     94  CA        -8.4800   98.0710    4.4080 C.3   207  ALA207      0.1597
     95  C         -9.6630   98.4810    3.5390 C.2   207  ALA207      0.2287
     96  O         -9.9560   97.8380    2.5300 O.2   207  ALA207     -0.2864
     97  CB        -8.9510   97.2310    5.5830 C.3   207  ALA207      0.0319
     98  N         -8.7730   99.2060   -0.2940 N.3   210  PHE210     -0.1241
     99  CA        -8.5220   98.0570   -1.1550 C.3   210  PHE210      0.1605
    100  C         -9.7600   97.1760   -1.3000 C.2   210  PHE210      0.2264
    101  O         -9.8800   96.4250   -2.2680 O.2   210  PHE210     -0.2867
    102  CB        -7.3490   97.2330   -0.6180 C.3   210  PHE210      0.0534
    103  CG        -6.0330   97.9570   -0.6560 C.ar  210  PHE210     -0.0203
    104  CD1       -5.3270   98.0740   -1.8430 C.ar  210  PHE210     -0.0042
    105  CD2       -5.5010   98.5200    0.4900 C.ar  210  PHE210     -0.0042
    106  CE1       -4.1150   98.7390   -1.8860 C.ar  210  PHE210     -0.0003
    107  CE2       -4.2880   99.1860    0.4560 C.ar  210  PHE210     -0.0003
    108  CZ        -3.5960   99.2960   -0.7340 C.ar  210  PHE210     -0.0000
@<TRIPOS>BOND
     1    81    83   ar
     2    81    79   ar
     3    83    84   ar
     4    78    79    1
     5    78    75    1
     6    79    80   ar
     7    74    75    1
     8    76    75    1
     9    76    77    2
    10    84    82   ar
    11    80    82   ar
    12   101   100    2
    13   106   104   ar
    14   106   108   ar
    15   104   103   ar
    16   100    99    1
    17    99   102    1
    18    99    98    1
    19   108   107   ar
    20   103   102    1
    21   103   105   ar
    22   107   105   ar
    23    96    95    2
    24    88    87    2
    25    95    94    1
    26    19    18    1
    27    87    86    1
    28    87    93   am
    29    65    63    1
    30    91    89    1
    31    94    93    1
    32    94    97    1
    33    86    89    1
    34    86    85    1
    35    63    62    1
    36    92    90    1
    37    18    17    1
    38     6     5    1
    39    57    55    1
    40    89    90    1
    41    64    62    1
    42    62    59    1
    43    41    38    1
    44     7     5    1
    45    59    58    1
    46    59    60    1
    47    55    56    1
    48    55    52    1
    49     5     2    1
    50    17    16    1
    51     1     2    1
    52    16    13    1
    53    38    39    1
    54    38    37    1
    55    58    53   am
    56    40    39    2
    57    54    53    2
    58    53    52    1
    59    61    60    2
    60    26    25    1
    61     2     3    1
    62    15    14    2
    63    52    51    1
    64    36    34   ar
    65     9     8    1
    66     9    10    1
    67    14    13    1
    68    14    20   am
    69    37    30   am
    70    13    12    1
    71    68    69    2
    72    68    67    1
    73    34    33    1
    74    34    35   ar
    75    20    21    1
    76    21    24    1
    77    21    22    1
    78    11    10    2
    79    33    32    1
    80    24    25    1
    81    31    30    2
    82    25    27    1
    83    51    44   am
    84     3     4    2
    85    30    29    1
    86    70    67    1
    87    70    71    1
    88    23    22    2
    89    67    66    1
    90    32    29    1
    91    72    71    2
    92    71    73   am
    93    29    28    1
    94    44    45    2
    95    44    43    1
    96    42    43    1
    97    43    46    1
    98    46    47    1
    99    47    48    1
   100    48    49    1
   101    49    50    1
