@<TRIPOS>MOLECULE
tmp/5l2bA01.pdb
 85 79 0 0 0
SMALL
GASTEIGER

@<TRIPOS>ATOM
      1  N        -86.0080   35.9610   17.8820 N.3    44  LEU44      -0.1245
      2  CA       -86.5600   37.2170   18.3740 C.3    44  LEU44       0.1561
      3  C        -87.1340   37.0440   19.7740 C.2    44  LEU44       0.2260
      4  O        -87.0630   37.9500   20.6020 O.2    44  LEU44      -0.2867
      5  CB       -87.6350   37.7430   17.4230 C.3    44  LEU44       0.0270
      6  CG       -87.1170   38.3590   16.1230 C.3    44  LEU44       0.0019
      7  CD1      -88.2700   38.7800   15.2240 C.3    44  LEU44       0.0001
      8  CD2      -86.2110   39.5420   16.4260 C.3    44  LEU44       0.0001
      9  N        -85.4230   39.4080   23.0200 N.3    48  VAL48      -0.1245
     10  CA       -86.0630   40.4470   23.8200 C.3    48  VAL48       0.1561
     11  C        -86.6500   39.9260   25.1320 C.2    48  VAL48       0.2260
     12  O        -87.3270   40.6670   25.8450 O.2    48  VAL48      -0.2867
     13  CB       -87.1850   41.1440   23.0280 C.3    48  VAL48       0.0252
     14  CG1      -86.6320   41.7500   21.7480 C.3    48  VAL48       0.0019
     15  CG2      -88.3040   40.1630   22.7200 C.3    48  VAL48       0.0019
     16  N        -83.5760   46.8000   25.1780 N.3    57  MET57      -0.1230
     17  CA       -84.0850   47.3610   23.9330 C.3    57  MET57       0.1702
     18  C        -85.6080   47.2960   23.8930 C.2    57  MET57       0.2592
     19  O        -86.2670   48.2280   23.4310 O.2    57  MET57      -0.2718
     20  CB       -83.4900   46.6290   22.7300 C.3    57  MET57       0.0401
     21  CG       -81.9850   46.7920   22.5890 C.3    57  MET57       0.0596
     22  SD       -81.3310   45.9800   21.1200 S.3    57  MET57      -0.1393
     23  CE       -82.3040   46.7690   19.8380 C.3    57  MET57       0.0692
     24  N        -86.1600   46.1910   24.3800 N.am   58  LEU58      -0.1980
     25  CA       -87.6070   46.0270   24.4470 C.3    58  LEU58       0.1596
     26  C        -88.2030   46.9950   25.4620 C.2    58  LEU58       0.2287
     27  O        -89.2820   47.5480   25.2490 O.2    58  LEU58      -0.2864
     28  CB       -87.9690   44.5840   24.8100 C.3    58  LEU58       0.0297
     29  CG       -89.4620   44.2510   24.8260 C.3    58  LEU58       0.0022
     30  CD1      -90.0790   44.5010   23.4600 C.3    58  LEU58       0.0001
     31  CD2      -89.6920   42.8140   25.2680 C.3    58  LEU58       0.0001
     32  N        -86.7530   49.8600   26.3860 N.3    60  GLU60      -0.1231
     33  CA       -86.5560   51.1990   25.8420 C.3    60  GLU60       0.1699
     34  C        -87.6300   51.5100   24.8080 C.2    60  GLU60       0.2592
     35  O        -88.1430   52.6270   24.7470 O.2    60  GLU60      -0.2718
     36  CB       -85.1650   51.3340   25.2210 C.3    60  GLU60       0.0402
     37  CG       -85.0500   52.6350   24.4250 C.3    60  GLU60       0.1161
     38  CD       -83.6350   53.0440   24.0560 C.2    60  GLU60       0.3649
     39  OE1      -82.6860   52.3030   24.3690 O.co2  60  GLU60      -0.2457
     40  OE2      -83.4850   54.1310   23.4550 O.co2  60  GLU60      -0.2457
     41  N        -87.9650   50.5120   23.9980 N.am   61  ALA61      -0.1980
     42  CA       -89.0370   50.6470   23.0220 C.3    61  ALA61       0.1597
     43  C        -90.3700   50.8360   23.7340 C.2    61  ALA61       0.2287
     44  O        -91.2100   51.6250   23.3020 O.2    61  ALA61      -0.2864
     45  CB       -89.0870   49.4330   22.1110 C.3    61  ALA61       0.0319
     46  N        -90.8050   52.1040   26.7960 N.3    63  LYS63      -0.1231
     47  CA       -90.7960   53.4270   27.4070 C.3    63  LYS63       0.1693
     48  C        -91.0330   54.5190   26.3690 C.2    63  LYS63       0.2592
     49  O        -91.6040   55.5640   26.6770 O.2    63  LYS63      -0.2718
     50  CB       -89.4720   53.6710   28.1350 C.3    63  LYS63       0.0285
     51  CG       -89.3330   54.9720   28.8730 C.3    63  LYS63       0.0035
     52  CD       -90.1820   54.9360   30.1030 C.3    63  LYS63       0.0206
     53  CE       -89.8510   56.1100   31.0290 C.3    63  LYS63       0.1093
     54  NZ       -90.3560   57.3700   30.5120 N.3    63  LYS63      -0.1314
     55  N        -90.5940   54.2660   25.1400 N.am   64  THR64      -0.1953
     56  CA       -90.7370   55.2330   24.0600 C.3    64  THR64       0.1897
     57  C        -92.1810   55.3290   23.5780 C.2    64  THR64       0.2313
     58  O        -92.7320   56.4220   23.4490 O.2    64  THR64      -0.2863
     59  CB       -89.8320   54.8780   22.8640 C.3    64  THR64       0.1794
     60  OG1      -88.4670   54.8290   23.2960 O.3    64  THR64      -0.2208
     61  CG2      -89.9710   55.9160   21.7610 C.3    64  THR64       0.0378
     62  N        -95.2050   44.4170   21.9240 N.3   205  ILE205     -0.1231
     63  CA       -94.1500   44.8620   21.0180 C.3   205  ILE205      0.1692
     64  C        -93.3910   43.6690   20.4530 C.2   205  ILE205      0.2591
     65  O        -93.1130   43.6040   19.2550 O.2   205  ILE205     -0.2718
     66  CB       -93.1570   45.8120   21.7180 C.3   205  ILE205      0.0266
     67  CG1      -93.9000   47.0020   22.3260 C.3   205  ILE205      0.0019
     68  CG2      -92.0960   46.2910   20.7430 C.3   205  ILE205      0.0020
     69  CD1      -94.8100   47.7110   21.3500 C.3   205  ILE205      0.0001
     70  N        -93.0610   42.7240   21.3280 N.am  206  ALA206     -0.1980
     71  CA       -92.3450   41.5230   20.9250 C.3   206  ALA206      0.1597
     72  C        -93.1950   40.6510   20.0030 C.2   206  ALA206      0.2287
     73  O        -92.6880   40.0640   19.0470 O.2   206  ALA206     -0.2864
     74  CB       -91.9130   40.7360   22.1500 C.3   206  ALA206      0.0319
     75  N        -93.4860   41.9430   16.1720 N.3   209  PHE209     -0.1241
     76  CA       -92.3310   41.6920   15.3200 C.3   209  PHE209      0.1605
     77  C        -92.1200   40.2010   15.0990 C.2   209  PHE209      0.2264
     78  O        -91.4620   39.7960   14.1410 O.2   209  PHE209     -0.2867
     79  CB       -91.0760   42.3280   15.9180 C.3   209  PHE209      0.0534
     80  CG       -91.0340   43.8210   15.7740 C.ar  209  PHE209     -0.0203
     81  CD1      -90.7780   44.4020   14.5430 C.ar  209  PHE209     -0.0042
     82  CD2      -91.2460   44.6430   16.8670 C.ar  209  PHE209     -0.0042
     83  CE1      -90.7480   45.7770   14.4020 C.ar  209  PHE209     -0.0003
     84  CE2      -91.2110   46.0180   16.7350 C.ar  209  PHE209     -0.0003
     85  CZ       -90.9660   46.5860   15.4990 C.ar  209  PHE209     -0.0000
@<TRIPOS>BOND
     1    78    77    2
     2    83    81   ar
     3    83    85   ar
     4    81    80   ar
     5    77    76    1
     6     7     6    1
     7    76    79    1
     8    76    75    1
     9    85    84   ar
    10    80    79    1
    11    80    82   ar
    12     6     8    1
    13     6     5    1
    14    84    82   ar
    15     5     2    1
    16     1     2    1
    17     2     3    1
    18    73    72    2
    19    65    64    2
    20     3     4    2
    21    23    22    1
    22    72    71    1
    23    64    63    1
    24    64    70   am
    25    68    66    1
    26    71    70    1
    27    71    74    1
    28    63    66    1
    29    63    62    1
    30    22    21    1
    31    69    67    1
    32    66    67    1
    33    14    13    1
    34    61    59    1
    35    45    42    1
    36    21    20    1
    37    15    13    1
    38    20    17    1
    39    59    60    1
    40    59    56    1
    41     9    10    1
    42    42    43    1
    43    42    41    1
    44    13    10    1
    45    44    43    2
    46    19    18    2
    47    58    57    2
    48    40    38   ar
    49    30    29    1
    50    57    56    1
    51    10    11    1
    52    18    17    1
    53    18    24   am
    54    17    16    1
    55    41    34   am
    56    38    39   ar
    57    38    37    1
    58    56    55    1
    59    24    25    1
    60    37    36    1
    61    25    28    1
    62    25    26    1
    63    35    34    2
    64    34    33    1
    65    28    29    1
    66    29    31    1
    67    11    12    2
    68    55    48   am
    69    36    33    1
    70    27    26    2
    71    33    32    1
    72    48    49    2
    73    48    47    1
    74    46    47    1
    75    47    50    1
    76    50    51    1
    77    51    52    1
    78    52    53    1
    79    54    53    1
