@<TRIPOS>MOLECULE
tmp/5l2fB00.pdb
 157 155 0 0 0
SMALL
GASTEIGER

@<TRIPOS>ATOM
      1  N        -28.7270   24.2780   35.3350 N.3    45  ALA45      -0.1231
      2  CA       -28.1540   25.4670   35.9750 C.3    45  ALA45       0.1694
      3  C        -27.1850   25.0480   37.0910 C.2    45  ALA45       0.2592
      4  O        -26.4190   24.1050   36.8950 O.2    45  ALA45      -0.2718
      5  CB       -29.2670   26.3700   36.4820 C.3    45  ALA45       0.0304
      6  N        -27.2590   25.6650   38.2700 N.am   46  SER46      -0.1952
      7  CA       -26.2490   25.4280   39.3120 C.3    46  SER46       0.1924
      8  C        -26.2530   23.9990   39.8470 C.2    46  SER46       0.2314
      9  O        -25.2940   23.5960   40.5120 O.2    46  SER46      -0.2863
     10  CB       -26.4050   26.3830   40.5070 C.3    46  SER46       0.2116
     11  OG       -26.1340   27.7230   40.1390 O.3    46  SER46      -0.2180
     12  N        -23.2560   21.8290   39.3440 N.3    49  ASP49      -0.1239
     13  CA       -22.0470   21.9760   40.1720 C.3    49  ASP49       0.1674
     14  C        -21.7220   20.6710   40.9040 C.2    49  ASP49       0.2266
     15  O        -20.5610   20.3660   41.1600 O.2    49  ASP49      -0.2867
     16  CB       -22.1960   23.1020   41.2200 C.3    49  ASP49       0.1410
     17  CG       -22.4040   24.4920   40.5980 C.2    49  ASP49       0.3668
     18  OD1      -22.2700   24.6610   39.3590 O.co2  49  ASP49      -0.2456
     19  OD2      -22.7260   25.4220   41.3660 O.co2  49  ASP49      -0.2456
     20  N        -21.0380   38.6440   39.1730 N.3    76  LEU76      -0.1231
     21  CA       -22.4650   38.9190   39.1120 C.3    76  LEU76       0.1693
     22  C        -23.0100   39.3010   40.4900 C.2    76  LEU76       0.2592
     23  O        -23.8850   40.1500   40.6030 O.2    76  LEU76      -0.2718
     24  CB       -23.1990   37.7060   38.5500 C.3    76  LEU76       0.0284
     25  CG       -24.7000   37.8340   38.3310 C.3    76  LEU76       0.0019
     26  CD1      -25.0060   39.0070   37.4080 C.3    76  LEU76       0.0001
     27  CD2      -25.2370   36.5350   37.7440 C.3    76  LEU76       0.0001
     28  N        -22.4870   38.6670   41.5340 N.am   77  PHE77      -0.1976
     29  CA       -22.8610   38.9770   42.9070 C.3    77  PHE77       0.1639
     30  C        -21.6120   39.2880   43.7200 C.2    77  PHE77       0.2290
     31  O        -20.5850   38.6310   43.5460 O.2    77  PHE77      -0.2864
     32  CB       -23.5900   37.7950   43.5460 C.3    77  PHE77       0.0560
     33  CG       -24.8490   37.4020   42.8290 C.ar   77  PHE77      -0.0200
     34  CD1      -26.0320   38.0880   43.0560 C.ar   77  PHE77      -0.0042
     35  CD2      -24.8440   36.3640   41.9040 C.ar   77  PHE77      -0.0042
     36  CE1      -27.1890   37.7390   42.3870 C.ar   77  PHE77      -0.0003
     37  CE2      -25.9960   36.0150   41.2300 C.ar   77  PHE77      -0.0003
     38  CZ       -27.1710   36.7030   41.4700 C.ar   77  PHE77      -0.0000
     39  N        -20.9730   38.6560   46.7760 N.3    79  GLU79      -0.1231
     40  CA       -20.6450   37.5060   47.6110 C.3    79  GLU79       0.1699
     41  C        -19.6390   36.5540   46.9380 C.2    79  GLU79       0.2592
     42  O        -18.9860   35.7670   47.6140 O.2    79  GLU79      -0.2718
     43  CB       -21.9140   36.7130   47.9600 C.3    79  GLU79       0.0402
     44  CG       -22.9620   37.4720   48.7620 C.3    79  GLU79       0.1161
     45  CD       -24.0800   38.0190   47.8910 C.2    79  GLU79       0.3649
     46  OE1      -23.7770   38.6460   46.8630 O.co2  79  GLU79      -0.2457
     47  OE2      -25.2750   37.8330   48.2320 O.co2  79  GLU79      -0.2457
     48  N        -19.5210   36.6260   45.6160 N.am   80  TRP80      -0.1976
     49  CA       -18.6020   35.7740   44.8810 C.3    80  TRP80       0.1640
     50  C        -17.2000   36.3840   44.7530 C.2    80  TRP80       0.2290
     51  O        -16.3050   35.7640   44.1690 O.2    80  TRP80      -0.2864
     52  CB       -19.1450   35.4990   43.4840 C.3    80  TRP80       0.0576
     53  CG       -20.4280   34.7230   43.4220 C.ar   80  TRP80       0.0006
     54  CD1      -21.0600   34.0630   44.4320 C.ar   80  TRP80       0.0946
     55  CD2      -21.2010   34.4930   42.2410 C.ar   80  TRP80       0.0152
     56  NE1      -22.1830   33.3940   43.9280 N.ar   80  TRP80      -0.2442
     57  CE2      -22.2710   33.6480   42.5830 C.ar   80  TRP80       0.0810
     58  CE3      -21.0610   34.8880   40.9090 C.ar   80  TRP80       0.0012
     59  CZ2      -23.2220   33.2420   41.6450 C.ar   80  TRP80       0.0191
     60  CZ3      -21.9820   34.4670   39.9870 C.ar   80  TRP80       0.0001
     61  CH2      -23.0370   33.6430   40.3500 C.ar   80  TRP80       0.0015
     62  N        -22.2460   28.8120   47.9600 N.3    92  ALA92      -0.1231
     63  CA       -22.5840   30.1220   47.3940 C.3    92  ALA92       0.1694
     64  C        -23.0950   30.0370   45.9530 C.2    92  ALA92       0.2592
     65  O        -23.4590   31.0590   45.3630 O.2    92  ALA92      -0.2718
     66  CB       -21.3810   31.0430   47.4680 C.3    92  ALA92       0.0304
     67  N        -23.0800   28.8330   45.3780 N.am   93  SER93      -0.1952
     68  CA       -23.2410   28.6410   43.9300 C.3    93  SER93       0.1924
     69  C        -22.4130   29.6320   43.1130 C.2    93  SER93       0.2314
     70  O        -22.9170   30.2430   42.1670 O.2    93  SER93      -0.2863
     71  CB       -24.7130   28.7200   43.5230 C.3    93  SER93       0.2116
     72  OG       -25.4460   27.6160   44.0160 O.3    93  SER93      -0.2180
     73  N        -20.5630   30.7070   40.4040 N.3    95  LEU95      -0.1245
     74  CA       -20.3910   30.2830   39.0230 C.3    95  LEU95       0.1561
     75  C        -18.9460   30.3740   38.5140 C.2    95  LEU95       0.2260
     76  O        -18.4660   29.4630   37.8550 O.2    95  LEU95      -0.2867
     77  CB       -21.3410   31.0780   38.1140 C.3    95  LEU95       0.0270
     78  CG       -21.1980   30.8030   36.6120 C.3    95  LEU95       0.0019
     79  CD1      -21.4810   29.3360   36.3070 C.3    95  LEU95       0.0001
     80  CD2      -22.1220   31.7040   35.8120 C.3    95  LEU95       0.0001
     81  N        -24.1650   24.0750   30.9330 N.3   132  TRP132     -0.1227
     82  CA       -25.1410   23.6890   31.9510 C.3   132  TRP132      0.1737
     83  C        -26.1090   24.8240   32.2710 C.2   132  TRP132      0.2595
     84  O        -27.0330   24.6560   33.0680 O.2   132  TRP132     -0.2718
     85  CB       -24.4360   23.2150   33.2240 C.3   132  TRP132      0.0564
     86  CG       -23.5840   24.2380   33.9240 C.ar  132  TRP132      0.0003
     87  CD1      -23.9460   25.0150   34.9760 C.ar  132  TRP132      0.0946
     88  CD2      -22.1950   24.5060   33.6810 C.ar  132  TRP132      0.0152
     89  NE1      -22.8740   25.7700   35.3960 N.ar  132  TRP132     -0.2442
     90  CE2      -21.7950   25.4960   34.5970 C.ar  132  TRP132      0.0810
     91  CE3      -21.2500   23.9970   32.7810 C.ar  132  TRP132      0.0012
     92  CZ2      -20.4980   25.9900   34.6360 C.ar  132  TRP132      0.0191
     93  CZ3      -19.9640   24.5000   32.8060 C.ar  132  TRP132      0.0001
     94  CH2      -19.5930   25.4800   33.7380 C.ar  132  TRP132      0.0015
     95  N        -25.8980   25.9740   31.6340 N.am  133  LEU133     -0.1980
     96  CA       -26.6660   27.1870   31.9190 C.3   133  LEU133      0.1596
     97  C        -27.6840   27.5160   30.8320 C.2   133  LEU133      0.2287
     98  O        -28.8020   27.9330   31.1390 O.2   133  LEU133     -0.2864
     99  CB       -25.7220   28.3790   32.0690 C.3   133  LEU133      0.0297
    100  CG       -24.6660   28.2700   33.1670 C.3   133  LEU133      0.0022
    101  CD1      -23.6980   29.4440   33.0480 C.3   133  LEU133      0.0001
    102  CD2      -25.3500   28.2390   34.5200 C.3   133  LEU133      0.0001
    103  N        -29.4920   24.2740   45.2630 N.3   184  SER184     -0.1202
    104  CA       -30.4940   25.0260   44.5240 C.3   184  SER184      0.2020
    105  C        -29.9570   25.4070   43.1560 C.2   184  SER184      0.2619
    106  O        -28.7380   25.3790   42.9080 O.2   184  SER184     -0.2717
    107  CB       -30.9300   26.2760   45.3000 C.3   184  SER184      0.2103
    108  OG       -29.8830   27.2240   45.3800 O.3   184  SER184     -0.2182
    109  N        -30.8730   25.7720   42.2670 N.am  185  GLY185     -0.1942
    110  CA       -30.4930   26.3260   40.9890 C.3   185  GLY185      0.2014
    111  C        -31.5530   27.2630   40.4570 C.2   185  GLY185      0.2638
    112  O        -32.7480   27.1150   40.7510 O.2   185  GLY185     -0.2714
    113  N        -31.1100   28.2310   39.6670 N.am  186  TRP186     -0.1973
    114  CA       -32.0150   29.2030   39.0710 C.3   186  TRP186      0.1640
    115  C        -31.4630   29.5830   37.7140 C.2   186  TRP186      0.2290
    116  O        -30.4150   30.2270   37.6230 O.2   186  TRP186     -0.2864
    117  CB       -32.1170   30.4300   39.9740 C.3   186  TRP186      0.0576
    118  CG       -33.0970   31.4690   39.5240 C.ar  186  TRP186      0.0006
    119  CD1      -33.8820   31.4460   38.4110 C.ar  186  TRP186      0.0946
    120  CD2      -33.3870   32.7000   40.1960 C.ar  186  TRP186      0.0152
    121  NE1      -34.6500   32.5920   38.3480 N.ar  186  TRP186     -0.2442
    122  CE2      -34.3490   33.3840   39.4230 C.ar  186  TRP186      0.0810
    123  CE3      -32.9310   33.2870   41.3840 C.ar  186  TRP186      0.0012
    124  CZ2      -34.8620   34.6280   39.7960 C.ar  186  TRP186      0.0191
    125  CZ3      -33.4390   34.5270   41.7520 C.ar  186  TRP186      0.0001
    126  CH2      -34.3910   35.1830   40.9580 C.ar  186  TRP186      0.0015
    127  N        -32.0080   31.7320   34.9150 N.3   188  TRP188     -0.1241
    128  CA       -32.7040   32.9350   34.4490 C.3   188  TRP188      0.1605
    129  C        -32.2220   33.3700   33.0650 C.2   188  TRP188      0.2264
    130  O        -32.7930   34.2790   32.4680 O.2   188  TRP188     -0.2867
    131  CB       -32.5560   34.0840   35.4560 C.3   188  TRP188      0.0550
    132  CG       -31.1450   34.4310   35.7740 C.ar  188  TRP188      0.0003
    133  CD1      -30.3960   33.9350   36.7940 C.ar  188  TRP188      0.0946
    134  CD2      -30.3080   35.3500   35.0700 C.ar  188  TRP188      0.0152
    135  NE1      -29.1330   34.4740   36.7640 N.ar  188  TRP188     -0.2442
    136  CE2      -29.0560   35.3530   35.7180 C.ar  188  TRP188      0.0810
    137  CE3      -30.4950   36.1740   33.9570 C.ar  188  TRP188      0.0012
    138  CZ2      -27.9970   36.1510   35.2940 C.ar  188  TRP188      0.0191
    139  CZ3      -29.4460   36.9800   33.5440 C.ar  188  TRP188      0.0001
    140  CH2      -28.2080   36.9530   34.2050 C.ar  188  TRP188      0.0015
    141  N        -37.1900   33.7550   45.3520 N.3   223  SER223     -0.1217
    142  CA       -36.4210   32.5280   45.1960 C.3   223  SER223      0.1889
    143  C        -36.5150   31.6340   46.4370 C.2   223  SER223      0.2288
    144  O        -36.2980   30.4240   46.3510 O.2   223  SER223     -0.2866
    145  CB       -34.9590   32.8680   44.8850 C.3   223  SER223      0.2089
    146  OG       -34.3320   33.4930   45.9920 O.3   223  SER223     -0.2183
    147  N        -38.5490   28.0040   46.8010 N.3   226  ARG226     -0.1245
    148  CA       -38.0720   26.6620   46.4770 C.3   226  ARG226      0.1563
    149  C        -37.8780   25.8400   47.7520 C.2   226  ARG226      0.2260
    150  O        -38.4310   24.7440   47.8860 O.2   226  ARG226     -0.2867
    151  CB       -36.7780   26.7340   45.6630 C.3   226  ARG226      0.0307
    152  CG       -36.9810   27.3130   44.2620 C.3   226  ARG226      0.0489
    153  CD       -35.6880   27.7440   43.5950 C.3   226  ARG226      0.2205
    154  NE       -34.9470   28.6970   44.4080 N.pl3 226  ARG226     -0.0865
    155  CZ       -33.6740   29.0250   44.2140 C.cat 226  ARG226      0.5346
    156  NH1      -33.0890   29.8800   45.0490 N.pl3 226  ARG226      0.1354
    157  NH2      -32.9690   28.4910   43.2140 N.pl3 226  ARG226      0.1354
@<TRIPOS>BOND
     1    97    98    2
     2    97    96    1
     3    81    82    1
     4    95    96    1
     5    95    83   am
     6    96    99    1
     7    82    83    1
     8    82    85    1
     9    99   100    1
    10    83    84    2
    11   130   129    2
    12    91    93   ar
    13    91    88   ar
    14    93    94   ar
    15   101   100    1
    16   129   128    1
    17   100   102    1
    18    85    86    1
    19   139   137   ar
    20   139   140   ar
    21    88    86   ar
    22    88    90   ar
    23    94    92   ar
    24    86    87   ar
    25   137   134   ar
    26   140   138   ar
    27   128   127    1
    28   128   131    1
    29    90    92   ar
    30    90    89   ar
    31    87    89   ar
    32   134   136   ar
    33   134   132   ar
    34   138   136   ar
    35     1     2    1
    36   131   132    1
    37   136   135   ar
    38   132   133   ar
    39    80    78    1
    40     2     5    1
    41     2     3    1
    42    79    78    1
    43    78    77    1
    44   135   133   ar
    45     4     3    2
    46     3     6   am
    47    26    25    1
    48   116   115    2
    49   115   114    1
    50    27    25    1
    51    76    75    2
    52    77    74    1
    53     6     7    1
    54    25    24    1
    55   121   119   ar
    56   121   122   ar
    57   119   118   ar
    58    75    74    1
    59    24    21    1
    60    74    73    1
    61   114   113    1
    62   114   117    1
    63    21    20    1
    64    21    22    1
    65     7     8    1
    66     7    10    1
    67    12    13    1
    68    18    17   ar
    69   122   124   ar
    70   122   120   ar
    71   118   117    1
    72   118   120   ar
    73   113   111   am
    74   124   126   ar
    75     8     9    2
    76    60    61   ar
    77    60    58   ar
    78    11    10    1
    79    13    14    1
    80    13    16    1
    81   120   123   ar
    82    61    59   ar
    83   111   112    2
    84   111   110    1
    85    22    23    2
    86    22    28   am
    87    17    16    1
    88    17    19   ar
    89    14    15    2
    90    58    55   ar
    91   126   125   ar
    92   110   109    1
    93    37    38   ar
    94    37    35   ar
    95   123   125   ar
    96    38    36   ar
    97    28    29    1
    98    59    57   ar
    99    35    33   ar
   100    70    69    2
   101    55    57   ar
   102    55    53   ar
   103   109   105   am
   104    36    34   ar
   105    57    56   ar
   106    33    34   ar
   107    33    32    1
   108    29    32    1
   109    29    30    1
   110   106   105    2
   111    69    68    1
   112   105   104    1
   113   157   155    1
   114    53    52    1
   115    53    54   ar
   116    52    49    1
   117    71    68    1
   118    71    72    1
   119    31    30    2
   120   153   152    1
   121   153   154    1
   122    56    54   ar
   123    68    67    1
   124    51    50    2
   125   155   154    2
   126   155   156    1
   127   152   151    1
   128   104   103    1
   129   104   107    1
   130    50    49    1
   131    49    48    1
   132   145   142    1
   133   145   146    1
   134   142   141    1
   135   142   143    1
   136   107   108    1
   137    65    64    2
   138    67    64   am
   139    48    41   am
   140   151   148    1
   141    64    63    1
   142   144   143    2
   143   148   147    1
   144   148   149    1
   145    39    40    1
   146    46    45   ar
   147    41    40    1
   148    41    42    2
   149    63    66    1
   150    63    62    1
   151    40    43    1
   152   149   150    2
   153    45    47   ar
   154    45    44    1
   155    43    44    1
