@<TRIPOS>MOLECULE
tmp/5l2fA00.pdb
 149 148 0 0 0
SMALL
GASTEIGER

@<TRIPOS>ATOM
      1  N        -19.1190  -18.0550   44.2710 N.3    44  ALA44      -0.1231
      2  CA       -17.8360  -18.7450   44.2870 C.3    44  ALA44       0.1694
      3  C        -16.7300  -17.7470   43.8610 C.2    44  ALA44       0.2592
      4  O        -16.7460  -16.5930   44.2810 O.2    44  ALA44      -0.2718
      5  CB       -17.8800  -19.9970   43.4010 C.3    44  ALA44       0.0304
      6  N        -15.7930  -18.1840   43.0260 N.am   45  SER45      -0.1952
      7  CA       -14.6120  -17.3630   42.7140 C.3    45  SER45       0.1924
      8  C        -14.9700  -16.0500   42.0040 C.2    45  SER45       0.2314
      9  O        -14.1270  -15.1650   41.9180 O.2    45  SER45      -0.2863
     10  CB       -13.6400  -18.1270   41.8160 C.3    45  SER45       0.2116
     11  OG       -13.0670  -19.2430   42.5000 O.3    45  SER45      -0.2180
     12  N         -4.8990  -26.7060   47.6980 N.3    75  LEU75      -0.1231
     13  CA        -5.9900  -27.5280   47.2120 C.3    75  LEU75       0.1693
     14  C         -5.7670  -27.9430   45.7630 C.2    75  LEU75       0.2592
     15  O         -6.0870  -29.0700   45.3810 O.2    75  LEU75      -0.2718
     16  CB        -7.3110  -26.7640   47.3580 C.3    75  LEU75       0.0284
     17  CG        -8.5890  -27.5140   46.9850 C.3    75  LEU75       0.0019
     18  CD1       -8.7190  -28.8010   47.7870 C.3    75  LEU75       0.0001
     19  CD2       -9.7900  -26.6090   47.2190 C.3    75  LEU75       0.0001
     20  N         -5.2180  -27.0380   44.9580 N.am   76  PHE76      -0.1976
     21  CA        -4.8730  -27.3380   43.5700 C.3    76  PHE76       0.1639
     22  C         -3.4150  -26.9680   43.3310 C.2    76  PHE76       0.2290
     23  O         -2.9370  -25.9540   43.8440 O.2    76  PHE76      -0.2864
     24  CB        -5.7460  -26.5400   42.6070 C.3    76  PHE76       0.0560
     25  CG        -7.2130  -26.8000   42.7600 C.ar   76  PHE76      -0.0200
     26  CD1       -7.7980  -27.9070   42.1600 C.ar   76  PHE76      -0.0042
     27  CD2       -8.0050  -25.9460   43.5090 C.ar   76  PHE76      -0.0042
     28  CE1       -9.1450  -28.1690   42.3250 C.ar   76  PHE76      -0.0003
     29  CE2       -9.3570  -26.1960   43.6570 C.ar   76  PHE76      -0.0003
     30  CZ        -9.9260  -27.3070   43.0680 C.ar   76  PHE76      -0.0000
     31  N         -2.0360  -25.7520   40.7430 N.3    78  GLU78      -0.1231
     32  CA        -1.9820  -24.4810   40.0330 C.3    78  GLU78       0.1699
     33  C         -1.8120  -23.2780   40.9630 C.2    78  GLU78       0.2592
     34  O         -1.3710  -22.2120   40.5310 O.2    78  GLU78      -0.2718
     35  CB        -3.2560  -24.3180   39.1870 C.3    78  GLU78       0.0402
     36  CG        -3.3640  -25.2980   38.0220 C.3    78  GLU78       0.1161
     37  CD        -3.9220  -26.6860   38.3760 C.2    78  GLU78       0.3649
     38  OE1       -4.2660  -26.9730   39.5470 O.co2  78  GLU78      -0.2457
     39  OE2       -3.9800  -27.5220   37.4600 O.co2  78  GLU78      -0.2457
     40  N         -2.1700  -23.4460   42.2350 N.am   79  TRP79      -0.1976
     41  CA        -2.0650  -22.3790   43.2230 C.3    79  TRP79       0.1640
     42  C         -0.7030  -22.3170   43.9040 C.2    79  TRP79       0.2290
     43  O         -0.4690  -21.4590   44.7620 O.2    79  TRP79      -0.2864
     44  CB        -3.1400  -22.5470   44.2980 C.3    79  TRP79       0.0576
     45  CG        -4.5430  -22.3980   43.7890 C.ar   79  TRP79       0.0006
     46  CD1       -4.9240  -21.9700   42.5580 C.ar   79  TRP79       0.0946
     47  CD2       -5.7440  -22.6270   44.5220 C.ar   79  TRP79       0.0152
     48  NE1       -6.2860  -21.9800   42.4460 N.ar   79  TRP79      -0.2442
     49  CE2       -6.8180  -22.3490   43.6520 C.ar   79  TRP79       0.0810
     50  CE3       -6.0190  -23.0360   45.8330 C.ar   79  TRP79       0.0012
     51  CZ2       -8.1430  -22.4480   44.0500 C.ar   79  TRP79       0.0191
     52  CZ3       -7.3400  -23.1650   46.2170 C.ar   79  TRP79       0.0001
     53  CH2       -8.3880  -22.8550   45.3280 C.ar   79  TRP79       0.0015
     54  N         -5.8490  -17.4210   38.1220 N.3    91  ALA91      -0.1231
     55  CA        -5.7630  -18.7970   38.6430 C.3    91  ALA91       0.1694
     56  C         -6.8720  -19.1330   39.6290 C.2    91  ALA91       0.2592
     57  O         -6.9690  -20.2700   40.1130 O.2    91  ALA91      -0.2718
     58  CB        -4.4090  -19.0180   39.3020 C.3    91  ALA91       0.0304
     59  N         -7.7160  -18.1380   39.9230 N.am   92  SER92      -0.1952
     60  CA        -8.6950  -18.2260   41.0100 C.3    92  SER92       0.1924
     61  C         -8.1010  -18.7750   42.3040 C.2    92  SER92       0.2314
     62  O         -8.6770  -19.6540   42.9480 O.2    92  SER92      -0.2863
     63  CB        -9.9000  -19.0490   40.5790 C.3    92  SER92       0.2116
     64  OG       -10.6450  -18.3640   39.5700 O.3    92  SER92      -0.2180
     65  N         -7.7050  -19.1030   45.7420 N.3    94  LEU94      -0.1245
     66  CA        -8.5040  -18.7740   46.9100 C.3    94  LEU94       0.1561
     67  C         -7.7010  -18.2430   48.0990 C.2    94  LEU94       0.2260
     68  O         -8.1080  -17.2880   48.7300 O.2    94  LEU94      -0.2867
     69  CB        -9.3350  -19.9910   47.3240 C.3    94  LEU94       0.0270
     70  CG       -10.1550  -19.8650   48.5950 C.3    94  LEU94       0.0019
     71  CD1      -11.1820  -18.7580   48.4030 C.3    94  LEU94       0.0001
     72  CD2      -10.8130  -21.1900   48.9480 C.3    94  LEU94       0.0001
     73  N        -18.4520  -16.1840   50.3150 N.3   131  TRP131     -0.1227
     74  CA       -18.7400  -16.1870   48.8820 C.3   131  TRP131      0.1737
     75  C        -18.7010  -17.5860   48.3030 C.2   131  TRP131      0.2595
     76  O        -19.0190  -17.7830   47.1240 O.2   131  TRP131     -0.2718
     77  CB       -17.7720  -15.2680   48.1310 C.3   131  TRP131      0.0564
     78  CG       -16.3160  -15.6580   48.2140 C.ar  131  TRP131      0.0003
     79  CD1      -15.6200  -16.3850   47.3030 C.ar  131  TRP131      0.0946
     80  CD2      -15.3680  -15.2300   49.1980 C.ar  131  TRP131      0.0152
     81  NE1      -14.3050  -16.4700   47.6730 N.ar  131  TRP131     -0.2442
     82  CE2      -14.1180  -15.7600   48.8270 C.ar  131  TRP131      0.0810
     83  CE3      -15.4510  -14.4390   50.3440 C.ar  131  TRP131      0.0012
     84  CZ2      -12.9610  -15.5580   49.5830 C.ar  131  TRP131      0.0191
     85  CZ3      -14.2910  -14.1920   51.0720 C.ar  131  TRP131      0.0001
     86  CH2      -13.0580  -14.7640   50.6900 C.ar  131  TRP131      0.0015
     87  N        -18.3840  -18.5710   49.1530 N.am  132  LEU132     -0.1980
     88  CA       -18.1960  -19.9450   48.7010 C.3   132  LEU132      0.1596
     89  C        -19.3700  -20.8620   49.0500 C.2   132  LEU132      0.2287
     90  O        -19.7690  -21.7000   48.2420 O.2   132  LEU132     -0.2864
     91  CB       -16.9270  -20.5240   49.3290 C.3   132  LEU132      0.0297
     92  CG       -15.6270  -19.7830   49.0030 C.3   132  LEU132      0.0022
     93  CD1      -14.5020  -20.3420   49.8630 C.3   132  LEU132      0.0001
     94  CD2      -15.3280  -19.9090   47.5230 C.3   132  LEU132      0.0001
     95  N        -13.9260  -17.1510   35.7650 N.3   183  SER183     -0.1202
     96  CA       -14.6660  -18.3870   35.9520 C.3   183  SER183      0.2020
     97  C        -14.9230  -18.6470   37.4320 C.2   183  SER183      0.2619
     98  O        -14.2950  -18.0600   38.3090 O.2   183  SER183     -0.2717
     99  CB       -13.9380  -19.5760   35.3170 C.3   183  SER183      0.2103
    100  OG       -12.7490  -19.8850   36.0180 O.3   183  SER183     -0.2182
    101  N        -15.8900  -19.5110   37.7010 N.am  184  GLY184     -0.1942
    102  CA       -16.1320  -19.9700   39.0520 C.3   184  GLY184      0.2014
    103  C        -16.7310  -21.3640   39.0420 C.2   184  GLY184      0.2638
    104  O        -17.4240  -21.7680   38.0950 O.2   184  GLY184     -0.2714
    105  N        -16.4770  -22.0910   40.1190 N.am  185  TRP185     -0.1973
    106  CA       -16.9710  -23.4520   40.2530 C.3   185  TRP185      0.1640
    107  C        -17.2300  -23.7030   41.7220 C.2   185  TRP185      0.2290
    108  O        -16.3050  -23.7660   42.5140 O.2   185  TRP185     -0.2864
    109  CB       -15.9370  -24.4360   39.7180 C.3   185  TRP185      0.0576
    110  CG       -16.3790  -25.8650   39.7050 C.ar  185  TRP185      0.0006
    111  CD1      -17.5950  -26.3590   40.0720 C.ar  185  TRP185      0.0946
    112  CD2      -15.6490  -26.9710   39.1570 C.ar  185  TRP185      0.0152
    113  NE1      -17.6300  -27.7290   39.8860 N.ar  185  TRP185     -0.2442
    114  CE2      -16.4480  -28.1230   39.3180 C.ar  185  TRP185      0.0810
    115  CE3      -14.3680  -27.1100   38.6120 C.ar  185  TRP185      0.0012
    116  CZ2      -16.0100  -29.3940   38.9390 C.ar  185  TRP185      0.0191
    117  CZ3      -13.9300  -28.3760   38.2540 C.ar  185  TRP185      0.0001
    118  CH2      -14.7730  -29.4890   38.3620 C.ar  185  TRP185      0.0015
    119  N        -18.1740  -26.2660   43.9010 N.3   187  TRP187     -0.1241
    120  CA       -18.2060  -27.7070   43.6760 C.3   187  TRP187      0.1605
    121  C        -18.6700  -28.4410   44.9320 C.2   187  TRP187      0.2264
    122  O        -18.9860  -29.6200   44.8630 O.2   187  TRP187     -0.2867
    123  CB       -16.8410  -28.2340   43.2230 C.3   187  TRP187      0.0550
    124  CG       -15.7290  -27.9340   44.1870 C.ar  187  TRP187      0.0003
    125  CD1      -14.9200  -26.8330   44.1840 C.ar  187  TRP187      0.0946
    126  CD2      -15.3530  -28.6990   45.3360 C.ar  187  TRP187      0.0152
    127  NE1      -14.1030  -26.8400   45.2830 N.ar  187  TRP187     -0.2442
    128  CE2      -14.3330  -27.9870   45.9950 C.ar  187  TRP187      0.0810
    129  CE3      -15.7940  -29.9090   45.8810 C.ar  187  TRP187      0.0012
    130  CZ2      -13.7410  -28.4460   47.1670 C.ar  187  TRP187      0.0191
    131  CZ3      -15.2000  -30.3680   47.0420 C.ar  187  TRP187      0.0001
    132  CH2      -14.1790  -29.6440   47.6680 C.ar  187  TRP187      0.0015
    133  N        -14.6430  -29.0750   33.1440 N.3   222  SER222     -0.1217
    134  CA       -14.7680  -27.6600   33.4640 C.3   222  SER222      0.1889
    135  C        -14.5340  -26.7580   32.2490 C.2   222  SER222      0.2288
    136  O        -15.0090  -25.6160   32.2150 O.2   222  SER222     -0.2866
    137  CB       -13.8150  -27.2950   34.5950 C.3   222  SER222      0.2089
    138  OG       -12.4690  -27.3960   34.1860 O.3   222  SER222     -0.2183
    139  N        -17.3870  -24.5780   30.1290 N.3   225  ARG225     -0.1245
    140  CA       -17.8680  -23.2200   30.4010 C.3   225  ARG225      0.1563
    141  C        -17.3610  -22.2560   29.3290 C.2   225  ARG225      0.2260
    142  O        -18.1460  -21.5520   28.7040 O.2   225  ARG225     -0.2867
    143  CB       -17.4380  -22.7640   31.7980 C.3   225  ARG225      0.0307
    144  CG       -18.1290  -23.5260   32.9200 C.3   225  ARG225      0.0489
    145  CD       -17.4520  -23.3250   34.2660 C.3   225  ARG225      0.2205
    146  NE       -16.0550  -23.7580   34.2430 N.pl3 225  ARG225     -0.0865
    147  CZ       -15.1610  -23.4430   35.1750 C.cat 225  ARG225      0.5346
    148  NH1      -13.9030  -23.8220   35.0270 N.pl3 225  ARG225      0.1354
    149  NH2      -15.5000  -22.7300   36.2520 N.pl3 225  ARG225      0.1354
@<TRIPOS>BOND
     1   142   141    2
     2   141   140    1
     3   139   140    1
     4   140   143    1
     5   143   144    1
     6   136   135    2
     7   135   134    1
     8   144   145    1
     9   133   134    1
    10   134   137    1
    11   138   137    1
    12   146   145    1
    13   146   147    2
    14   148   147    1
    15   147   149    1
    16    99    96    1
    17    99   100    1
    18    95    96    1
    19    96    97    1
    20    97   101   am
    21    97    98    2
    22    39    37   ar
    23   101   102    1
    24    36    37    1
    25    36    35    1
    26   104   103    2
    27    54    55    1
    28   117   118   ar
    29   117   115   ar
    30   118   116   ar
    31    37    38   ar
    32   115   112   ar
    33    55    58    1
    34    55    56    1
    35   116   114   ar
    36   103   102    1
    37   103   105   am
    38   112   114   ar
    39   112   110   ar
    40    35    32    1
    41   114   113   ar
    42    64    63    1
    43    56    59   am
    44    56    57    2
    45   110   109    1
    46   110   111   ar
    47   109   106    1
    48   113   111   ar
    49    59    60    1
    50    32    31    1
    51    32    33    1
    52   105   106    1
    53   106   107    1
    54    34    33    2
    55    63    60    1
    56    33    40   am
    57    60    61    1
    58   107   108    2
    59    10    11    1
    60    10     7    1
    61     9     8    2
    62     8     7    1
    63    26    28   ar
    64    26    25   ar
    65    40    41    1
    66    61    62    2
    67    28    30   ar
    68    48    46   ar
    69    48    49   ar
    70    46    45   ar
    71    24    25    1
    72    24    21    1
    73     7     6    1
    74    25    27   ar
    75     6     3   am
    76    30    29   ar
    77    41    42    1
    78    41    44    1
    79   123   120    1
    80   123   124    1
    81    22    21    1
    82    22    23    2
    83     5     2    1
    84    27    29   ar
    85    21    20    1
    86    49    51   ar
    87    49    47   ar
    88   120   119    1
    89   120   121    1
    90    45    44    1
    91    45    47   ar
    92     3     4    2
    93     3     2    1
    94    42    43    2
    95    51    53   ar
    96   125   124   ar
    97   125   127   ar
    98   124   126   ar
    99     1     2    1
   100    47    50   ar
   101   122   121    2
   102    20    14   am
   103   127   128   ar
   104    53    52   ar
   105   126   129   ar
   106   126   128   ar
   107    15    14    2
   108    65    66    1
   109    14    13    1
   110    50    52   ar
   111   129   131   ar
   112   128   130   ar
   113    66    69    1
   114    66    67    1
   115    17    19    1
   116    17    16    1
   117    17    18    1
   118   131   132   ar
   119    76    75    2
   120   130   132   ar
   121    13    16    1
   122    13    12    1
   123    79    81   ar
   124    79    78   ar
   125    69    70    1
   126    94    92    1
   127    81    82   ar
   128    67    68    2
   129    77    78    1
   130    77    74    1
   131    78    80   ar
   132    90    89    2
   133    75    74    1
   134    75    87   am
   135    71    70    1
   136    70    72    1
   137    88    89    1
   138    88    87    1
   139    88    91    1
   140    82    80   ar
   141    82    84   ar
   142    74    73    1
   143    92    91    1
   144    92    93    1
   145    80    83   ar
   146    84    86   ar
   147    83    85   ar
   148    86    85   ar
