@<TRIPOS>MOLECULE
tmp/5l2iA00.pdb
 179 172 0 0 0
SMALL
GASTEIGER

@<TRIPOS>ATOM
      1  N          8.0210   23.0640   14.9400 N.3     9  GLU9       -0.1231
      2  CA         7.7110   23.6020   13.6080 C.3     9  GLU9        0.1699
      3  C          8.4710   24.9330   13.3880 C.2     9  GLU9        0.2592
      4  O          8.2110   25.9040   14.1060 O.2     9  GLU9       -0.2718
      5  CB         6.1920   23.7720   13.4560 C.3     9  GLU9        0.0402
      6  CG         5.7230   23.9520   12.0250 C.3     9  GLU9        0.1161
      7  CD         4.6190   24.9790   11.8780 C.2     9  GLU9        0.3649
      8  OE1        4.9300   26.1250   11.4790 O.co2   9  GLU9       -0.2457
      9  OE2        3.4530   24.6520   12.1980 O.co2   9  GLU9       -0.2457
     10  N          9.4320   24.9560   12.4280 N.am   10  ILE10      -0.1966
     11  CA        10.2760   26.1310   12.1360 C.3    10  ILE10       0.1727
     12  C          9.4720   27.2420   11.4480 C.2    10  ILE10       0.2616
     13  O          9.3880   28.3560   11.9710 O.2    10  ILE10      -0.2715
     14  CB        11.5890   25.7760   11.3640 C.3    10  ILE10       0.0290
     15  CG1       12.5340   24.8980   12.2110 C.3    10  ILE10       0.0022
     16  CG2       12.3110   27.0380   10.9300 C.3    10  ILE10       0.0023
     17  CD1       13.7080   24.2120   11.4140 C.3    10  ILE10       0.0001
     18  N          8.9140   26.9260   10.2830 N.am   11  GLY11      -0.1955
     19  CA         8.1200   27.8580    9.4960 C.3    11  GLY11       0.1869
     20  C          7.0340   27.1980    8.6780 C.2    11  GLY11       0.2309
     21  O          7.1410   26.0220    8.3260 O.2    11  GLY11      -0.2863
     22  N          4.8700   27.1600    0.0160 N.3    15  TYR15      -0.1241
     23  CA         5.9070   26.2020   -0.4020 C.3    15  TYR15       0.1605
     24  C          5.9380   24.9000    0.4700 C.2    15  TYR15       0.2264
     25  O          6.5760   23.9110    0.0870 O.2    15  TYR15      -0.2867
     26  CB         7.2890   26.9080   -0.4110 C.3    15  TYR15       0.0534
     27  CG         7.6750   27.5010    0.9320 C.ar   15  TYR15      -0.0201
     28  CD1        8.5030   26.8060    1.8110 C.ar   15  TYR15      -0.0009
     29  CD2        7.1910   28.7430    1.3350 C.ar   15  TYR15      -0.0009
     30  CE1        8.8290   27.3260    3.0640 C.ar   15  TYR15       0.0417
     31  CE2        7.5020   29.2680    2.5890 C.ar   15  TYR15       0.0417
     32  CZ         8.3250   28.5570    3.4490 C.ar   15  TYR15       0.1957
     33  OH         8.6430   29.0770    4.6800 O.3    15  TYR15      -0.2866
     34  N          8.3580   23.3720    7.0730 N.3    18  VAL18      -0.1245
     35  CA         9.6970   22.8870    7.4320 C.3    18  VAL18       0.1561
     36  C          9.7380   22.6690    8.9500 C.2    18  VAL18       0.2260
     37  O          9.1750   23.4750    9.6920 O.2    18  VAL18      -0.2867
     38  CB        10.7500   23.9200    6.9450 C.3    18  VAL18       0.0252
     39  CG1       10.2990   25.3390    7.2560 C.3    18  VAL18       0.0019
     40  CG2       12.1550   23.6410    7.4880 C.3    18  VAL18       0.0019
     41  N         16.9520   20.1300    9.9230 N.3    32  ALA32      -0.1245
     42  CA        15.7550   20.7450    9.3420 C.3    32  ALA32       0.1562
     43  C         15.2240   19.8940    8.1930 C.2    32  ALA32       0.2260
     44  O         15.9600   19.6230    7.2350 O.2    32  ALA32      -0.2867
     45  CB        16.0750   22.1380    8.8480 C.3    32  ALA32       0.0290
     46  N         11.8350   19.1080    5.3750 N.3    34  LYS34      -0.1245
     47  CA        10.6510   19.6000    4.6790 C.3    34  LYS34       0.1561
     48  C         10.2490   18.6300    3.5910 C.2    34  LYS34       0.2260
     49  O         11.0630   18.2390    2.7530 O.2    34  LYS34      -0.2867
     50  CB        10.8370   21.0330    4.1340 C.3    34  LYS34       0.0271
     51  CG         9.5660   21.6370    3.5100 C.3    34  LYS34       0.0035
     52  CD         9.5770   23.1700    3.4290 C.3    34  LYS34       0.0206
     53  CE        10.2660   23.7220    2.2020 C.3    34  LYS34       0.1093
     54  NZ         9.3700   23.7330    1.0160 N.3    34  LYS34      -0.1314
     55  N         23.2200   26.6330    3.5150 N.3    60  VAL60      -0.1245
     56  CA        22.8290   25.4360    4.2860 C.3    60  VAL60       0.1561
     57  C         23.2370   24.1060    3.6230 C.2    60  VAL60       0.2260
     58  O         23.0380   23.9250    2.4200 O.2    60  VAL60      -0.2867
     59  CB        21.3380   25.3790    4.6810 C.3    60  VAL60       0.0252
     60  CG1       21.0440   26.2570    5.8940 C.3    60  VAL60       0.0019
     61  CG2       20.4300   25.7030    3.4980 C.3    60  VAL60       0.0019
     62  N         18.2720   18.8390    5.8530 N.3    73  PHE73      -0.1227
     63  CA        19.3570   19.8110    5.7720 C.3    73  PHE73       0.1736
     64  C         19.9100   20.0560    7.1510 C.2    73  PHE73       0.2595
     65  O         19.3350   19.5800    8.1390 O.2    73  PHE73      -0.2718
     66  CB        18.8140   21.1760    5.2990 C.3    73  PHE73       0.0547
     67  CG        18.2360   21.3170    3.9170 C.ar   73  PHE73      -0.0202
     68  CD1       18.9860   21.8750    2.8880 C.ar   73  PHE73      -0.0042
     69  CD2       16.9170   20.9580    3.6590 C.ar   73  PHE73      -0.0042
     70  CE1       18.4410   22.0400    1.6180 C.ar   73  PHE73      -0.0003
     71  CE2       16.3690   21.1350    2.3940 C.ar   73  PHE73      -0.0003
     72  CZ        17.1350   21.6750    1.3780 C.ar   73  PHE73      -0.0000
     73  N         20.9570   20.9150    7.2290 N.am   74  GLU74      -0.1965
     74  CA        21.5150   21.3330    8.5000 C.3    74  GLU74       0.1733
     75  C         20.5700   22.2820    9.2000 C.2    74  GLU74       0.2616
     76  O         19.9510   23.1110    8.5420 O.2    74  GLU74      -0.2715
     77  CB        22.9220   21.9370    8.3610 C.3    74  GLU74       0.0429
     78  CG        23.0850   23.1340    7.4430 C.3    74  GLU74       0.1163
     79  CD        24.3230   23.9740    7.7180 C.2    74  GLU74       0.3649
     80  OE1       25.0110   24.3710    6.7460 O.co2  74  GLU74      -0.2457
     81  OE2       24.5870   24.2660    8.9090 O.co2  74  GLU74      -0.2457
     82  N         20.4100   22.1200   10.5190 N.am   75  HIS75      -0.1959
     83  CA        19.5700   22.9830   11.3160 C.3    75  HIS75       0.1787
     84  C         20.4400   24.1040   11.8520 C.2    75  HIS75       0.2620
     85  O         21.5030   23.8540   12.4190 O.2    75  HIS75      -0.2715
     86  CB        18.9290   22.1930   12.4480 C.3    75  HIS75       0.0785
     87  CG        18.0080   22.9780   13.3290 C.ar   75  HIS75       0.0821
     88  ND1       18.4560   24.0640   14.0800 N.ar   75  HIS75      -0.2267
     89  CD2       16.6980   22.7740   13.5980 C.ar   75  HIS75       0.1154
     90  CE1       17.3990   24.4930   14.7540 C.ar   75  HIS75       0.1986
     91  NE2       16.3170   23.7560   14.4920 N.ar   75  HIS75      -0.2212
     92  N         20.0020   25.3450   11.6320 N.am   76  VAL76      -0.1963
     93  CA        20.6730   26.5590   12.0990 C.3    76  VAL76       0.1727
     94  C         19.8520   27.0570   13.2860 C.2    76  VAL76       0.2616
     95  O         18.6640   26.7980   13.3730 O.2    76  VAL76      -0.2715
     96  CB        20.8650   27.6320   10.9970 C.3    76  VAL76       0.0290
     97  CG1       21.6050   28.8520   11.5340 C.3    76  VAL76       0.0023
     98  CG2       21.5910   27.0690    9.7800 C.3    76  VAL76       0.0023
     99  N         20.5020   27.7130   14.2140 N.am   77  ASP77      -0.1957
    100  CA        19.9330   28.1780   15.4650 C.3    77  ASP77       0.1840
    101  C         18.7520   29.1490   15.2590 C.2    77  ASP77       0.2622
    102  O         17.6260   28.8720   15.6900 O.2    77  ASP77      -0.2715
    103  CB        21.0730   28.7650   16.3470 C.3    77  ASP77       0.1450
    104  CG        22.2590   27.7910   16.4920 C.2    77  ASP77       0.3671
    105  OD1       22.9890   27.5680   15.4800 O.co2  77  ASP77      -0.2456
    106  OD2       22.4170   27.2010   17.5920 O.co2  77  ASP77      -0.2456
    107  N         19.0050   30.2490   14.5690 N.am   78  GLN78      -0.1963
    108  CA        18.0000   31.2730   14.3250 C.3    78  GLN78       0.1733
    109  C         18.1380   31.9180   12.9160 C.2    78  GLN78       0.2616
    110  O         19.0330   31.5380   12.1520 O.2    78  GLN78      -0.2715
    111  CB        18.0450   32.3250   15.4620 C.3    78  GLN78       0.0408
    112  CG        19.4540   32.7870   15.8400 C.3    78  GLN78       0.0908
    113  CD        19.5020   34.1480   16.4790 C.2    78  GLN78       0.2608
    114  OE1       20.1860   35.0500   15.9990 O.2    78  GLN78      -0.2717
    115  NE2       18.8060   34.3200   17.5990 N.am   78  GLN78      -0.0878
    116  N         17.2330   32.8660   12.5670 N.am   79  ASP79      -0.1971
    117  CA        17.2840   33.5820   11.2890 C.3    79  ASP79       0.1709
    118  C         17.7760   35.0050   11.5070 C.2    79  ASP79       0.2293
    119  O         18.1270   35.3470   12.6300 O.2    79  ASP79      -0.2864
    120  CB        15.9360   33.5150   10.5350 C.3    79  ASP79       0.1436
    121  CG        14.7260   34.0960   11.2550 C.2    79  ASP79       0.3671
    122  OD1       14.9150   34.9710   12.1320 O.co2  79  ASP79      -0.2456
    123  OD2       13.5820   33.6840   10.9240 O.co2  79  ASP79      -0.2456
    124  N         14.8520   37.1290   13.8620 N.3    82  THR82      -0.1218
    125  CA        14.9460   36.9850   15.3120 C.3    82  THR82       0.1862
    126  C         16.3270   37.3880   15.8180 C.2    82  THR82       0.2287
    127  O         16.4640   37.6730   17.0060 O.2    82  THR82      -0.2866
    128  CB        14.4810   35.6300   15.8120 C.3    82  THR82       0.1770
    129  OG1       15.5950   34.7690   16.0360 O.3    82  THR82      -0.2211
    130  CG2       13.4360   35.0060   14.9180 C.3    82  THR82       0.0375
    131  N         13.9400   36.3800    6.9010 N.3   124  GLN124     -0.1231
    132  CA        13.2540   35.2010    7.4260 C.3   124  GLN124      0.1698
    133  C         13.9680   33.9170    7.0570 C.2   124  GLN124      0.2592
    134  O         13.8100   32.9310    7.7790 O.2   124  GLN124     -0.2718
    135  CB        11.7800   35.1600    6.9980 C.3   124  GLN124      0.0381
    136  CG        10.9180   36.2530    7.6220 C.3   124  GLN124      0.0905
    137  CD        10.8190   37.4810    6.7360 C.2   124  GLN124      0.2608
    138  OE1       11.8080   38.1860    6.4880 O.2   124  GLN124     -0.2717
    139  NE2        9.6140   37.7730    6.2410 N.am  124  GLN124     -0.0878
    140  N         14.7910   33.9360    5.9720 N.am  125  ASN125     -0.1974
    141  CA        15.5510   32.7780    5.4530 C.3   125  ASN125      0.1688
    142  C         17.0540   33.0380    5.2820 C.2   125  ASN125      0.2292
    143  O         17.7260   32.3040    4.5490 O.2   125  ASN125     -0.2864
    144  CB        14.9350   32.2360    4.1420 C.3   125  ASN125      0.1181
    145  CG        14.7900   33.2590    3.0310 C.2   125  ASN125      0.2629
    146  OD1       15.6310   34.1580    2.8340 O.2   125  ASN125     -0.2716
    147  ND2       13.6930   33.1430    2.2950 N.am  125  ASN125     -0.0877
    148  N         19.8450   32.6410    7.5690 N.3   127  LEU127     -0.1245
    149  CA        20.0500   32.0430    8.8880 C.3   127  LEU127      0.1561
    150  C         21.3760   32.4730    9.5100 C.2   127  LEU127      0.2260
    151  O         22.2510   32.9640    8.7910 O.2   127  LEU127     -0.2867
    152  CB        19.8800   30.5180    8.8470 C.3   127  LEU127      0.0270
    153  CG        18.6090   30.0010    8.1560 C.3   127  LEU127      0.0019
    154  CD1       18.6670   28.5410    7.9150 C.3   127  LEU127      0.0001
    155  CD2       17.3670   30.3390    8.9420 C.3   127  LEU127      0.0001
    156  N         19.4630   30.0560    2.8940 N.3   137  ALA137     -0.1231
    157  CA        18.5540   28.9030    2.9000 C.3   137  ALA137      0.1694
    158  C         17.3490   29.2130    2.0150 C.2   137  ALA137      0.2592
    159  O         17.3300   30.2750    1.3990 O.2   137  ALA137     -0.2718
    160  CB        18.1040   28.5910    4.3170 C.3   137  ALA137      0.0304
    161  N         16.3610   28.2830    1.9410 N.am  138  ASP138     -0.1960
    162  CA        15.0870   28.3900    1.2200 C.3   138  ASP138      0.1840
    163  C         15.2210   28.6490   -0.3030 C.2   138  ASP138      0.2622
    164  O         14.5650   29.5640   -0.8120 O.2   138  ASP138     -0.2715
    165  CB        14.1880   29.4470    1.8950 C.3   138  ASP138      0.1450
    166  CG        12.7240   29.0790    2.0600 C.2   138  ASP138      0.3671
    167  OD1       12.4150   27.8640    2.1220 O.co2 138  ASP138     -0.2456
    168  OD2       11.8870   30.0100    2.1890 O.co2 138  ASP138     -0.2456
    169  N         16.0500   27.8280   -1.0210 N.am  139  PHE139     -0.1974
    170  CA        16.2480   27.8520   -2.4880 C.3   139  PHE139      0.1639
    171  C         16.2400   26.4000   -3.1010 C.2   139  PHE139      0.2290
    172  O         16.4800   25.4140   -2.3850 O.2   139  PHE139     -0.2864
    173  CB        17.4730   28.6890   -2.9300 C.3   139  PHE139      0.0560
    174  CG        18.8030   28.2690   -2.3580 C.ar  139  PHE139     -0.0200
    175  CD1       19.5890   27.3250   -3.0050 C.ar  139  PHE139     -0.0042
    176  CD2       19.2730   28.8160   -1.1700 C.ar  139  PHE139     -0.0042
    177  CE1       20.8030   26.9010   -2.4510 C.ar  139  PHE139     -0.0003
    178  CE2       20.4870   28.3890   -0.6140 C.ar  139  PHE139     -0.0003
    179  CZ        21.2460   27.4390   -1.2620 C.ar  139  PHE139     -0.0000
@<TRIPOS>BOND
     1   171   170    1
     2   171   172    2
     3   175   177   ar
     4   175   174   ar
     5   173   170    1
     6   173   174    1
     7   170   169    1
     8   177   179   ar
     9   174   176   ar
    10   179   178   ar
    11   176   178   ar
    12   169   163   am
    13   164   163    2
    14    26    23    1
    15    26    27    1
    16    23    22    1
    17    23    24    1
    18   163   162    1
    19    25    24    2
    20    27    29   ar
    21    27    28   ar
    22    54    53    1
    23   162   165    1
    24   162   161    1
    25    29    31   ar
    26    72    70   ar
    27    72    71   ar
    28   159   158    2
    29    70    68   ar
    30    28    30   ar
    31   165   166    1
    32   161   158   am
    33   158   157    1
    34   166   167   ar
    35   166   168   ar
    36    53    52    1
    37   147   145   am
    38    71    69   ar
    39    58    57    2
    40    31    32   ar
    41    49    48    2
    42   146   145    2
    43    68    67   ar
    44   156   157    1
    45   157   160    1
    46   145   144    1
    47    30    32   ar
    48    52    51    1
    49    32    33    1
    50    61    59    1
    51    51    50    1
    52    55    56    1
    53    48    47    1
    54    57    56    1
    55    69    67   ar
    56    67    66    1
    57    50    47    1
    58   144   141    1
    59    56    59    1
    60   143   142    2
    61    47    46    1
    62    59    60    1
    63   142   141    1
    64    66    63    1
    65   141   140    1
    66    63    62    1
    67    63    64    1
    68   140   133   am
    69   139   137   am
    70   138   137    2
    71   137   136    1
    72    80    79   ar
    73   131   132    1
    74    38    39    1
    75    38    35    1
    76    38    40    1
    77   135   132    1
    78   135   136    1
    79   133   132    1
    80   133   134    2
    81    34    35    1
    82    64    73   am
    83    64    65    2
    84    73    74    1
    85    44    43    2
    86    35    36    1
    87    78    79    1
    88    78    77    1
    89   148   149    1
    90    79    81   ar
    91   154   153    1
    92   153   152    1
    93   153   155    1
    94    43    42    1
    95    21    20    2
    96    77    74    1
    97    74    75    1
    98    76    75    2
    99    20    19    1
   100   151   150    2
   101   152   149    1
   102    45    42    1
   103   149   150    1
   104    36    37    2
   105    75    82   am
   106    42    41    1
   107    19    18    1
   108    98    96    1
   109    18    12   am
   110    82    83    1
   111   120   121    1
   112   120   117    1
   113   123   121   ar
   114    16    14    1
   115    96    97    1
   116    96    93    1
   117   121   122   ar
   118   117   118    1
   119   117   116    1
   120    83    84    1
   121    83    86    1
   122    14    11    1
   123    14    15    1
   124    17    15    1
   125    12    13    2
   126    12    11    1
   127     8     7   ar
   128   118   119    2
   129    92    84   am
   130    92    93    1
   131    84    85    2
   132     7     6    1
   133     7     9   ar
   134     6     5    1
   135    93    94    1
   136    11    10    1
   137   110   109    2
   138    10     3   am
   139    86    87    1
   140   116   109   am
   141   109   108    1
   142    94    95    2
   143    94    99   am
   144    87    89   ar
   145    87    88   ar
   146     3     2    1
   147     3     4    2
   148     5     2    1
   149    89    91   ar
   150     2     1    1
   151   124   125    1
   152    88    90   ar
   153    99   100    1
   154   108   107    1
   155   108   111    1
   156    91    90   ar
   157   107   101   am
   158   130   128    1
   159   101   100    1
   160   101   102    2
   161   125   128    1
   162   125   126    1
   163   111   112    1
   164   100   103    1
   165   105   104   ar
   166   128   129    1
   167   126   127    2
   168   112   113    1
   169   114   113    2
   170   103   104    1
   171   113   115   am
   172   104   106   ar
