@<TRIPOS>MOLECULE
tmp/5l2mA00.pdb
 151 146 0 0 0
SMALL
GASTEIGER

@<TRIPOS>ATOM
      1  N         37.9240  -25.5960   11.3600 N.3   114  ASN114     -0.1240
      2  CA        38.2680  -24.1910   11.4930 C.3   114  ASN114      0.1653
      3  C         39.6270  -23.9260   12.1050 C.2   114  ASN114      0.2266
      4  O         40.4430  -23.2990   11.4720 O.2   114  ASN114     -0.2867
      5  CB        37.1860  -23.4430   12.2570 C.3   114  ASN114      0.1155
      6  CG        35.8400  -23.5670   11.5900 C.2   114  ASN114      0.2627
      7  OD1       35.7360  -23.5490   10.3560 O.2   114  ASN114     -0.2716
      8  ND2       34.7940  -23.6690   12.3930 N.am  114  ASN114     -0.0877
      9  N         42.1740  -20.2740   21.9430 N.3   164  PHE164     -0.1241
     10  CA        42.5930  -20.8130   20.6350 C.3   164  PHE164      0.1605
     11  C         44.0720  -21.1660   20.7040 C.2   164  PHE164      0.2264
     12  O         44.9310  -20.3930   20.2530 O.2   164  PHE164     -0.2867
     13  CB        42.3330  -19.7900   19.5190 C.3   164  PHE164      0.0534
     14  CG        40.8790  -19.5010   19.3120 C.ar  164  PHE164     -0.0203
     15  CD1       40.2510  -18.5120   20.0480 C.ar  164  PHE164     -0.0042
     16  CD2       40.1420  -20.2290   18.3850 C.ar  164  PHE164     -0.0042
     17  CE1       38.9090  -18.2600   19.8750 C.ar  164  PHE164     -0.0003
     18  CE2       38.7870  -19.9760   18.2140 C.ar  164  PHE164     -0.0003
     19  CZ        38.1750  -19.0030   18.9640 C.ar  164  PHE164     -0.0000
     20  N         45.8170  -21.8940   17.0180 N.3   167  VAL167     -0.1231
     21  CA        45.7110  -20.7360   16.1440 C.3   167  VAL167      0.1692
     22  C         46.5530  -19.5580   16.6540 C.2   167  VAL167      0.2591
     23  O         47.2010  -18.8860   15.8650 O.2   167  VAL167     -0.2718
     24  CB        44.2280  -20.3230   15.9400 C.3   167  VAL167      0.0266
     25  CG1       44.1100  -18.9550   15.2770 C.3   167  VAL167      0.0020
     26  CG2       43.5070  -21.3820   15.1070 C.3   167  VAL167      0.0020
     27  N         46.5430  -19.3120   17.9630 N.am  168  MET168     -0.1979
     28  CA        47.2810  -18.1910   18.5390 C.3   168  MET168      0.1605
     29  C         48.7740  -18.4870   18.6410 C.2   168  MET168      0.2287
     30  O         49.5910  -17.5820   18.4850 O.2   168  MET168     -0.2864
     31  CB        46.7160  -17.8280   19.8940 C.3   168  MET168      0.0413
     32  CG        45.3160  -17.2610   19.7880 C.3   168  MET168      0.0598
     33  SD        45.2340  -15.7670   18.7930 S.3   168  MET168     -0.1393
     34  CE        46.3760  -14.7750   19.7470 C.3   168  MET168      0.0692
     35  N         49.6570  -17.6210   15.0950 N.3   171  TRP171     -0.1241
     36  CA        49.6060  -16.1600   14.9190 C.3   171  TRP171      0.1605
     37  C         50.8510  -15.4650   15.4360 C.2   171  TRP171      0.2264
     38  O         51.2560  -14.4210   14.8920 O.2   171  TRP171     -0.2867
     39  CB        48.4000  -15.5690   15.6340 C.3   171  TRP171      0.0550
     40  CG        47.1440  -15.6370   14.8420 C.ar  171  TRP171      0.0003
     41  CD1       46.7630  -16.6220   13.9670 C.ar  171  TRP171      0.0946
     42  CD2       46.0830  -14.6960   14.8790 C.ar  171  TRP171      0.0152
     43  NE1       45.5230  -16.3430   13.4600 N.ar  171  TRP171     -0.2442
     44  CE2       45.0830  -15.1600   13.9960 C.ar  171  TRP171      0.0810
     45  CE3       45.8830  -13.5000   15.5710 C.ar  171  TRP171      0.0012
     46  CZ2       43.8900  -14.4600   13.7820 C.ar  171  TRP171      0.0191
     47  CZ3       44.6830  -12.7770   15.3550 C.ar  171  TRP171      0.0001
     48  CH2       43.7120  -13.2690   14.4640 C.ar  171  TRP171      0.0015
     49  N         46.9850   -8.1160   22.6300 N.3   262  GLU262     -0.1245
     50  CA        45.6480   -8.3130   22.0910 C.3   262  GLU262      0.1567
     51  C         44.7900   -8.7460   23.2600 C.2   262  GLU262      0.2260
     52  O         44.9930   -9.8240   23.8200 O.2   262  GLU262     -0.2867
     53  CB        45.6270   -9.3570   20.9770 C.3   262  GLU262      0.0388
     54  CG        44.3270   -9.3360   20.1690 C.3   262  GLU262      0.1160
     55  CD        43.1530  -10.0330   20.8720 C.2   262  GLU262      0.3649
     56  OE1       43.1650  -11.2760   21.0020 O.co2 262  GLU262     -0.2457
     57  OE2       42.1890   -9.3530   21.2750 O.co2 262  GLU262     -0.2457
     58  N         21.6790  -14.2940   12.4850 N.3   282  GLU282     -0.1231
     59  CA        22.5540  -15.4530   12.3920 C.3   282  GLU282      0.1699
     60  C         23.9950  -15.0630   12.7580 C.2   282  GLU282      0.2592
     61  O         24.6330  -15.7350   13.5650 O.2   282  GLU282     -0.2718
     62  CB        22.4200  -16.0760   10.9980 C.3   282  GLU282      0.0402
     63  CG        23.2650  -17.3120   10.7180 C.3   282  GLU282      0.1161
     64  CD        22.8810  -18.5800   11.4630 C.2   282  GLU282      0.3649
     65  OE1       21.7880  -18.7160   12.1040 O.co2 282  GLU282     -0.2457
     66  OE2       23.7190  -19.5090   11.3820 O.co2 282  GLU282     -0.2457
     67  N         24.4750  -13.9510   12.2070 N.am  283  PHE283     -0.1976
     68  CA        25.8540  -13.5070   12.4580 C.3   283  PHE283      0.1639
     69  C         26.0510  -12.9810   13.8810 C.2   283  PHE283      0.2290
     70  O         27.0230  -13.2980   14.5380 O.2   283  PHE283     -0.2864
     71  CB        26.2760  -12.4590   11.4300 C.3   283  PHE283      0.0560
     72  CG        26.8990  -13.0440   10.1890 C.ar  283  PHE283     -0.0200
     73  CD1       28.1530  -13.6210   10.2570 C.ar  283  PHE283     -0.0042
     74  CD2       26.2650  -12.9590    8.9520 C.ar  283  PHE283     -0.0042
     75  CE1       28.7630  -14.1260    9.1210 C.ar  283  PHE283     -0.0003
     76  CE2       26.8590  -13.4680    7.8130 C.ar  283  PHE283     -0.0003
     77  CZ        28.1200  -14.0480    7.9030 C.ar  283  PHE283     -0.0000
     78  N         26.0430  -16.2750   16.2270 N.3   286  HIS286     -0.1226
     79  CA        27.3160  -16.9750   16.1770 C.3   286  HIS286      0.1752
     80  C         28.4640  -16.0650   16.6280 C.2   286  HIS286      0.2596
     81  O         29.4190  -16.5270   17.2300 O.2   286  HIS286     -0.2718
     82  CB        27.5390  -17.5310   14.7730 C.3   286  HIS286      0.0759
     83  CG        26.6830  -18.7200   14.4610 C.ar  286  HIS286      0.0818
     84  ND1       26.8970  -19.9590   15.0280 N.ar  286  HIS286     -0.2268
     85  CD2       25.6230  -18.8630   13.6340 C.ar  286  HIS286      0.1154
     86  CE1       26.0100  -20.8160   14.5610 C.ar  286  HIS286      0.1986
     87  NE2       25.2270  -20.1790   13.7090 N.ar  286  HIS286     -0.2212
     88  N         28.3200  -14.7760   16.3570 N.am  287  GLY287     -0.1957
     89  CA        29.2200  -13.7280   16.8350 C.3   287  GLY287      0.1869
     90  C         29.4530  -13.6690   18.3350 C.2   287  GLY287      0.2309
     91  O         30.5430  -13.3020   18.7540 O.2   287  GLY287     -0.2863
     92  N         30.1380  -18.1870   19.6570 N.3   290  TYR290     -0.1241
     93  CA        31.2430  -18.9980   19.1400 C.3   290  TYR290      0.1605
     94  C         32.1880  -19.4470   20.2680 C.2   290  TYR290      0.2264
     95  O         32.5070  -18.6870   21.1820 O.2   290  TYR290     -0.2867
     96  CB        32.0120  -18.2650   18.0210 C.3   290  TYR290      0.0534
     97  CG        32.8230  -19.2400   17.1970 C.ar  290  TYR290     -0.0201
     98  CD1       32.2190  -19.9860   16.1970 C.ar  290  TYR290     -0.0009
     99  CD2       34.1630  -19.4720   17.4700 C.ar  290  TYR290     -0.0009
    100  CE1       32.9330  -20.9080   15.4620 C.ar  290  TYR290      0.0417
    101  CE2       34.9010  -20.3910   16.7250 C.ar  290  TYR290      0.0417
    102  CZ        34.2680  -21.1160   15.7300 C.ar  290  TYR290      0.1957
    103  OH        34.9530  -22.0310   14.9670 O.3   290  TYR290     -0.2866
    104  N         35.5010  -15.8540   22.9080 N.3   295  CYS295     -0.1235
    105  CA        36.3130  -15.0910   21.9720 C.3   295  CYS295      0.1677
    106  C         36.4320  -13.6480   22.4100 C.2   295  CYS295      0.2270
    107  O         35.4580  -13.0440   22.8610 O.2   295  CYS295     -0.2867
    108  CB        35.7150  -15.0860   20.5630 C.3   295  CYS295      0.0956
    109  SG        35.4950  -16.6920   19.7740 S.3   295  CYS295     -0.0801
    110  N         36.5630  -11.1800   20.5450 N.3   296  ILE296     -0.1245
    111  CA        35.6510  -10.4000   19.6890 C.3   296  ILE296      0.1561
    112  C         34.1570  -10.6870   19.9040 C.2   296  ILE296      0.2260
    113  O         33.3220  -10.1910   19.1420 O.2   296  ILE296     -0.2867
    114  CB        35.9640  -10.6260   18.1980 C.3   296  ILE296      0.0252
    115  CG1       35.8220  -12.1060   17.8070 C.3   296  ILE296      0.0019
    116  CG2       37.3910  -10.1570   17.8970 C.3   296  ILE296      0.0019
    117  CD1       35.6410  -12.3500   16.3230 C.3   296  ILE296      0.0001
    118  N         30.0770  -11.0010   10.6290 N.3   449  TYR449     -0.1227
    119  CA        30.7300  -10.9580   11.9260 C.3   449  TYR449      0.1736
    120  C         31.7040  -12.1220   12.0550 C.2   449  TYR449      0.2596
    121  O         31.5010  -13.2190   11.4850 O.2   449  TYR449     -0.2718
    122  CB        29.7040  -10.9360   13.0900 C.3   449  TYR449      0.0548
    123  CG        30.2930  -10.3030   14.3170 C.ar  449  TYR449     -0.0200
    124  CD1       31.0700  -11.0400   15.1950 C.ar  449  TYR449     -0.0009
    125  CD2       30.1440   -8.9280   14.5550 C.ar  449  TYR449     -0.0009
    126  CE1       31.6840  -10.4560   16.2890 C.ar  449  TYR449      0.0417
    127  CE2       30.7420   -8.3390   15.6520 C.ar  449  TYR449      0.0417
    128  CZ        31.4870   -9.1030   16.5340 C.ar  449  TYR449      0.1957
    129  OH        32.0840   -8.5120   17.6260 O.3   449  TYR449     -0.2866
    130  N         32.8240  -11.8650   12.7300 N.am  450  GLY450     -0.1957
    131  CA        33.7780  -12.9090   13.0730 C.3   450  GLY450      0.1869
    132  C         34.5920  -13.4440   11.8990 C.2   450  GLY450      0.2309
    133  O         35.1470  -14.5430   11.9850 O.2   450  GLY450     -0.2863
    134  N         37.7260  -13.5600   10.0120 N.3   452  VAL452     -0.1245
    135  CA        39.1360  -13.3450   10.3390 C.3   452  VAL452      0.1561
    136  C         39.9160  -14.1490    9.3010 C.2   452  VAL452      0.2260
    137  O         39.5220  -15.2600    8.9610 O.2   452  VAL452     -0.2867
    138  CB        39.3840  -13.7890   11.7980 C.3   452  VAL452      0.0252
    139  CG1       40.8420  -13.9570   12.1140 C.3   452  VAL452      0.0019
    140  CG2       38.7800  -12.7520   12.7500 C.3   452  VAL452      0.0019
    141  N         44.7190   -7.3920   12.3700 N.3   458  PHE458     -0.1241
    142  CA        43.7620   -7.6390   13.4150 C.3   458  PHE458      0.1605
    143  C         44.3670   -7.0770   14.7020 C.2   458  PHE458      0.2264
    144  O         45.5260   -7.3390   15.0350 O.2   458  PHE458     -0.2867
    145  CB        43.4690   -9.1530   13.5390 C.3   458  PHE458      0.0534
    146  CG        42.5090   -9.5150   14.6500 C.ar  458  PHE458     -0.0203
    147  CD1       42.9560   -9.7110   15.9410 C.ar  458  PHE458     -0.0042
    148  CD2       41.1520   -9.6390   14.3940 C.ar  458  PHE458     -0.0042
    149  CE1       42.0640  -10.0200   16.9580 C.ar  458  PHE458     -0.0003
    150  CE2       40.2730   -9.9730   15.4000 C.ar  458  PHE458     -0.0003
    151  CZ        40.7300  -10.1610   16.6810 C.ar  458  PHE458     -0.0000
@<TRIPOS>BOND
     1    76    77   ar
     2    76    74   ar
     3    77    75   ar
     4    74    72   ar
     5   137   136    2
     6    75    73   ar
     7   136   135    1
     8   134   135    1
     9    72    73   ar
    10    72    71    1
    11   135   138    1
    12     7     6    2
    13   118   119    1
    14    63    62    1
    15    63    64    1
    16    62    59    1
    17     1     2    1
    18    66    64   ar
    19    71    68    1
    20    64    65   ar
    21     4     3    2
    22   121   120    2
    23     2     3    1
    24     2     5    1
    25     6     5    1
    26     6     8   am
    27   138   139    1
    28   138   140    1
    29   132   133    2
    30   132   131    1
    31   119   120    1
    32   119   122    1
    33   120   130   am
    34    67    68    1
    35    67    60   am
    36   141   142    1
    37    59    58    1
    38    59    60    1
    39    68    69    1
    40   130   131    1
    41    60    61    2
    42   122   123    1
    43   142   145    1
    44   142   143    1
    45    43    41   ar
    46    43    44   ar
    47   145   146    1
    48    85    87   ar
    49    85    83   ar
    50    87    86   ar
    51    46    44   ar
    52    46    48   ar
    53    69    70    2
    54    41    40   ar
    55    44    42   ar
    56   123   125   ar
    57   123   124   ar
    58   148   146   ar
    59   148   150   ar
    60    83    82    1
    61    83    84   ar
    62    48    47   ar
    63   125   127   ar
    64    86    84   ar
    65   146   147   ar
    66   143   144    2
    67    82    79    1
    68    40    42   ar
    69    40    39    1
    70    42    45   ar
    71    38    37    2
    72    36    35    1
    73    36    37    1
    74    36    39    1
    75   103   102    1
    76    26    24    1
    77   124   126   ar
    78    25    24    1
    79    47    45   ar
    80   150   151   ar
    81   100   102   ar
    82   100    98   ar
    83   127   128   ar
    84   102   101   ar
    85    23    22    2
    86    24    21    1
    87   147   149   ar
    88    21    22    1
    89    21    20    1
    90    79    78    1
    91    79    80    1
    92    98    97   ar
    93   126   128   ar
    94   117   115    1
    95    88    80   am
    96    88    89    1
    97   128   129    1
    98    80    81    2
    99    22    27   am
   100   151   149   ar
   101   101    99   ar
   102    89    90    1
   103    97    99   ar
   104    97    96    1
   105   115   114    1
   106   116   114    1
   107    27    28    1
   108    96    93    1
   109   114   111    1
   110    18    16   ar
   111    18    19   ar
   112    90    91    2
   113    16    14   ar
   114    30    29    2
   115    28    29    1
   116    28    31    1
   117    33    34    1
   118    33    32    1
   119    19    17   ar
   120    93    92    1
   121    93    94    1
   122   113   112    2
   123    14    13    1
   124    14    15   ar
   125    13    10    1
   126   111   112    1
   127   111   110    1
   128   109   108    1
   129    32    31    1
   130    17    15   ar
   131    54    55    1
   132    54    53    1
   133    12    11    2
   134    94    95    2
   135   108   105    1
   136    10    11    1
   137    10     9    1
   138    55    56   ar
   139    55    57   ar
   140    53    50    1
   141   105   106    1
   142   105   104    1
   143    50    49    1
   144    50    51    1
   145   106   107    2
   146    51    52    2
