@<TRIPOS>MOLECULE
tmp/5l2nA00.pdb
 158 153 0 0 0
SMALL
GASTEIGER

@<TRIPOS>ATOM
      1  N         37.7960  -25.6610   11.3990 N.3   114  ASN114     -0.1225
      2  CA        38.0930  -24.2470   11.5130 C.3   114  ASN114      0.1785
      3  C         39.4580  -23.9680   12.0960 C.2   114  ASN114      0.2597
      4  O         40.2900  -23.3890   11.4040 O.2   114  ASN114     -0.2718
      5  CB        37.0120  -23.5210   12.2820 C.3   114  ASN114      0.1169
      6  CG        35.6420  -23.8140   11.7360 C.2   114  ASN114      0.2627
      7  OD1       35.4640  -24.1150   10.5540 O.2   114  ASN114     -0.2716
      8  ND2       34.6630  -23.7400   12.5960 N.am  114  ASN114     -0.0877
      9  N         39.6980  -24.3850   13.3390 N.am  115  ASP115     -0.1974
     10  CA        40.9660  -24.0770   14.0080 C.3   115  ASP115      0.1709
     11  C         42.1360  -24.6230   13.2080 C.2   115  ASP115      0.2293
     12  O         43.1010  -23.8970   12.9050 O.2   115  ASP115     -0.2864
     13  CB        41.0280  -24.6450   15.4380 C.3   115  ASP115      0.1436
     14  CG        40.1450  -23.8850   16.4100 C.2   115  ASP115      0.3671
     15  OD1       38.9300  -23.9090   16.1730 O.co2 115  ASP115     -0.2456
     16  OD2       40.6520  -23.3100   17.4050 O.co2 115  ASP115     -0.2456
     17  N         41.9440  -20.0010   24.7550 N.3   163  ASN163     -0.1225
     18  CA        40.7330  -20.1160   23.9430 C.3   163  ASN163      0.1785
     19  C         40.9870  -20.7090   22.5460 C.2   163  ASN163      0.2597
     20  O         40.2090  -21.5120   22.0510 O.2   163  ASN163     -0.2718
     21  CB        39.9130  -18.8170   23.9320 C.3   163  ASN163      0.1169
     22  CG        40.6770  -17.6090   23.3880 C.2   163  ASN163      0.2627
     23  OD1       41.9210  -17.5940   23.2770 O.2   163  ASN163     -0.2716
     24  ND2       39.9170  -16.5690   23.0490 N.am  163  ASN163     -0.0877
     25  N         42.0980  -20.3300   21.9230 N.am  164  PHE164     -0.1976
     26  CA        42.4820  -20.8670   20.6160 C.3   164  PHE164      0.1639
     27  C         43.9610  -21.2020   20.6790 C.2   164  PHE164      0.2290
     28  O         44.8120  -20.4180   20.1930 O.2   164  PHE164     -0.2864
     29  CB        42.2030  -19.8490   19.4990 C.3   164  PHE164      0.0560
     30  CG        40.7450  -19.5470   19.3240 C.ar  164  PHE164     -0.0200
     31  CD1       40.1350  -18.6120   20.1230 C.ar  164  PHE164     -0.0042
     32  CD2       39.9990  -20.2140   18.3720 C.ar  164  PHE164     -0.0042
     33  CE1       38.7840  -18.3450   19.9920 C.ar  164  PHE164     -0.0003
     34  CE2       38.6490  -19.9630   18.2340 C.ar  164  PHE164     -0.0003
     35  CZ        38.0410  -19.0180   19.0420 C.ar  164  PHE164     -0.0000
     36  N         45.7100  -21.9200   17.0160 N.3   167  VAL167     -0.1231
     37  CA        45.6010  -20.7640   16.1230 C.3   167  VAL167      0.1692
     38  C         46.4480  -19.5790   16.6310 C.2   167  VAL167      0.2591
     39  O         47.1300  -18.9220   15.8460 O.2   167  VAL167     -0.2718
     40  CB        44.1110  -20.3350   15.9300 C.3   167  VAL167      0.0266
     41  CG1       44.0060  -19.0200   15.1740 C.3   167  VAL167      0.0020
     42  CG2       43.3390  -21.4070   15.1740 C.3   167  VAL167      0.0020
     43  N         46.4100  -19.3200   17.9400 N.am  168  MET168     -0.1979
     44  CA        47.1100  -18.1760   18.5280 C.3   168  MET168      0.1605
     45  C         48.6040  -18.4080   18.6200 C.2   168  MET168      0.2287
     46  O         49.3940  -17.4700   18.4940 O.2   168  MET168     -0.2864
     47  CB        46.5590  -17.8510   19.9140 C.3   168  MET168      0.0413
     48  CG        45.1290  -17.3650   19.8970 C.3   168  MET168      0.0598
     49  SD        45.0420  -15.6950   19.2590 S.3   168  MET168     -0.1393
     50  CE        44.7190  -15.9590   17.5190 C.3   168  MET168      0.0692
     51  N         49.5220  -17.6830   15.1050 N.3   171  TRP171     -0.1241
     52  CA        49.4080  -16.2220   14.8740 C.3   171  TRP171      0.1605
     53  C         50.6080  -15.4750   15.4300 C.2   171  TRP171      0.2264
     54  O         51.0100  -14.4420   14.8840 O.2   171  TRP171     -0.2867
     55  CB        48.0700  -15.6310   15.3880 C.3   171  TRP171      0.0550
     56  CG        47.0160  -15.7450   14.3170 C.ar  171  TRP171      0.0003
     57  CD1       46.6260  -16.8890   13.6810 C.ar  171  TRP171      0.0946
     58  CD2       46.2680  -14.6860   13.7190 C.ar  171  TRP171      0.0152
     59  NE1       45.6750  -16.6170   12.7310 N.ar  171  TRP171     -0.2442
     60  CE2       45.4400  -15.2670   12.7270 C.ar  171  TRP171      0.0810
     61  CE3       46.2170  -13.3030   13.9150 C.ar  171  TRP171      0.0012
     62  CZ2       44.5660  -14.5120   11.9440 C.ar  171  TRP171      0.0191
     63  CZ3       45.3510  -12.5600   13.1440 C.ar  171  TRP171      0.0001
     64  CH2       44.5460  -13.1620   12.1530 C.ar  171  TRP171      0.0015
     65  N         24.4580  -13.9550   12.2110 N.3   283  PHE283     -0.1241
     66  CA        25.8220  -13.5230   12.4600 C.3   283  PHE283      0.1605
     67  C         26.0030  -12.9660   13.8650 C.2   283  PHE283      0.2264
     68  O         27.0300  -13.1660   14.4940 O.2   283  PHE283     -0.2867
     69  CB        26.2610  -12.4850   11.4280 C.3   283  PHE283      0.0534
     70  CG        26.9130  -13.0830   10.2100 C.ar  283  PHE283     -0.0203
     71  CD1       28.1740  -13.6460   10.3100 C.ar  283  PHE283     -0.0042
     72  CD2       26.3140  -13.0050    8.9550 C.ar  283  PHE283     -0.0042
     73  CE1       28.8150  -14.1690    9.1900 C.ar  283  PHE283     -0.0003
     74  CE2       26.9400  -13.5270    7.8330 C.ar  283  PHE283     -0.0003
     75  CZ        28.1980  -14.1100    7.9540 C.ar  283  PHE283     -0.0000
     76  N         25.9530  -16.2590   16.1640 N.3   286  HIS286     -0.1226
     77  CA        27.2320  -16.9710   16.1080 C.3   286  HIS286      0.1752
     78  C         28.3600  -16.0570   16.5960 C.2   286  HIS286      0.2596
     79  O         29.3250  -16.5110   17.2230 O.2   286  HIS286     -0.2718
     80  CB        27.4930  -17.5150   14.6950 C.3   286  HIS286      0.0759
     81  CG        26.6720  -18.7280   14.3710 C.ar  286  HIS286      0.0818
     82  ND1       26.9970  -19.9890   14.8220 N.ar  286  HIS286     -0.2268
     83  CD2       25.5120  -18.8640   13.6870 C.ar  286  HIS286      0.1154
     84  CE1       26.0870  -20.8540   14.4110 C.ar  286  HIS286      0.1986
     85  NE2       25.1830  -20.1990   13.7050 N.ar  286  HIS286     -0.2212
     86  N         28.2020  -14.7710   16.3210 N.am  287  GLY287     -0.1957
     87  CA        29.1130  -13.7270   16.7820 C.3   287  GLY287      0.1869
     88  C         29.4320  -13.6910   18.2650 C.2   287  GLY287      0.2309
     89  O         30.5360  -13.3030   18.6490 O.2   287  GLY287     -0.2863
     90  N         29.9940  -18.2520   19.6340 N.3   290  TYR290     -0.1241
     91  CA        31.0550  -19.1270   19.1040 C.3   290  TYR290      0.1605
     92  C         32.0600  -19.5480   20.2030 C.2   290  TYR290      0.2264
     93  O         32.4220  -18.7550   21.0790 O.2   290  TYR290     -0.2867
     94  CB        31.7590  -18.4830   17.9020 C.3   290  TYR290      0.0534
     95  CG        32.6450  -19.4640   17.1540 C.ar  290  TYR290     -0.0201
     96  CD1       32.1080  -20.3140   16.1950 C.ar  290  TYR290     -0.0009
     97  CD2       34.0250  -19.5340   17.4050 C.ar  290  TYR290     -0.0009
     98  CE1       32.9170  -21.2130   15.5110 C.ar  290  TYR290      0.0417
     99  CE2       34.8410  -20.4390   16.7170 C.ar  290  TYR290      0.0417
    100  CZ        34.2780  -21.2630   15.7750 C.ar  290  TYR290      0.1957
    101  OH        35.0530  -22.1440   15.0840 O.3   290  TYR290     -0.2866
    102  N         35.5740  -15.8100   23.0660 N.3   295  CYS295     -0.1235
    103  CA        36.1700  -15.0750   21.9830 C.3   295  CYS295      0.1677
    104  C         36.3440  -13.6360   22.3960 C.2   295  CYS295      0.2270
    105  O         35.4040  -12.9990   22.8820 O.2   295  CYS295     -0.2867
    106  CB        35.2590  -15.1490   20.7610 C.3   295  CYS295      0.0956
    107  SG        35.2350  -16.8200   20.0530 S.3   295  CYS295     -0.0801
    108  N         36.4970  -11.1440   20.5530 N.3   296  ILE296     -0.1245
    109  CA        35.6430  -10.3150   19.6860 C.3   296  ILE296      0.1561
    110  C         34.1450  -10.5590   19.8780 C.2   296  ILE296      0.2260
    111  O         33.3280  -10.0040   19.1300 O.2   296  ILE296     -0.2867
    112  CB        35.9400  -10.5460   18.1770 C.3   296  ILE296      0.0252
    113  CG1       35.8190  -12.0330   17.7880 C.3   296  ILE296      0.0019
    114  CG2       37.3400  -10.0570   17.8090 C.3   296  ILE296      0.0019
    115  CD1       35.4450  -12.2390   16.3320 C.3   296  ILE296      0.0001
    116  N         30.0430  -10.9530   10.6610 N.3   449  TYR449     -0.1227
    117  CA        30.6860  -10.8680   11.9630 C.3   449  TYR449      0.1736
    118  C         31.6740  -12.0130   12.0870 C.2   449  TYR449      0.2596
    119  O         31.4570  -13.1220   11.5370 O.2   449  TYR449     -0.2718
    120  CB        29.6900  -10.8830   13.1500 C.3   449  TYR449      0.0548
    121  CG        30.2930  -10.2510   14.3900 C.ar  449  TYR449     -0.0200
    122  CD1       31.0820  -10.9870   15.2620 C.ar  449  TYR449     -0.0009
    123  CD2       30.1590   -8.8710   14.6280 C.ar  449  TYR449     -0.0009
    124  CE1       31.6990  -10.3950   16.3590 C.ar  449  TYR449      0.0417
    125  CE2       30.7570   -8.2830   15.7240 C.ar  449  TYR449      0.0417
    126  CZ        31.5130   -9.0330   16.5930 C.ar  449  TYR449      0.1957
    127  OH        32.1000   -8.4260   17.6900 O.3   449  TYR449     -0.2866
    128  N         32.7890  -11.7390   12.7610 N.am  450  GLY450     -0.1957
    129  CA        33.7650  -12.7890   13.0950 C.3   450  GLY450      0.1869
    130  C         34.6300  -13.3040   11.9500 C.2   450  GLY450      0.2309
    131  O         35.2380  -14.3630   12.0960 O.2   450  GLY450     -0.2863
    132  N         37.7430  -13.4120   10.0190 N.3   452  VAL452     -0.1245
    133  CA        39.1240  -13.1640   10.3890 C.3   452  VAL452      0.1561
    134  C         39.9570  -14.0640    9.4630 C.2   452  VAL452      0.2260
    135  O         39.5420  -15.1850    9.1430 O.2   452  VAL452     -0.2867
    136  CB        39.2470  -13.4790   11.9070 C.3   452  VAL452      0.0252
    137  CG1       40.5810  -14.0340   12.2980 C.3   452  VAL452      0.0019
    138  CG2       38.8990  -12.2600   12.7450 C.3   452  VAL452      0.0019
    139  N         44.7590   -7.4210   12.4090 N.3   458  PHE458     -0.1241
    140  CA        43.8110   -7.5720   13.4750 C.3   458  PHE458      0.1605
    141  C         44.3910   -7.1040   14.8170 C.2   458  PHE458      0.2264
    142  O         45.5170   -7.4630   15.2080 O.2   458  PHE458     -0.2867
    143  CB        43.3430   -9.0370   13.5820 C.3   458  PHE458      0.0534
    144  CG        42.3480   -9.2570   14.6790 C.ar  458  PHE458     -0.0203
    145  CD1       40.9950   -9.0990   14.4350 C.ar  458  PHE458     -0.0042
    146  CD2       42.7730   -9.5590   15.9680 C.ar  458  PHE458     -0.0042
    147  CE1       40.0690   -9.2650   15.4720 C.ar  458  PHE458     -0.0003
    148  CE2       41.8610   -9.7290   17.0010 C.ar  458  PHE458     -0.0003
    149  CZ        40.5140   -9.5930   16.7480 C.ar  458  PHE458     -0.0000
    150  N         48.2140   -7.7540   14.4890 N.3   469  GLU469     -0.1245
    151  CA        48.7640   -9.0470   14.1230 C.3   469  GLU469      0.1567
    152  C         48.2840   -9.4180   12.7320 C.2   469  GLU469      0.2260
    153  O         47.1320   -9.1370   12.3510 O.2   469  GLU469     -0.2867
    154  CB        48.3370  -10.1080   15.1070 C.3   469  GLU469      0.0388
    155  CG        48.9870   -9.9640   16.4680 C.3   469  GLU469      0.1160
    156  CD        48.7230  -11.1740   17.3560 C.2   469  GLU469      0.3649
    157  OE1       47.7490  -11.8990   17.0980 O.co2 469  GLU469     -0.2457
    158  OE2       49.4950  -11.4250   18.2960 O.co2 469  GLU469     -0.2457
@<TRIPOS>BOND
     1    74    75   ar
     2    74    72   ar
     3    75    73   ar
     4    72    70   ar
     5   135   134    2
     6    73    71   ar
     7   134   133    1
     8   132   133    1
     9    70    71   ar
    10    70    69    1
    11   133   136    1
    12     7     6    2
    13   116   117    1
    14     1     2    1
    15     4     3    2
    16    69    66    1
    17     2     3    1
    18     2     5    1
    19   119   118    2
    20     6     5    1
    21     6     8   am
    22   136   137    1
    23   136   138    1
    24    62    64   ar
    25    62    60   ar
    26   130   131    2
    27   130   129    1
    28   117   118    1
    29   117   120    1
    30   118   128   am
    31     3     9   am
    32    64    63   ar
    33    65    66    1
    34   153   152    2
    35   139   140    1
    36    66    67    1
    37    60    59   ar
    38    60    58   ar
    39    59    57   ar
    40   152   151    1
    41   128   129    1
    42    12    11    2
    43    63    61   ar
    44   120   121    1
    45    11    10    1
    46     9    10    1
    47   140   143    1
    48   140   141    1
    49   143   144    1
    50    57    56   ar
    51    83    85   ar
    52    83    81   ar
    53    85    84   ar
    54    58    61   ar
    55    58    56   ar
    56    67    68    2
    57    10    13    1
    58   151   150    1
    59   151   154    1
    60    56    55    1
    61    81    80    1
    62    81    82   ar
    63   121   123   ar
    64   121   122   ar
    65    84    82   ar
    66   145   144   ar
    67   145   147   ar
    68   123   125   ar
    69   144   146   ar
    70    80    77    1
    71   141   142    2
    72    52    51    1
    73    52    55    1
    74    52    53    1
    75    54    53    2
    76   101   100    1
    77   154   155    1
    78    41    40    1
    79    42    40    1
    80   122   124   ar
    81    13    14    1
    82   147   149   ar
    83    98   100   ar
    84    98    96   ar
    85   125   126   ar
    86   100    99   ar
    87    39    38    2
    88    40    37    1
    89   146   148   ar
    90    77    76    1
    91    77    78    1
    92    37    38    1
    93    37    36    1
    94    15    14   ar
    95    96    95   ar
    96    86    78   am
    97    86    87    1
    98   115   113    1
    99   124   126   ar
   100    14    16   ar
   101   155   156    1
   102   126   127    1
   103    78    79    2
   104    38    43   am
   105    99    97   ar
   106   149   148   ar
   107    87    88    1
   108   157   156   ar
   109    95    97   ar
   110    95    94    1
   111   156   158   ar
   112    50    49    1
   113   113   112    1
   114   114   112    1
   115    94    91    1
   116    43    44    1
   117   112   109    1
   118    34    32   ar
   119    34    35   ar
   120    88    89    2
   121    32    30   ar
   122    46    45    2
   123    44    45    1
   124    44    47    1
   125    35    33   ar
   126    91    90    1
   127    91    92    1
   128   111   110    2
   129    49    48    1
   130    30    29    1
   131    30    31   ar
   132    29    26    1
   133   109   110    1
   134   109   108    1
   135    48    47    1
   136    33    31   ar
   137   107   106    1
   138    28    27    2
   139    92    93    2
   140    26    27    1
   141    26    25    1
   142   106   103    1
   143    25    19   am
   144   103   104    1
   145   103   102    1
   146    20    19    2
   147   104   105    2
   148    19    18    1
   149    24    22   am
   150    23    22    2
   151    22    21    1
   152    21    18    1
   153    18    17    1
