@<TRIPOS>MOLECULE
tmp/5l2oB00.pdb
 100 92 0 0 0
SMALL
GASTEIGER

@<TRIPOS>ATOM
      1  N          2.9770  -28.1180   -7.0020 N.3   159  ILE159     -0.1245
      2  CA         3.9020  -29.2760   -7.0410 C.3   159  ILE159      0.1561
      3  C          5.0110  -29.0350   -6.0130 C.2   159  ILE159      0.2260
      4  O          5.7240  -28.0440   -6.0980 O.2   159  ILE159     -0.2867
      5  CB         4.4810  -29.5080   -8.4430 C.3   159  ILE159      0.0252
      6  CG1        3.3460  -29.7800   -9.4490 C.3   159  ILE159      0.0019
      7  CG2        5.4780  -30.6860   -8.4320 C.3   159  ILE159      0.0019
      8  CD1        3.7400  -29.5650  -10.8910 C.3   159  ILE159      0.0001
      9  N          0.3120  -31.8310   -5.8190 N.3   186  LYS186     -0.1245
     10  CA         1.0570  -33.0510   -6.1260 C.3   186  LYS186      0.1561
     11  C          2.3060  -33.0860   -5.2570 C.2   186  LYS186      0.2260
     12  O          3.3020  -32.4450   -5.5640 O.2   186  LYS186     -0.2867
     13  CB         1.4120  -33.1480   -7.6150 C.3   186  LYS186      0.0271
     14  CG         1.7630  -34.5650   -8.0710 C.3   186  LYS186      0.0035
     15  CD         3.1390  -34.8890   -8.5560 C.3   186  LYS186      0.0206
     16  CE         4.3400  -34.5720   -7.7700 C.3   186  LYS186      0.1093
     17  NZ         5.1750  -35.7720   -7.8690 N.3   186  LYS186     -0.1314
     18  N          7.0310  -37.6820   -4.8890 N.3   189  GLU189     -0.1245
     19  CA         6.9140  -39.1620   -4.8690 C.3   189  GLU189      0.1567
     20  C          7.5530  -39.7650   -3.6060 C.2   189  GLU189      0.2260
     21  O          7.0220  -40.7020   -3.0320 O.2   189  GLU189     -0.2867
     22  CB         7.5180  -39.8190   -6.1250 C.3   189  GLU189      0.0388
     23  CG         8.8250  -39.2280   -6.6660 C.3   189  GLU189      0.1160
     24  CD         8.6170  -38.2140   -7.8220 C.2   189  GLU189      0.3649
     25  OE1        8.0290  -37.0870   -7.5500 O.co2 189  GLU189     -0.2457
     26  OE2        9.0020  -38.5410   -9.0060 O.co2 189  GLU189     -0.2457
     27  N          6.5530  -37.2610  -11.0350 N.3   219  GLY219     -0.1210
     28  CA         6.7170  -35.9800  -11.7270 C.3   219  GLY219      0.1940
     29  C          6.2970  -36.0000  -13.1810 C.2   219  GLY219      0.2453
     30  O          5.4450  -35.2080  -13.5950 O.2   219  GLY219     -0.2732
     31  N          6.8860  -36.9080  -13.9790 N.am  220  PRO220     -0.2728
     32  CA         6.6400  -36.9320  -15.4290 C.3   220  PRO220      0.1401
     33  C          5.2590  -37.3760  -15.7970 C.2   220  PRO220      0.2269
     34  O          4.8440  -37.2360  -16.9540 O.2   220  PRO220     -0.2865
     35  CB         7.6740  -37.9410  -15.9540 C.3   220  PRO220      0.0296
     36  CG         8.6730  -38.0780  -14.8640 C.3   220  PRO220      0.0237
     37  CD         7.9470  -37.8470  -13.5800 C.3   220  PRO220      0.0939
     38  N          2.7270  -34.7440  -12.3770 N.3   223  GLY223     -0.1210
     39  CA         3.2440  -33.3680  -12.4050 C.3   223  GLY223      0.1956
     40  C          3.1040  -32.7500  -13.7750 C.2   223  GLY223      0.2611
     41  O          2.6070  -31.6300  -13.9210 O.2   223  GLY223     -0.2717
     42  N          3.4720  -33.5200  -14.7960 N.am  224  ALA224     -0.1979
     43  CA         3.2980  -33.0930  -16.1850 C.3   224  ALA224      0.1597
     44  C          1.8490  -32.8980  -16.5490 C.2   224  ALA224      0.2287
     45  O          1.5140  -31.9860  -17.2930 O.2   224  ALA224     -0.2864
     46  CB         3.9670  -34.0650  -17.1650 C.3   224  ALA224      0.0319
     47  N          0.8560  -29.4770  -15.2590 N.3   227  SER227     -0.1217
     48  CA         1.4650  -28.3650  -15.9450 C.3   227  SER227      0.1889
     49  C          0.8910  -28.1630  -17.3510 C.2   227  SER227      0.2288
     50  O          0.8620  -27.0300  -17.8580 O.2   227  SER227     -0.2866
     51  CB         3.0000  -28.5130  -15.9410 C.3   227  SER227      0.2089
     52  OG         3.4240  -29.4270  -16.9230 O.3   227  SER227     -0.2183
     53  N          5.5450  -24.4100   -8.6480 N.3   237  PHE237     -0.1241
     54  CA         6.4750  -25.5170   -8.5760 C.3   237  PHE237      0.1605
     55  C          7.7330  -25.1140   -7.8490 C.2   237  PHE237      0.2264
     56  O          8.2650  -24.0070   -8.0540 O.2   237  PHE237     -0.2867
     57  CB         6.8380  -26.0020   -9.9910 C.3   237  PHE237      0.0534
     58  CG         7.9870  -26.9510  -10.0460 C.ar  237  PHE237     -0.0203
     59  CD1        7.8000  -28.3010   -9.8300 C.ar  237  PHE237     -0.0042
     60  CD2        9.2710  -26.4960  -10.3240 C.ar  237  PHE237     -0.0042
     61  CE1        8.8690  -29.1930   -9.8980 C.ar  237  PHE237     -0.0003
     62  CE2       10.3470  -27.3730  -10.3680 C.ar  237  PHE237     -0.0003
     63  CZ        10.1410  -28.7310  -10.1600 C.ar  237  PHE237     -0.0000
     64  N         15.9880  -27.4480  -14.0380 N.3   242  GLU242     -0.1231
     65  CA        15.6680  -28.2450  -15.2260 C.3   242  GLU242      0.1699
     66  C         14.1690  -28.5620  -15.3800 C.2   242  GLU242      0.2592
     67  O         13.6030  -28.4840  -16.4760 O.2   242  GLU242     -0.2718
     68  CB        16.4810  -29.5580  -15.2180 C.3   242  GLU242      0.0402
     69  CG        16.0370  -30.5860  -16.2590 C.3   242  GLU242      0.1161
     70  CD        16.7490  -31.9490  -16.1520 C.2   242  GLU242      0.3649
     71  OE1       16.5920  -32.8100  -17.0610 O.co2 242  GLU242     -0.2457
     72  OE2       17.4480  -32.1760  -15.1510 O.co2 242  GLU242     -0.2457
     73  N         13.5190  -28.9630  -14.2920 N.am  243  VAL243     -0.1980
     74  CA        12.0770  -29.2770  -14.3700 C.3   243  VAL243      0.1595
     75  C         11.2600  -27.9810  -14.4770 C.2   243  VAL243      0.2287
     76  O         10.2480  -27.9260  -15.1620 O.2   243  VAL243     -0.2864
     77  CB        11.6390  -30.1360  -13.1690 C.3   243  VAL243      0.0276
     78  CG1       10.1400  -30.3830  -13.1750 C.3   243  VAL243      0.0022
     79  CG2       12.3710  -31.4590  -13.2260 C.3   243  VAL243      0.0022
     80  N         10.7510  -27.0280  -17.9730 N.3   246  LEU246     -0.1231
     81  CA         9.7540  -27.8550  -18.6300 C.3   246  LEU246      0.1693
     82  C          8.3300  -27.4550  -18.2200 C.2   246  LEU246      0.2591
     83  O          7.4140  -27.5240  -19.0170 O.2   246  LEU246     -0.2718
     84  CB         9.9780  -29.3340  -18.3260 C.3   246  LEU246      0.0284
     85  CG        11.3300  -29.9150  -18.7750 C.3   246  LEU246      0.0019
     86  CD1       11.4650  -31.3290  -18.2490 C.3   246  LEU246      0.0001
     87  CD2       11.4580  -29.8940  -20.2890 C.3   246  LEU246      0.0001
     88  N          8.1580  -27.0390  -16.9710 N.am  247  ILE247     -0.1980
     89  CA         6.8320  -26.5930  -16.5020 C.3   247  ILE247      0.1595
     90  C          6.4190  -25.3240  -17.2600 C.2   247  ILE247      0.2287
     91  O          5.3170  -25.2110  -17.7580 O.2   247  ILE247     -0.2864
     92  CB         6.8670  -26.2700  -15.0040 C.3   247  ILE247      0.0276
     93  CG1        7.3500  -27.4900  -14.1730 C.3   247  ILE247      0.0022
     94  CG2        5.5440  -25.6480  -14.5330 C.3   247  ILE247      0.0022
     95  CD1        6.2790  -28.3660  -13.6330 C.3   247  ILE247      0.0001
     96  N          5.5420  -26.0810  -20.8060 N.3   250  ALA250     -0.1245
     97  CA         4.2180  -26.7450  -20.9160 C.3   250  ALA250      0.1562
     98  C          3.0630  -25.7620  -20.6500 C.2   250  ALA250      0.2260
     99  O          2.0110  -25.8650  -21.2660 O.2   250  ALA250     -0.2867
    100  CB         4.1240  -27.9420  -19.9810 C.3   250  ALA250      0.0290
@<TRIPOS>BOND
     1    99    98    2
     2    97    96    1
     3    97    98    1
     4    97   100    1
     5    87    85    1
     6    83    82    2
     7    85    84    1
     8    85    86    1
     9    81    84    1
    10    81    82    1
    11    81    80    1
    12    82    88   am
    13    50    49    2
    14    91    90    2
    15    49    48    1
    16    45    44    2
    17    90    89    1
    18    46    43    1
    19    71    70   ar
    20    88    89    1
    21    34    33    2
    22    52    51    1
    23    44    43    1
    24    89    92    1
    25    67    66    2
    26    69    70    1
    27    69    68    1
    28    43    42    1
    29    70    72   ar
    30    35    32    1
    31    35    36    1
    32    48    51    1
    33    48    47    1
    34    33    32    1
    35    32    31    1
    36    66    65    1
    37    66    73   am
    38    65    68    1
    39    65    64    1
    40    76    75    2
    41    92    94    1
    42    92    93    1
    43    36    37    1
    44    42    40   am
    45    75    74    1
    46    74    73    1
    47    74    77    1
    48    93    95    1
    49    31    37    1
    50    31    29   am
    51    41    40    2
    52    40    39    1
    53    30    29    2
    54    79    77    1
    55    29    28    1
    56    78    77    1
    57    39    38    1
    58    28    27    1
    59     8     6    1
    60    62    60   ar
    61    62    63   ar
    62    60    58   ar
    63    63    61   ar
    64    58    57    1
    65    58    59   ar
    66    57    54    1
    67    61    59   ar
    68     6     5    1
    69    26    24   ar
    70    53    54    1
    71    54    55    1
    72    15    14    1
    73    15    16    1
    74     5     7    1
    75     5     2    1
    76    14    13    1
    77    56    55    2
    78    17    16    1
    79    24    25   ar
    80    24    23    1
    81    13    10    1
    82     2     1    1
    83     2     3    1
    84    23    22    1
    85    10     9    1
    86    10    11    1
    87    22    19    1
    88     4     3    2
    89    12    11    2
    90    18    19    1
    91    19    20    1
    92    20    21    2
