@<TRIPOS>MOLECULE
tmp/5l2rA03.pdb
 102 103 0 0 0
SMALL
GASTEIGER

@<TRIPOS>ATOM
      1  N         43.8470  -15.4490  -22.8550 N.3    13  PRO13      -0.2102
      2  CA        42.5600  -15.1900  -22.1900 C.3    13  PRO13       0.1504
      3  C         42.5100  -13.8930  -21.3710 C.2    13  PRO13       0.2576
      4  O         41.4320  -13.3230  -21.2130 O.2    13  PRO13      -0.2718
      5  CB        42.3880  -16.4090  -21.2780 C.3    13  PRO13       0.0282
      6  CG        43.7650  -16.9250  -21.0580 C.3    13  PRO13       0.0208
      7  CD        44.4770  -16.6890  -22.3670 C.3    13  PRO13       0.0893
      8  N         43.6490  -13.4210  -20.8790 N.am   14  HIS14      -0.1962
      9  CA        43.6480  -12.2090  -20.0640 C.3    14  HIS14       0.1787
     10  C         44.1610  -11.0100  -20.8460 C.2    14  HIS14       0.2620
     11  O         44.3960   -9.9420  -20.2700 O.2    14  HIS14      -0.2715
     12  CB        44.4760  -12.4180  -18.7930 C.3    14  HIS14       0.0785
     13  CG        44.0510  -13.6130  -18.0060 C.ar   14  HIS14       0.0821
     14  ND1       42.7630  -13.7690  -17.5340 N.ar   14  HIS14      -0.2267
     15  CD2       44.7280  -14.7230  -17.6290 C.ar   14  HIS14       0.1154
     16  CE1       42.6700  -14.9200  -16.8920 C.ar   14  HIS14       0.1986
     17  NE2       43.8480  -15.5160  -16.9310 N.ar   14  HIS14      -0.2212
     18  N         44.3400  -11.2020  -22.1530 N.am   15  HIS15      -0.1973
     19  CA        44.7010  -10.1160  -23.0640 C.3    15  HIS15       0.1656
     20  C         46.0190   -9.4450  -22.7070 C.2    15  HIS15       0.2291
     21  O         46.1140   -8.2140  -22.6620 O.2    15  HIS15      -0.2864
     22  CB        43.5700   -9.0950  -23.0950 C.3    15  HIS15       0.0771
     23  CG        42.2690   -9.6790  -23.5490 C.ar   15  HIS15       0.0820
     24  ND1       41.8590   -9.6560  -24.8660 N.ar   15  HIS15      -0.2267
     25  CD2       41.3040  -10.3400  -22.8660 C.ar   15  HIS15       0.1154
     26  CE1       40.6870  -10.2590  -24.9720 C.ar   15  HIS15       0.1986
     27  NE2       40.3300  -10.6850  -23.7730 N.ar   15  HIS15      -0.2212
     28  N         47.9560   -1.9090  -20.9060 N.3    20  PHE20      -0.1241
     29  CA        47.0880   -1.3490  -19.8640 C.3    20  PHE20       0.1605
     30  C         47.8100   -0.2770  -19.0530 C.2    20  PHE20       0.2264
     31  O         49.0310   -0.2920  -18.9350 O.2    20  PHE20      -0.2867
     32  CB        46.5830   -2.4290  -18.8910 C.3    20  PHE20       0.0534
     33  CG        45.7060   -3.4780  -19.5220 C.ar   20  PHE20      -0.0203
     34  CD1       46.2600   -4.5940  -20.1300 C.ar   20  PHE20      -0.0042
     35  CD2       44.3260   -3.3560  -19.4840 C.ar   20  PHE20      -0.0042
     36  CE1       45.4540   -5.5630  -20.7060 C.ar   20  PHE20      -0.0003
     37  CE2       43.5080   -4.3220  -20.0570 C.ar   20  PHE20      -0.0003
     38  CZ        44.0770   -5.4260  -20.6780 C.ar   20  PHE20      -0.0000
     39  N         33.3350  -10.1010  -16.1990 N.3   117  LYS117     -0.1245
     40  CA        33.6140  -11.4720  -15.8000 C.3   117  LYS117      0.1561
     41  C         34.1140  -11.4760  -14.3660 C.2   117  LYS117      0.2260
     42  O         35.2920  -11.1950  -14.1120 O.2   117  LYS117     -0.2867
     43  CB        34.6520  -12.1140  -16.7390 C.3   117  LYS117      0.0271
     44  CG        34.1280  -12.3750  -18.1680 C.3   117  LYS117      0.0035
     45  CD        35.2310  -12.8530  -19.1180 C.3   117  LYS117      0.0206
     46  CE        36.1930  -11.7150  -19.4580 C.3   117  LYS117      0.1093
     47  NZ        37.2860  -12.1240  -20.4130 N.3   117  LYS117     -0.1314
     48  N         37.2070   -8.9710  -14.7100 N.3   180  GLU180     -0.1231
     49  CA        37.6720   -8.5530  -16.0330 C.3   180  GLU180      0.1699
     50  C         36.5270   -7.9940  -16.8570 C.2   180  GLU180      0.2592
     51  O         35.3830   -8.4270  -16.6950 O.2   180  GLU180     -0.2718
     52  CB        38.3240   -9.7140  -16.7640 C.3   180  GLU180      0.0402
     53  CG        39.5330  -10.2860  -16.0550 C.3   180  GLU180      0.1161
     54  CD        39.9130  -11.6360  -16.6110 C.2   180  GLU180      0.3649
     55  OE1       41.0180  -11.7610  -17.1730 O.co2 180  GLU180     -0.2457
     56  OE2       39.0960  -12.5740  -16.4910 O.co2 180  GLU180     -0.2457
     57  N         36.8410   -7.0310  -17.7260 N.am  181  PHE181     -0.1976
     58  CA        35.8150   -6.2730  -18.4500 C.3   181  PHE181      0.1639
     59  C         36.1400   -6.0190  -19.9240 C.2   181  PHE181      0.2290
     60  O         37.2950   -5.8230  -20.2930 O.2   181  PHE181     -0.2864
     61  CB        35.5820   -4.8960  -17.7990 C.3   181  PHE181      0.0560
     62  CG        35.1840   -4.9410  -16.3410 C.ar  181  PHE181     -0.0200
     63  CD1       36.1460   -4.9680  -15.3420 C.ar  181  PHE181     -0.0042
     64  CD2       33.8470   -4.9100  -15.9730 C.ar  181  PHE181     -0.0042
     65  CE1       35.7810   -4.9850  -13.9960 C.ar  181  PHE181     -0.0003
     66  CE2       33.4770   -4.9350  -14.6250 C.ar  181  PHE181     -0.0003
     67  CZ        34.4380   -4.9590  -13.6450 C.ar  181  PHE181     -0.0000
     68  N         37.7820   -9.1600  -29.7840 N.3   253  TYR253     -0.1241
     69  CA        37.8450   -9.8500  -28.4930 C.3   253  TYR253      0.1605
     70  C         38.3190  -11.3040  -28.6330 C.2   253  TYR253      0.2264
     71  O         38.8940  -11.8740  -27.6990 O.2   253  TYR253     -0.2867
     72  CB        36.4580   -9.7860  -27.8410 C.3   253  TYR253      0.0534
     73  CG        36.3330  -10.4000  -26.4590 C.ar  253  TYR253     -0.0201
     74  CD1       36.7370   -9.6990  -25.3240 C.ar  253  TYR253     -0.0009
     75  CD2       35.7710  -11.6580  -26.2860 C.ar  253  TYR253     -0.0009
     76  CE1       36.6070  -10.2520  -24.0420 C.ar  253  TYR253      0.0417
     77  CE2       35.6390  -12.2230  -25.0020 C.ar  253  TYR253      0.0417
     78  CZ        36.0490  -11.5070  -23.8990 C.ar  253  TYR253      0.1957
     79  OH        35.9160  -12.0580  -22.6450 O.3   253  TYR253     -0.2866
     80  N         39.2490   -2.6590  -22.9570 N.3   326  LEU326     -0.1231
     81  CA        39.4300   -3.7620  -22.0080 C.3   326  LEU326      0.1693
     82  C         39.8840   -3.2310  -20.6580 C.2   326  LEU326      0.2592
     83  O         40.5140   -2.1800  -20.5800 O.2   326  LEU326     -0.2718
     84  CB        40.4530   -4.7650  -22.5350 C.3   326  LEU326      0.0284
     85  CG        40.0360   -5.4790  -23.8240 C.3   326  LEU326      0.0019
     86  CD1       41.2610   -5.9030  -24.6060 C.3   326  LEU326      0.0001
     87  CD2       39.1920   -6.6900  -23.4640 C.3   326  LEU326      0.0001
     88  N         39.5730   -3.9600  -19.5920 N.am  327  ALA327     -0.1966
     89  CA        39.9990   -3.5410  -18.2640 C.3   327  ALA327      0.1728
     90  C         39.9630   -4.7240  -17.3130 C.2   327  ALA327      0.2616
     91  O         39.3090   -5.7260  -17.5860 O.2   327  ALA327     -0.2715
     92  CB        39.1160   -2.4180  -17.7480 C.3   327  ALA327      0.0334
     93  N         40.6720   -4.6140  -16.1950 N.am  328  HIS328     -0.1973
     94  CA        40.5550   -5.6420  -15.1790 C.3   328  HIS328      0.1656
     95  C         40.8710   -5.0770  -13.8050 C.2   328  HIS328      0.2291
     96  O         41.5980   -4.0890  -13.6720 O.2   328  HIS328     -0.2864
     97  CB        41.4530   -6.8540  -15.4910 C.3   328  HIS328      0.0771
     98  CG        42.8920   -6.5150  -15.7520 C.ar  328  HIS328      0.0820
     99  ND1       43.3920   -6.3070  -17.0200 N.ar  328  HIS328     -0.2267
    100  CD2       43.9380   -6.3540  -14.9050 C.ar  328  HIS328      0.1154
    101  CE1       44.6840   -6.0340  -16.9440 C.ar  328  HIS328      0.1986
    102  NE2       45.0400   -6.0570  -15.6710 N.ar  328  HIS328     -0.2212
@<TRIPOS>BOND
     1    68    69    1
     2    70    69    1
     3    70    71    2
     4    69    72    1
     5    72    73    1
     6    73    75   ar
     7    73    74   ar
     8    75    77   ar
     9    74    76   ar
    10    77    78   ar
    11    26    24   ar
    12    26    27   ar
    13    24    23   ar
    14    86    85    1
    15    76    78   ar
    16    78    79    1
    17    85    87    1
    18    85    84    1
    19    27    25   ar
    20    23    22    1
    21    23    25   ar
    22    22    19    1
    23    19    20    1
    24    19    18    1
    25    80    81    1
    26     1     7    1
    27     1     2    1
    28    20    21    2
    29    84    81    1
    30     7     6    1
    31     2     3    1
    32     2     5    1
    33    18    10   am
    34    81    82    1
    35     3     4    2
    36     3     8   am
    37     5     6    1
    38    28    29    1
    39     8     9    1
    40    10    11    2
    41    10     9    1
    42    36    38   ar
    43    36    34   ar
    44    38    37   ar
    45    82    83    2
    46    82    88   am
    47    47    46    1
    48    60    59    2
    49    34    33   ar
    50     9    12    1
    51    37    35   ar
    52    59    58    1
    53    29    30    1
    54    29    32    1
    55    88    89    1
    56    33    35   ar
    57    33    32    1
    58    46    45    1
    59    45    44    1
    60    30    31    2
    61    12    13    1
    62    58    61    1
    63    58    57    1
    64    89    92    1
    65    89    90    1
    66    44    43    1
    67    13    15   ar
    68    13    14   ar
    69    61    62    1
    70    57    50   am
    71    15    17   ar
    72    91    90    2
    73    14    16   ar
    74    90    93   am
    75    55    54   ar
    76    99   101   ar
    77    99    98   ar
    78   101   102   ar
    79    17    16   ar
    80    50    51    2
    81    50    49    1
    82    52    53    1
    83    52    49    1
    84    43    40    1
    85    54    56   ar
    86    54    53    1
    87    62    64   ar
    88    62    63   ar
    89    39    40    1
    90    93    94    1
    91    49    48    1
    92    64    66   ar
    93    40    41    1
    94    98    97    1
    95    98   100   ar
    96   102   100   ar
    97    97    94    1
    98    63    65   ar
    99    94    95    1
   100    66    67   ar
   101    41    42    2
   102    65    67   ar
   103    95    96    2
