@<TRIPOS>MOLECULE
tmp/5l2rA00.pdb
 104 97 0 0 0
SMALL
GASTEIGER

@<TRIPOS>ATOM
      1  N         32.2510   10.8980  -32.2920 N.3   106  CYS106     -0.1221
      2  CA        30.9820   10.8820  -33.0190 C.3   106  CYS106      0.1808
      3  C         29.8710   11.5110  -32.1820 C.2   106  CYS106      0.2601
      4  O         29.9380   11.4670  -30.9470 O.2   106  CYS106     -0.2717
      5  CB        30.5890    9.4530  -33.4190 C.3   106  CYS106      0.0970
      6  SG        29.1540    9.4460  -34.5230 S.3   106  CYS106     -0.0800
      7  N         28.8650   12.1070  -32.8330 N.am  107  GLN107     -0.1965
      8  CA        27.7140   12.6530  -32.0940 C.3   107  GLN107      0.1733
      9  C         26.9220   11.5270  -31.4270 C.2   107  GLN107      0.2616
     10  O         26.3030   11.7230  -30.3790 O.2   107  GLN107     -0.2715
     11  CB        26.7810   13.4870  -32.9990 C.3   107  GLN107      0.0408
     12  CG        25.8630   12.7020  -33.9340 C.3   107  GLN107      0.0908
     13  CD        26.6130   12.0540  -35.0930 C.2   107  GLN107      0.2608
     14  OE1       27.6780   12.5250  -35.4910 O.2   107  GLN107     -0.2717
     15  NE2       26.0670   10.9600  -35.6250 N.am  107  GLN107     -0.0878
     16  N         26.9310   10.3580  -32.0600 N.am  108  ASP108     -0.1971
     17  CA        26.3080    9.1810  -31.4930 C.3   108  ASP108      0.1709
     18  C         27.2850    8.5490  -30.5010 C.2   108  ASP108      0.2293
     19  O         28.0910    7.6940  -30.8620 O.2   108  ASP108     -0.2864
     20  CB        25.9080    8.1750  -32.5840 C.3   108  ASP108      0.1436
     21  CG        25.2020    6.9400  -32.0050 C.2   108  ASP108      0.3671
     22  OD1       25.1390    6.8350  -30.7570 O.co2 108  ASP108     -0.2456
     23  OD2       24.6910    6.0950  -32.7800 O.co2 108  ASP108     -0.2456
     24  N         26.1270   12.3920  -25.3870 N.3   146  ARG146     -0.1245
     25  CA        24.7280   12.5020  -25.7950 C.3   146  ARG146      0.1563
     26  C         23.8650   11.4780  -25.0860 C.2   146  ARG146      0.2260
     27  O         24.2930   10.3610  -24.8290 O.2   146  ARG146     -0.2867
     28  CB        24.5800   12.3280  -27.3210 C.3   146  ARG146      0.0307
     29  CG        23.2160   12.7920  -27.8750 C.3   146  ARG146      0.0489
     30  CD        23.1000   12.5550  -29.3910 C.3   146  ARG146      0.2205
     31  NE        22.9280   11.1340  -29.6970 N.pl3 146  ARG146     -0.0865
     32  CZ        22.9190   10.6180  -30.9270 C.cat 146  ARG146      0.5346
     33  NH1       23.0740   11.4040  -31.9940 N.pl3 146  ARG146      0.1354
     34  NH2       22.7610    9.3060  -31.0880 N.pl3 146  ARG146      0.1354
     35  N         27.6210    2.4810  -31.2860 N.3   187  GLY187     -0.1210
     36  CA        26.7650    3.3770  -32.0610 C.3   187  GLY187      0.1956
     37  C         25.5220    2.6560  -32.5720 C.2   187  GLY187      0.2612
     38  O         25.5630    1.4630  -32.8630 O.2   187  GLY187     -0.2717
     39  N         24.4060    3.3670  -32.6590 N.am  188  GLY188     -0.1942
     40  CA        23.1780    2.7830  -33.1790 C.3   188  GLY188      0.2014
     41  C         23.2630    2.3490  -34.6390 C.2   188  GLY188      0.2639
     42  O         22.6970    1.3220  -35.0240 O.2   188  GLY188     -0.2714
     43  N         23.9720    3.1160  -35.4610 N.am  189  GLY189     -0.1954
     44  CA        24.0850    2.7960  -36.8840 C.3   189  GLY189      0.1869
     45  C         24.7570    1.4620  -37.1750 C.2   189  GLY189      0.2309
     46  O         24.2900    0.6730  -38.0080 O.2   189  GLY189     -0.2863
     47  N         28.9720    4.0080  -41.8580 N.3   225  CYS225     -0.1235
     48  CA        30.2320    4.7520  -41.8820 C.3   225  CYS225      0.1677
     49  C         31.4960    3.8720  -42.0230 C.2   225  CYS225      0.2270
     50  O         32.3370    3.8420  -41.1310 O.2   225  CYS225     -0.2867
     51  CB        30.3450    5.6090  -40.6160 C.3   225  CYS225      0.0956
     52  SG        28.9410    6.7250  -40.3620 S.3   225  CYS225     -0.0801
     53  N         15.3260   14.2310  -37.7390 N.3   385  ARG385     -0.1245
     54  CA        15.5450   12.8070  -38.0140 C.3   385  ARG385      0.1563
     55  C         14.2950   11.9770  -37.6850 C.2   385  ARG385      0.2260
     56  O         13.1770   12.4010  -37.9830 O.2   385  ARG385     -0.2867
     57  CB        16.7880   12.2720  -37.2650 C.3   385  ARG385      0.0307
     58  CG        16.9200   12.6750  -35.7860 C.3   385  ARG385      0.0489
     59  CD        18.3230   12.3910  -35.2130 C.3   385  ARG385      0.2205
     60  NE        18.5120   10.9940  -34.8050 N.pl3 385  ARG385     -0.0865
     61  CZ        19.6900   10.4470  -34.4940 C.cat 385  ARG385      0.5346
     62  NH1       20.8050   11.1680  -34.5580 N.pl3 385  ARG385      0.1354
     63  NH2       19.7640    9.1690  -34.1320 N.pl3 385  ARG385      0.1354
     64  N         26.1620   13.3180  -39.3620 N.3   430  PRO430     -0.2102
     65  CA        24.9150   12.8080  -39.9380 C.3   430  PRO430      0.1504
     66  C         24.4090   11.4830  -39.3700 C.2   430  PRO430      0.2576
     67  O         25.1700   10.6470  -38.8630 O.2   430  PRO430     -0.2718
     68  CB        25.2730   12.6210  -41.4210 C.3   430  PRO430      0.0282
     69  CG        26.7530   12.3160  -41.3920 C.3   430  PRO430      0.0208
     70  CD        27.2870   13.2240  -40.3090 C.3   430  PRO430      0.0893
     71  N         23.1070   11.2740  -39.4420 N.am  431  THR431     -0.1939
     72  CA        22.5920    9.9580  -39.1290 C.3   431  THR431      0.2028
     73  C         22.2330    9.2800  -40.4520 C.2   431  THR431      0.2642
     74  O         22.3620    9.8750  -41.5230 O.2   431  THR431     -0.2714
     75  CB        21.3830   10.0270  -38.1600 C.3   431  THR431      0.1808
     76  OG1       21.1040    8.7240  -37.6280 O.3   431  THR431     -0.2208
     77  CG2       20.1560   10.5770  -38.8520 C.3   431  THR431      0.0379
     78  N         21.8010    8.0330  -40.3730 N.am  432  THR432     -0.1950
     79  CA        21.5870    7.1910  -41.5570 C.3   432  THR432      0.1897
     80  C         20.3490    7.6000  -42.3610 C.2   432  THR432      0.2313
     81  O         19.2470    7.6360  -41.8160 O.2   432  THR432     -0.2863
     82  CB        21.4630    5.7140  -41.1140 C.3   432  THR432      0.1794
     83  OG1       22.6940    5.3090  -40.5070 O.3   432  THR432     -0.2208
     84  CG2       21.1390    4.7870  -42.2900 C.3   432  THR432      0.0378
     85  N         16.7490    5.3100  -43.0090 N.3   435  ARG435     -0.1245
     86  CA        15.6570    5.2080  -42.0410 C.3   435  ARG435      0.1563
     87  C         14.5330    6.2240  -42.3020 C.2   435  ARG435      0.2260
     88  O         13.4120    6.0270  -41.8430 O.2   435  ARG435     -0.2867
     89  CB        16.1870    5.3720  -40.6050 C.3   435  ARG435      0.0307
     90  CG        17.2260    4.3150  -40.1990 C.3   435  ARG435      0.0489
     91  CD        17.3540    4.1750  -38.6720 C.3   435  ARG435      0.2205
     92  NE        17.5350    5.4590  -38.0030 N.pl3 435  ARG435     -0.0865
     93  CZ        18.7180    6.0070  -37.7450 C.cat 435  ARG435      0.5346
     94  NH1       18.7930    7.1790  -37.1200 N.pl3 435  ARG435      0.1354
     95  NH2       19.8300    5.3750  -38.1000 N.pl3 435  ARG435      0.1354
     96  N         23.7800   10.3370  -44.5380 N.3   455  LYS455     -0.1245
     97  CA        24.7720    9.3780  -45.0280 C.3   455  LYS455      0.1561
     98  C         24.1530    8.0190  -45.2970 C.2   455  LYS455      0.2260
     99  O         23.1270    7.6600  -44.7150 O.2   455  LYS455     -0.2867
    100  CB        25.9550    9.2650  -44.0500 C.3   455  LYS455      0.0271
    101  CG        25.5930    9.0690  -42.5590 C.3   455  LYS455      0.0035
    102  CD        25.7400    7.6290  -42.1290 C.3   455  LYS455      0.0206
    103  CE        25.4900    7.4610  -40.6240 C.3   455  LYS455      0.1093
    104  NZ        25.6320    6.0400  -40.2360 N.3   455  LYS455     -0.1314
@<TRIPOS>BOND
     1    98    97    1
     2    98    99    2
     3    97    96    1
     4    97   100    1
     5   100   101    1
     6    85    86    1
     7   101   102    1
     8    80    81    2
     9    80    79    1
    10    87    86    1
    11    87    88    2
    12    84    82    1
    13   102   103    1
    14    86    89    1
    15    49    48    1
    16    49    50    2
    17    48    47    1
    18    48    51    1
    19    79    82    1
    20    79    78    1
    21    74    73    2
    22    68    69    1
    23    68    65    1
    24    69    70    1
    25    82    83    1
    26   103   104    1
    27    51    52    1
    28    89    90    1
    29    73    78   am
    30    73    72    1
    31    70    64    1
    32    90    91    1
    33    65    66    1
    34    65    64    1
    35    71    66   am
    36    71    72    1
    37    66    67    2
    38    72    75    1
    39    77    75    1
    40    91    92    1
    41    75    76    1
    42    95    93    1
    43    54    53    1
    44    54    55    1
    45    54    57    1
    46    46    45    2
    47    92    93    2
    48    56    55    2
    49    93    94    1
    50    57    58    1
    51    45    44    1
    52    44    43    1
    53    58    59    1
    54    15    13   am
    55    14    13    2
    56    43    41   am
    57    59    60    1
    58    13    12    1
    59    42    41    2
    60    60    61    2
    61    41    40    1
    62    62    61    1
    63     6     5    1
    64    61    63    1
    65    12    11    1
    66     5     2    1
    67    40    39    1
    68     2     1    1
    69     2     3    1
    70    11     8    1
    71    38    37    2
    72     7     3   am
    73     7     8    1
    74    23    21   ar
    75    39    37   am
    76    20    21    1
    77    20    17    1
    78    37    36    1
    79     3     4    2
    80     8     9    1
    81    36    35    1
    82    16    17    1
    83    16     9   am
    84    21    22   ar
    85    33    32    1
    86    17    18    1
    87     9    10    2
    88    34    32    1
    89    32    31    2
    90    19    18    2
    91    31    30    1
    92    30    29    1
    93    29    28    1
    94    28    25    1
    95    25    24    1
    96    25    26    1
    97    26    27    2
