@<TRIPOS>MOLECULE
tmp/5l2sA00.pdb
 177 168 0 0 0
SMALL
GASTEIGER

@<TRIPOS>ATOM
      1  N         28.5130   43.0670  -14.0940 N.3     8  GLU8       -0.1231
      2  CA        27.9220   43.3090  -12.7820 C.3     8  GLU8        0.1699
      3  C         26.6020   42.5450  -12.7150 C.2     8  GLU8        0.2592
      4  O         25.8330   42.5560  -13.6790 O.2     8  GLU8       -0.2718
      5  CB        27.6990   44.8100  -12.5450 C.3     8  GLU8        0.0402
      6  CG        27.5400   45.1840  -11.0790 C.3     8  GLU8        0.1161
      7  CD        27.0950   46.6150  -10.8350 C.2     8  GLU8        0.3649
      8  OE1       27.9680   47.5120  -10.8100 O.co2   8  GLU8       -0.2457
      9  OE2       25.8750   46.8410  -10.6620 O.co2   8  GLU8       -0.2457
     10  N         26.3720   41.8430  -11.5920 N.am    9  ILE9       -0.1966
     11  CA        25.1630   41.0580  -11.3230 C.3     9  ILE9        0.1727
     12  C         24.2240   41.8670  -10.4060 C.2     9  ILE9        0.2616
     13  O         23.0080   41.8500  -10.6000 O.2     9  ILE9       -0.2715
     14  CB        25.5030   39.6420  -10.7420 C.3     9  ILE9        0.0290
     15  CG1       26.2720   38.7720  -11.7670 C.3     9  ILE9        0.0022
     16  CG2       24.2450   38.9100  -10.2620 C.3     9  ILE9        0.0023
     17  CD1       26.8240   37.4220  -11.2010 C.3     9  ILE9        0.0001
     18  N         24.7960   42.5530   -9.4180 N.am   10  GLY10      -0.1955
     19  CA        24.0240   43.3350   -8.4660 C.3    10  GLY10       0.1869
     20  C         24.8360   44.3180   -7.6610 C.2    10  GLY10       0.2309
     21  O         26.0610   44.1990   -7.5680 O.2    10  GLY10      -0.2863
     22  N         25.3510   46.0990    0.7320 N.3    14  TYR14      -0.1241
     23  CA        26.1490   44.8930    0.9620 C.3    14  TYR14       0.1605
     24  C         27.4600   45.0580    0.1880 C.2    14  TYR14       0.2264
     25  O         28.5140   44.5990    0.6280 O.2    14  TYR14      -0.2867
     26  CB        25.4010   43.5980    0.5280 C.3    14  TYR14       0.0534
     27  CG        24.8160   43.6080   -0.8740 C.ar   14  TYR14      -0.0201
     28  CD1       25.5550   43.1520   -1.9650 C.ar   14  TYR14      -0.0009
     29  CD2       23.5000   44.0020   -1.0980 C.ar   14  TYR14      -0.0009
     30  CE1       25.0180   43.1490   -3.2540 C.ar   14  TYR14       0.0417
     31  CE2       22.9500   43.9960   -2.3810 C.ar   14  TYR14       0.0417
     32  CZ        23.7180   43.5860   -3.4590 C.ar   14  TYR14       0.1957
     33  OH        23.1630   43.5600   -4.7200 O.3    14  TYR14      -0.2866
     34  N         28.0820   42.5240   -6.5610 N.3    17  VAL17      -0.1245
     35  CA        28.2100   41.1350   -6.9960 C.3    17  VAL17       0.1561
     36  C         28.6040   41.1810   -8.4750 C.2    17  VAL17       0.2260
     37  O         27.8870   41.7760   -9.2770 O.2    17  VAL17      -0.2867
     38  CB        26.9350   40.2710   -6.7530 C.3    17  VAL17       0.0252
     39  CG1       27.1520   38.8260   -7.2120 C.3    17  VAL17       0.0019
     40  CG2       26.5000   40.3110   -5.2870 C.3    17  VAL17       0.0019
     41  N         30.7810   33.8860   -9.2580 N.3    31  ALA31      -0.1245
     42  CA        30.1470   35.1040   -8.7900 C.3    31  ALA31       0.1562
     43  C         30.9670   35.6270   -7.6070 C.2    31  ALA31       0.2260
     44  O         31.1190   34.8960   -6.6290 O.2    31  ALA31      -0.2867
     45  CB        28.7100   34.8150   -8.3780 C.3    31  ALA31       0.0290
     46  N         31.3700   38.3770   -4.6290 N.3    33  LYS33      -0.1245
     47  CA        30.6600   39.3330   -3.7930 C.3    33  LYS33       0.1561
     48  C         31.6970   40.0660   -2.9310 C.2    33  LYS33       0.2260
     49  O         32.4660   39.4320   -2.2020 O.2    33  LYS33      -0.2867
     50  CB        29.5970   38.6140   -2.9410 C.3    33  LYS33       0.0271
     51  CG        28.7650   39.5340   -2.0570 C.3    33  LYS33       0.0035
     52  CD        27.7460   38.7460   -1.2470 C.3    33  LYS33       0.0206
     53  CE        26.4680   39.5300   -1.0650 C.3    33  LYS33       0.1093
     54  NZ        25.4260   38.7330   -0.3630 N.3    33  LYS33      -0.1314
     55  N         24.1040   27.5550   -3.1940 N.3    60  VAL60      -0.1245
     56  CA        25.2090   27.9150   -4.0660 C.3    60  VAL60       0.1561
     57  C         26.5360   27.4160   -3.4370 C.2    60  VAL60       0.2260
     58  O         26.6700   27.4380   -2.2080 O.2    60  VAL60      -0.2867
     59  CB        25.1490   29.4410   -4.3630 C.3    60  VAL60       0.0252
     60  CG1       25.5580   30.3000   -3.1630 C.3    60  VAL60       0.0019
     61  CG2       25.9440   29.8010   -5.5940 C.3    60  VAL60       0.0019
     62  N         31.5880   32.3380   -5.2780 N.3    73  PHE73      -0.1227
     63  CA        30.5930   31.2710   -5.3980 C.3    73  PHE73       0.1736
     64  C         30.5560   30.7190   -6.7960 C.2    73  PHE73       0.2598
     65  O         30.9900   31.4110   -7.7140 O.2    73  PHE73      -0.2717
     66  CB        29.1860   31.8020   -5.0810 C.3    73  PHE73       0.0547
     67  CG        29.0260   32.5230   -3.7670 C.ar   73  PHE73      -0.0202
     68  CD1       28.8620   31.8140   -2.5830 C.ar   73  PHE73      -0.0042
     69  CD2       28.9680   33.9140   -3.7210 C.ar   73  PHE73      -0.0042
     70  CE1       28.6900   32.4830   -1.3670 C.ar   73  PHE73      -0.0003
     71  CE2       28.7950   34.5820   -2.5050 C.ar   73  PHE73      -0.0003
     72  CZ        28.6510   33.8610   -1.3370 C.ar   73  PHE73      -0.0000
     73  N         29.9480   29.5100   -6.9880 N.am   74  GLU74      -0.1920
     74  CA        29.7110   28.9650   -8.3260 C.3    74  GLU74       0.1949
     75  C         28.7440   29.9480   -8.9950 C.2    74  GLU74       0.2659
     76  O         27.8630   30.4780   -8.3110 O.2    74  GLU74      -0.2711
     77  CB        29.0800   27.5480   -8.2930 C.2    74  GLU74       0.0111
     78  CG        27.6660   27.4860   -7.7350 C.2    74  GLU74       0.0838
     79  CD        26.9370   26.1600   -7.7570 C.2    74  GLU74       0.3877
     80  OE1       26.4180   25.7580   -6.6910 O.co2  74  GLU74      -0.2406
     81  OE2       26.8230   25.5580   -8.8480 O.co2  74  GLU74      -0.2406
     82  N         28.9200   30.2230  -10.2890 N.am   75  HIS75      -0.1956
     83  CA        28.0240   31.1310  -10.9890 C.3    75  HIS75       0.1787
     84  C         26.8190   30.3510  -11.4970 C.2    75  HIS75       0.2620
     85  O         26.9640   29.2030  -11.9220 O.2    75  HIS75      -0.2715
     86  CB        28.7580   31.8300  -12.1500 C.3    75  HIS75       0.0785
     87  CG        27.8680   32.6330  -13.0470 C.ar   75  HIS75       0.0821
     88  ND1       27.2810   32.0720  -14.1730 N.ar   75  HIS75      -0.2267
     89  CD2       27.4450   33.9120  -12.9270 C.ar   75  HIS75       0.1154
     90  CE1       26.5310   33.0240  -14.7040 C.ar   75  HIS75       0.1986
     91  NE2       26.5990   34.1480  -13.9930 N.ar   75  HIS75      -0.2212
     92  N         25.6260   30.9620  -11.4290 N.am   76  VAL76      -0.1963
     93  CA        24.4160   30.3790  -11.9950 C.3    76  VAL76       0.1727
     94  C         23.7730   31.4810  -12.8470 C.2    76  VAL76       0.2616
     95  O         23.8030   32.6490  -12.4690 O.2    76  VAL76      -0.2715
     96  CB        23.4740   29.5810  -11.0470 C.3    76  VAL76       0.0290
     97  CG1       23.9100   29.6300   -9.5890 C.3    76  VAL76       0.0023
     98  CG2       22.0050   29.8990  -11.2420 C.3    76  VAL76       0.0023
     99  N         23.3510   31.1080  -14.0680 N.am   77  ASP77      -0.1957
    100  CA        22.8840   31.9900  -15.1350 C.3    77  ASP77       0.1840
    101  C         21.6810   32.8630  -14.8210 C.2    77  ASP77       0.2622
    102  O         21.6230   33.9870  -15.3210 O.2    77  ASP77      -0.2715
    103  CB        22.6150   31.1900  -16.4260 C.3    77  ASP77       0.1450
    104  CG        23.8570   30.9180  -17.2590 C.2    77  ASP77       0.3671
    105  OD1       24.5290   31.8950  -17.6600 O.co2  77  ASP77      -0.2456
    106  OD2       24.1280   29.7320  -17.5560 O.co2  77  ASP77      -0.2456
    107  N         20.6970   32.3500  -14.0780 N.am   78  GLN78      -0.1963
    108  CA        19.5060   33.1430  -13.8180 C.3    78  GLN78       0.1733
    109  C         18.9470   33.0080  -12.4160 C.2    78  GLN78       0.2616
    110  O         19.3090   32.0840  -11.6820 O.2    78  GLN78      -0.2715
    111  CB        18.4160   32.8380  -14.8690 C.3    78  GLN78       0.0408
    112  CG        17.7830   31.4610  -14.7850 C.3    78  GLN78       0.0908
    113  CD        17.0110   31.1690  -16.0340 C.2    78  GLN78       0.2608
    114  OE1       15.7830   31.2610  -16.0680 O.2    78  GLN78      -0.2717
    115  NE2       17.7270   30.8260  -17.0990 N.am   78  GLN78      -0.0878
    116  N         18.0380   33.9400  -12.0630 N.am   79  ASP79      -0.1971
    117  CA        17.3090   33.9440  -10.8030 C.3    79  ASP79       0.1709
    118  C         15.8740   33.4720  -11.1060 C.2    79  ASP79       0.2293
    119  O         15.5690   33.2360  -12.2730 O.2    79  ASP79      -0.2864
    120  CB        17.3720   35.3350  -10.1160 C.3    79  ASP79       0.1436
    121  CG        16.7610   36.5220  -10.8520 C.2    79  ASP79       0.3671
    122  OD1       16.2140   36.3260  -11.9490 O.co2  79  ASP79      -0.2456
    123  OD2       16.7860   37.6430  -10.2950 O.co2  79  ASP79      -0.2456
    124  N         13.7710   36.2210  -13.4410 N.3    82  THR82      -0.1218
    125  CA        13.9780   36.0870  -14.8910 C.3    82  THR82       0.1862
    126  C         13.3610   34.7850  -15.4130 C.2    82  THR82       0.2287
    127  O         12.7710   34.8060  -16.4970 O.2    82  THR82      -0.2866
    128  CB        15.4370   36.2820  -15.3010 C.3    82  THR82       0.1770
    129  OG1       16.2440   35.3840  -14.5620 O.3    82  THR82      -0.2211
    130  CG2       15.9200   37.6870  -15.0560 C.3    82  THR82       0.0375
    131  N         13.5770   35.6790   -1.3530 N.3   122  LYS122     -0.1245
    132  CA        12.8180   36.2970   -2.4400 C.3   122  LYS122      0.1561
    133  C         13.2680   35.6830   -3.7770 C.2   122  LYS122      0.2260
    134  O         14.3820   35.1620   -3.8330 O.2   122  LYS122     -0.2867
    135  CB        13.0390   37.8330   -2.4430 C.3   122  LYS122      0.0271
    136  CG        14.5080   38.2620   -2.5100 C.3   122  LYS122      0.0035
    137  CD        14.6660   39.7630   -2.3980 C.3   122  LYS122      0.0206
    138  CE        16.1180   40.1280   -2.2240 C.3   122  LYS122      0.1093
    139  NZ        16.3100   41.5920   -2.1740 N.3   122  LYS122     -0.1314
    140  N         14.6350   36.9320   -6.3000 N.3   124  GLN124     -0.1231
    141  CA        15.9160   37.5440   -6.6850 C.3   124  GLN124      0.1698
    142  C         17.1440   36.7940   -6.1550 C.2   124  GLN124      0.2592
    143  O         18.2130   36.9210   -6.7390 O.2   124  GLN124     -0.2718
    144  CB        15.9750   39.0310   -6.2880 C.3   124  GLN124      0.0381
    145  CG        15.1770   39.9530   -7.2220 C.3   124  GLN124      0.0905
    146  CD        13.6790   39.9860   -6.9550 C.2   124  GLN124      0.2608
    147  OE1       12.8870   40.3310   -7.8370 O.2   124  GLN124     -0.2717
    148  NE2       13.2420   39.6530   -5.7440 N.am  124  GLN124     -0.0878
    149  N         17.0180   36.0310   -5.0520 N.am  125  ASN125     -0.1974
    150  CA        18.1830   35.2930   -4.5510 C.3   125  ASN125      0.1688
    151  C         17.9160   33.7720   -4.5220 C.2   125  ASN125      0.2292
    152  O         18.6270   33.0150   -3.8590 O.2   125  ASN125     -0.2864
    153  CB        18.7400   35.8610   -3.2230 C.3   125  ASN125      0.1181
    154  CG        17.7290   36.0900   -2.1380 C.2   125  ASN125      0.2629
    155  OD1       16.8160   35.2760   -1.9190 O.2   125  ASN125     -0.2716
    156  ND2       17.9150   37.1890   -1.4000 N.am  125  ASN125     -0.0877
    157  N         18.1880   30.9920   -7.1830 N.3   127  LEU127     -0.1245
    158  CA        18.7990   30.8390   -8.5080 C.3   127  LEU127      0.1561
    159  C         18.3920   29.5490   -9.1970 C.2   127  LEU127      0.2260
    160  O         18.2300   28.5290   -8.5320 O.2   127  LEU127     -0.2867
    161  CB        20.3270   30.9950   -8.4270 C.3   127  LEU127      0.0270
    162  CG        20.8520   32.1770   -7.5960 C.3   127  LEU127      0.0019
    163  CD1       22.3420   32.1050   -7.4580 C.3   127  LEU127      0.0001
    164  CD2       20.4380   33.5230   -8.1810 C.3   127  LEU127      0.0001
    165  N         21.0320   31.5730   -2.6240 N.3   137  ALA137     -0.1231
    166  CA        22.1730   32.4840   -2.4920 C.3   137  ALA137      0.1694
    167  C         21.8130   33.5730   -1.4800 C.2   137  ALA137      0.2592
    168  O         20.6680   33.6090   -1.0070 O.2   137  ALA137     -0.2718
    169  CB        22.5120   33.1090   -3.8430 C.3   137  ALA137      0.0304
    170  N         22.7990   34.4410   -1.1440 N.am  138  ASP138     -0.1974
    171  CA        22.6910   35.6210   -0.2720 C.3   138  ASP138      0.1709
    172  C         22.1560   35.3200    1.1450 C.2   138  ASP138      0.2293
    173  O         21.1020   35.8360    1.5350 O.2   138  ASP138     -0.2864
    174  CB        21.8570   36.7200   -0.9700 C.3   138  ASP138      0.1436
    175  CG        21.7930   38.0390   -0.2280 C.2   138  ASP138      0.3671
    176  OD1       22.7560   38.3500    0.5170 O.co2 138  ASP138     -0.2456
    177  OD2       20.7620   38.7430   -0.3580 O.co2 138  ASP138     -0.2456
@<TRIPOS>BOND
     1   105   104   ar
     2   106   104   ar
     3   104   103    1
     4   115   113   am
     5   127   126    2
     6   103   100    1
     7   114   113    2
     8   113   112    1
     9   126   125    1
    10   102   101    2
    11   128   130    1
    12   128   125    1
    13   128   129    1
    14   100   101    1
    15   100    99    1
    16   125   124    1
    17   111   112    1
    18   111   108    1
    19   101   107   am
    20    90    88   ar
    21    90    91   ar
    22    88    87   ar
    23     1     2    1
    24   107   108    1
    25    99    94   am
    26    91    89   ar
    27   108   109    1
    28     4     3    2
    29    87    89   ar
    30    87    86    1
    31    94    95    2
    32    94    93    1
    33     2     3    1
    34     2     5    1
    35     3    10   am
    36     5     6    1
    37   109   116   am
    38   109   110    2
    39   119   118    2
    40    86    83    1
    41   116   117    1
    42    93    92    1
    43    93    96    1
    44   122   121   ar
    45    85    84    2
    46    15    17    1
    47    15    14    1
    48    10    11    1
    49    84    92   am
    50    84    83    1
    51    11    14    1
    52    11    12    1
    53    98    96    1
    54   118   117    1
    55     6     7    1
    56    96    97    1
    57    83    82    1
    58   121   123   ar
    59   121   120    1
    60     7     8   ar
    61     7     9   ar
    62   117   120    1
    63    14    16    1
    64    13    12    2
    65    12    18   am
    66    82    75   am
    67    18    19    1
    68    37    36    2
    69    41    42    1
    70   159   160    2
    71   159   158    1
    72    75    74    1
    73    75    76    2
    74    81    79   ar
    75    42    45    1
    76    42    43    1
    77   158   161    1
    78   158   157    1
    79    36    35    1
    80    19    20    1
    81   161   162    1
    82    74    77    1
    83    74    73    1
    84    77    78    2
    85   164   162    1
    86   147   146    2
    87    79    78    1
    88    79    80   ar
    89    65    64    2
    90    20    21    2
    91    43    44    2
    92   162   163    1
    93   145   146    1
    94   145   144    1
    95    39    38    1
    96    35    38    1
    97    35    34    1
    98    73    64   am
    99   146   148   am
   100    64    63    1
   101    38    40    1
   102   143   142    2
   103   141   140    1
   104   141   144    1
   105   141   142    1
   106   142   149   am
   107    61    59    1
   108    63    62    1
   109    63    66    1
   110    66    67    1
   111   149   150    1
   112    33    32    1
   113    46    47    1
   114   150   151    1
   115   150   153    1
   116   151   152    2
   117    59    56    1
   118    59    60    1
   119    56    57    1
   120    56    55    1
   121   169   166    1
   122   134   133    2
   123    47    50    1
   124    47    48    1
   125   133   132    1
   126    67    69   ar
   127    67    68   ar
   128    69    71   ar
   129    32    30   ar
   130    32    31   ar
   131    57    58    2
   132    30    28   ar
   133   153   154    1
   134    50    51    1
   135    48    49    2
   136   165   166    1
   137    68    70   ar
   138   136   135    1
   139   136   137    1
   140    71    72   ar
   141   166   167    1
   142   135   132    1
   143   132   131    1
   144   137   138    1
   145    31    29   ar
   146   138   139    1
   147   154   155    2
   148   154   156   am
   149    51    52    1
   150    28    27   ar
   151   167   170   am
   152   167   168    2
   153    70    72   ar
   154    52    53    1
   155   170   171    1
   156    29    27   ar
   157    53    54    1
   158   174   171    1
   159   174   175    1
   160    27    26    1
   161   177   175   ar
   162   171   172    1
   163   175   176   ar
   164    24    25    2
   165    24    23    1
   166    26    23    1
   167    22    23    1
   168   172   173    2
