@<TRIPOS>MOLECULE
tmp/5l2tA00.pdb
 181 172 0 0 0
SMALL
GASTEIGER

@<TRIPOS>ATOM
      1  N         26.5080   41.5360  -10.7900 N.3     9  ILE9       -0.1231
      2  CA        25.3600   40.6170  -10.7720 C.3     9  ILE9        0.1692
      3  C         24.0560   41.4280  -10.6510 C.2     9  ILE9        0.2592
      4  O         23.2910   41.4950  -11.6190 O.2     9  ILE9       -0.2718
      5  CB        25.5040   39.4520   -9.7530 C.3     9  ILE9        0.0266
      6  CG1       26.7460   38.5580  -10.0730 C.3     9  ILE9        0.0019
      7  CG2       24.2310   38.6190   -9.6710 C.3     9  ILE9        0.0020
      8  CD1       26.6710   37.5710  -11.2760 C.3     9  ILE9        0.0001
      9  N         23.8570   42.0730   -9.5060 N.am   10  GLY10      -0.1957
     10  CA        22.7300   42.9700   -9.2750 C.3    10  GLY10       0.1869
     11  C         23.2730   44.2390   -8.6560 C.2    10  GLY10       0.2309
     12  O         24.3190   44.7470   -9.0800 O.2    10  GLY10      -0.2863
     13  N         28.6100   42.5220   -6.0500 N.3    17  VAL17      -0.1245
     14  CA        28.7910   41.1260   -6.4790 C.3    17  VAL17       0.1561
     15  C         29.1310   41.1450   -7.9650 C.2    17  VAL17       0.2260
     16  O         28.4130   41.7390   -8.7700 O.2    17  VAL17      -0.2867
     17  CB        27.5720   40.1920   -6.1730 C.3    17  VAL17       0.0252
     18  CG1       27.8930   38.7320   -6.4910 C.3    17  VAL17       0.0019
     19  CG2       27.1210   40.3240   -4.7280 C.3    17  VAL17       0.0019
     20  N         30.9700   33.8270   -8.9780 N.3    31  ALA31      -0.1245
     21  CA        30.3350   34.9840   -8.3620 C.3    31  ALA31       0.1562
     22  C         31.2850   35.4140   -7.2510 C.2    31  ALA31       0.2260
     23  O         31.6070   34.6260   -6.3670 O.2    31  ALA31      -0.2867
     24  CB        28.9750   34.6190   -7.7960 C.3    31  ALA31       0.0290
     25  N         32.2760   38.2630   -4.2930 N.3    33  LYS33      -0.1245
     26  CA        31.7130   39.2460   -3.3700 C.3    33  LYS33       0.1561
     27  C         32.7770   39.6650   -2.3650 C.2    33  LYS33       0.2260
     28  O         33.4480   38.8060   -1.7980 O.2    33  LYS33      -0.2867
     29  CB        30.4590   38.7080   -2.6490 C.3    33  LYS33       0.0271
     30  CG        29.6080   39.8380   -2.0480 C.3    33  LYS33       0.0035
     31  CD        28.7620   39.4160   -0.8630 C.3    33  LYS33       0.0206
     32  CE        27.9110   40.5560   -0.3670 C.3    33  LYS33       0.1093
     33  NZ        26.7720   40.8560   -1.2830 N.3    33  LYS33      -0.1314
     34  N         23.9830   27.1110   -2.9300 N.3    58  VAL58      -0.1245
     35  CA        25.0520   27.5910   -3.8120 C.3    58  VAL58       0.1561
     36  C         26.4500   27.1920   -3.2800 C.2    58  VAL58       0.2260
     37  O         26.7480   27.4130   -2.1080 O.2    58  VAL58      -0.2867
     38  CB        24.9110   29.1210   -4.0840 C.3    58  VAL58       0.0252
     39  CG1       25.2000   29.9600   -2.8240 C.3    58  VAL58       0.0019
     40  CG2       25.8000   29.5550   -5.2390 C.3    58  VAL58       0.0019
     41  N         34.8930   36.5170   -1.2930 N.3    69  LEU69      -0.1245
     42  CA        34.0980   35.2800   -1.3680 C.3    69  LEU69       0.1561
     43  C         33.8650   34.8180   -2.8020 C.2    69  LEU69       0.2260
     44  O         33.2380   35.5210   -3.5840 O.2    69  LEU69      -0.2867
     45  CB        32.7400   35.4940   -0.6660 C.3    69  LEU69       0.0270
     46  CG        32.5320   34.8880    0.7260 C.3    69  LEU69       0.0019
     47  CD1       33.5590   35.3830    1.7320 C.3    69  LEU69       0.0001
     48  CD2       31.1760   35.2800    1.2650 C.3    69  LEU69       0.0001
     49  N         32.0900   32.0710   -5.1760 N.3    71  PHE71      -0.1227
     50  CA        31.0330   31.0620   -5.2690 C.3    71  PHE71       0.1736
     51  C         30.9670   30.5690   -6.7040 C.2    71  PHE71       0.2595
     52  O         31.4640   31.2520   -7.6030 O.2    71  PHE71      -0.2718
     53  CB        29.6660   31.6760   -4.9270 C.3    71  PHE71       0.0547
     54  CG        29.4910   32.1910   -3.5200 C.ar   71  PHE71      -0.0202
     55  CD1       28.9280   31.3860   -2.5340 C.ar   71  PHE71      -0.0042
     56  CD2       29.8010   33.5080   -3.2010 C.ar   71  PHE71      -0.0042
     57  CE1       28.7210   31.8750   -1.2440 C.ar   71  PHE71      -0.0003
     58  CE2       29.6250   33.9850   -1.9050 C.ar   71  PHE71      -0.0003
     59  CZ        29.0700   33.1700   -0.9370 C.ar   71  PHE71      -0.0000
     60  N         30.2740   29.4400   -6.9410 N.am   72  GLU72      -0.1965
     61  CA        29.9970   29.0000   -8.3030 C.3    72  GLU72       0.1733
     62  C         29.1010   30.1020   -8.9530 C.2    72  GLU72       0.2616
     63  O         28.5910   30.9630   -8.2420 O.2    72  GLU72      -0.2715
     64  CB        29.2550   27.6530   -8.2930 C.3    72  GLU72       0.0429
     65  CG        27.8830   27.7320   -7.6600 C.3    72  GLU72       0.1163
     66  CD        27.0400   26.4900   -7.7720 C.2    72  GLU72       0.3649
     67  OE1       26.4530   26.0750   -6.7460 O.co2  72  GLU72      -0.2457
     68  OE2       26.9570   25.9330   -8.8890 O.co2  72  GLU72      -0.2457
     69  N         28.9570   30.1080  -10.2690 N.am   73  HIS73      -0.1959
     70  CA        28.0850   31.0900  -10.9070 C.3    73  HIS73       0.1787
     71  C         26.9030   30.3620  -11.5200 C.2    73  HIS73       0.2620
     72  O         27.0840   29.2640  -12.0470 O.2    73  HIS73      -0.2715
     73  CB        28.8280   31.9030  -11.9770 C.3    73  HIS73       0.0785
     74  CG        27.9440   32.8700  -12.7100 C.ar   73  HIS73       0.0821
     75  ND1       27.4040   32.5590  -13.9570 N.ar   73  HIS73      -0.2267
     76  CD2       27.4740   34.0820  -12.3190 C.ar   73  HIS73       0.1154
     77  CE1       26.6510   33.5950  -14.2880 C.ar   73  HIS73       0.1986
     78  NE2       26.6600   34.5340  -13.3290 N.ar   73  HIS73      -0.2212
     79  N         25.6940   30.9130  -11.3960 N.am   74  VAL74      -0.1963
     80  CA        24.5430   30.3260  -12.0750 C.3    74  VAL74       0.1727
     81  C         23.8610   31.4920  -12.8320 C.2    74  VAL74       0.2616
     82  O         23.8220   32.6330  -12.3550 O.2    74  VAL74      -0.2715
     83  CB        23.6160   29.3320  -11.2970 C.3    74  VAL74       0.0290
     84  CG1       24.0510   29.0770   -9.8660 C.3    74  VAL74       0.0023
     85  CG2       22.1330   29.6160  -11.4310 C.3    74  VAL74       0.0023
     86  N         23.5360   31.2140  -14.0980 N.am   75  ASP75      -0.1957
     87  CA        23.0250   32.1470  -15.0980 C.3    75  ASP75       0.1840
     88  C         21.7300   32.8190  -14.7440 C.2    75  ASP75       0.2622
     89  O         21.5950   34.0070  -15.0120 O.2    75  ASP75      -0.2715
     90  CB        22.8760   31.4490  -16.4660 C.3    75  ASP75       0.1450
     91  CG        24.1670   31.1970  -17.2080 C.2    75  ASP75       0.3671
     92  OD1       24.8370   32.1920  -17.5920 O.co2  75  ASP75      -0.2456
     93  OD2       24.4770   30.0060  -17.4740 O.co2  75  ASP75      -0.2456
     94  N         20.7500   32.0720  -14.2150 N.am   76  GLN76      -0.1963
     95  CA        19.4840   32.6990  -13.9140 C.3    76  GLN76       0.1733
     96  C         19.0570   32.5160  -12.4540 C.2    76  GLN76       0.2616
     97  O         19.5260   31.6210  -11.7550 O.2    76  GLN76      -0.2715
     98  CB        18.3810   32.2700  -14.9290 C.3    76  GLN76       0.0408
     99  CG        17.7270   30.9190  -14.6900 C.3    76  GLN76       0.0908
    100  CD        17.0400   30.3540  -15.9100 C.2    76  GLN76       0.2608
    101  OE1       16.0460   30.8950  -16.4150 O.2    76  GLN76      -0.2717
    102  NE2       17.5140   29.1980  -16.3550 N.am   76  GLN76      -0.0878
    103  N         18.2090   33.4470  -12.0000 N.am   77  ASP77      -0.1971
    104  CA        17.5510   33.4550  -10.7000 C.3    77  ASP77       0.1709
    105  C         16.1210   33.0340  -11.0440 C.2    77  ASP77       0.2293
    106  O         15.7990   32.9350  -12.2330 O.2    77  ASP77      -0.2864
    107  CB        17.6210   34.8610  -10.0570 C.3    77  ASP77       0.1436
    108  CG        16.9330   35.9940  -10.8230 C.2    77  ASP77       0.3671
    109  OD1       16.6270   35.8090  -12.0160 O.co2  77  ASP77      -0.2456
    110  OD2       16.6980   37.0620  -10.2190 O.co2  77  ASP77      -0.2456
    111  N         13.3710   34.7350  -10.7870 N.3    79  THR79      -0.1203
    112  CA        12.7120   35.8890  -11.4200 C.3    79  THR79       0.1994
    113  C         12.7950   35.7810  -12.9390 C.2    79  THR79       0.2618
    114  O         11.7550   35.8040  -13.6010 O.2    79  THR79      -0.2717
    115  CB        13.3070   37.2450  -10.9020 C.3    79  THR79       0.1784
    116  OG1       12.8420   37.4940   -9.5800 O.3    79  THR79      -0.2211
    117  CG2       12.9170   38.4370  -11.7720 C.3    79  THR79       0.0376
    118  N         14.0310   35.6410  -13.4840 N.am   80  THR80      -0.1952
    119  CA        14.2420   35.5580  -14.9290 C.3    80  THR80       0.1897
    120  C         13.7160   34.2360  -15.4900 C.2    80  THR80       0.2313
    121  O         13.3110   34.2000  -16.6540 O.2    80  THR80      -0.2863
    122  CB        15.6630   35.8810  -15.3100 C.3    80  THR80       0.1794
    123  OG1       16.5070   34.9860  -14.6210 O.3    80  THR80      -0.2208
    124  CG2       16.0510   37.2980  -14.9350 C.3    80  THR80       0.0378
    125  N         14.8290   36.4290   -6.4500 N.3   122  GLN122     -0.1231
    126  CA        16.0420   37.1130   -6.8900 C.3   122  GLN122      0.1698
    127  C         17.2900   36.4750   -6.3670 C.2   122  GLN122      0.2592
    128  O         18.3480   36.7100   -6.9360 O.2   122  GLN122     -0.2718
    129  CB        16.0000   38.6030   -6.5020 C.3   122  GLN122      0.0381
    130  CG        15.0710   39.4580   -7.3850 C.3   122  GLN122      0.0905
    131  CD        13.6010   39.3890   -6.9970 C.2   122  GLN122      0.2608
    132  OE1       12.7210   39.8060   -7.7640 O.2   122  GLN122     -0.2717
    133  NE2       13.2790   38.8580   -5.8120 N.am  122  GLN122     -0.0878
    134  N         17.2010   35.7270   -5.2500 N.am  123  ASN123     -0.1974
    135  CA        18.3730   35.0300   -4.7160 C.3   123  ASN123      0.1688
    136  C         18.2250   33.4790   -4.7800 C.2   123  ASN123      0.2292
    137  O         19.0940   32.7720   -4.2780 O.2   123  ASN123     -0.2864
    138  CB        18.7960   35.5350   -3.3270 C.3   123  ASN123      0.1181
    139  CG        17.7340   35.6140   -2.2910 C.2   123  ASN123      0.2629
    140  OD1       16.8680   34.7320   -2.1260 O.2   123  ASN123     -0.2716
    141  ND2       17.8120   36.6910   -1.5490 N.am  123  ASN123     -0.0877
    142  N         18.6300   30.4840   -7.1650 N.3   125  LEU125     -0.1245
    143  CA        19.2790   30.2260   -8.4410 C.3   125  LEU125      0.1561
    144  C         18.7010   29.0200   -9.1540 C.2   125  LEU125      0.2260
    145  O         18.4240   27.9970   -8.5310 O.2   125  LEU125     -0.2867
    146  CB        20.7770   30.0870   -8.2460 C.3   125  LEU125      0.0270
    147  CG        21.4440   31.0820   -7.2990 C.3   125  LEU125      0.0019
    148  CD1       22.8260   30.6360   -6.9740 C.3   125  LEU125      0.0001
    149  CD2       21.4020   32.4900   -7.8320 C.3   125  LEU125      0.0001
    150  N         20.8660   30.9650   -2.2340 N.3   135  ALA135     -0.1231
    151  CA        22.0220   31.8580   -2.2180 C.3   135  ALA135      0.1694
    152  C         21.7480   33.1150   -1.3680 C.2   135  ALA135      0.2592
    153  O         20.6000   33.3730   -0.9990 O.2   135  ALA135     -0.2718
    154  CB        22.3730   32.2570   -3.6500 C.3   135  ALA135      0.0304
    155  N         22.8130   33.8820   -1.0700 N.am  136  ASP136     -0.1960
    156  CA        22.7820   35.1850   -0.3940 C.3   136  ASP136      0.1840
    157  C         22.1470   35.1690    1.0250 C.2   136  ASP136      0.2622
    158  O         21.2290   35.9440    1.3130 O.2   136  ASP136     -0.2715
    159  CB        22.0830   36.2110   -1.3230 C.3   136  ASP136      0.1450
    160  CG        22.6050   37.6260   -1.2460 C.2   136  ASP136      0.3671
    161  OD1       23.7220   37.8250   -0.7070 O.co2 136  ASP136     -0.2456
    162  OD2       21.9110   38.5330   -1.7400 O.co2 136  ASP136     -0.2456
    163  N         22.6290   34.2620    1.8810 N.am  137  PHE137     -0.1974
    164  CA        22.2000   34.0420    3.2750 C.3   137  PHE137      0.1639
    165  C         23.4410   33.9280    4.1830 C.2   137  PHE137      0.2290
    166  O         24.5540   33.7290    3.6840 O.2   137  PHE137     -0.2864
    167  CB        21.3660   32.7400    3.3780 C.3   137  PHE137      0.0560
    168  CG        22.1360   31.5090    2.9550 C.ar  137  PHE137     -0.0200
    169  CD1       22.8930   30.7900    3.8760 C.ar  137  PHE137     -0.0042
    170  CD2       22.1350   31.0910    1.6360 C.ar  137  PHE137     -0.0042
    171  CE1       23.6590   29.6940    3.4690 C.ar  137  PHE137     -0.0003
    172  CE2       22.8840   29.9810    1.2330 C.ar  137  PHE137     -0.0003
    173  CZ        23.6470   29.2980    2.1470 C.ar  137  PHE137     -0.0000
    174  N         25.0250   36.1160    6.1770 N.3   139  LEU139     -0.1245
    175  CA        25.9200   37.2790    6.2460 C.3   139  LEU139      0.1561
    176  C         25.1470   38.5350    6.7090 C.2   139  LEU139      0.2260
    177  O         24.0230   38.7670    6.2600 O.2   139  LEU139     -0.2867
    178  CB        26.6000   37.5020    4.8820 C.3   139  LEU139      0.0270
    179  CG        28.1100   37.1940    4.7760 C.3   139  LEU139      0.0019
    180  CD1       28.4230   35.7220    5.0480 C.3   139  LEU139      0.0001
    181  CD2       28.6390   37.5480    3.3970 C.3   139  LEU139      0.0001
@<TRIPOS>BOND
     1    92    91   ar
     2    93    91   ar
     3    91    90    1
     4   121   120    2
     5    90    87    1
     6   101   100    2
     7   102   100   am
     8   100    99    1
     9   120   119    1
    10   122   124    1
    11   122   119    1
    12   122   123    1
    13    87    88    1
    14    87    86    1
    15    89    88    2
    16    98    99    1
    17    98    95    1
    18   119   118    1
    19    88    94   am
    20    77    75   ar
    21    77    78   ar
    22    94    95    1
    23    86    81   am
    24    75    74   ar
    25    95    96    1
    26   114   113    2
    27   118   113   am
    28    78    76   ar
    29   113   112    1
    30    81    82    2
    31    81    80    1
    32    74    76   ar
    33    74    73    1
    34    96   103   am
    35    96    97    2
    36   106   105    2
    37    80    79    1
    38    80    83    1
    39    72    71    2
    40   109   108   ar
    41   103   104    1
    42    73    70    1
    43   117   115    1
    44     4     3    2
    45    71    79   am
    46    71    70    1
    47    85    83    1
    48   112   115    1
    49   112   111    1
    50    83    84    1
    51     8     6    1
    52   105   104    1
    53    70    69    1
    54   115   116    1
    55   108   110   ar
    56   108   107    1
    57     1     2    1
    58     2     3    1
    59     2     5    1
    60   104   107    1
    61     3     9   am
    62    69    62   am
    63     6     5    1
    64     5     7    1
    65     9    10    1
    66    10    11    1
    67   144   145    2
    68   144   143    1
    69    12    11    2
    70    20    21    1
    71    62    61    1
    72    62    63    2
    73    68    66   ar
    74    16    15    2
    75   143   146    1
    76   143   142    1
    77    21    24    1
    78    21    22    1
    79    61    64    1
    80    61    60    1
    81    64    65    1
    82   146   147    1
    83    15    14    1
    84   149   147    1
    85    66    65    1
    86    66    67   ar
    87   132   131    2
    88    52    51    2
    89   130   131    1
    90   130   129    1
    91   147   148    1
    92    22    23    2
    93   131   133   am
    94    60    51   am
    95   128   127    2
    96   126   129    1
    97   126   125    1
    98   126   127    1
    99    51    50    1
   100    18    17    1
   101    14    17    1
   102    14    13    1
   103   127   134   am
   104    17    19    1
   105    50    49    1
   106    50    53    1
   107   134   135    1
   108    40    38    1
   109    53    54    1
   110   136   135    1
   111   136   137    2
   112   135   138    1
   113    25    26    1
   114    38    35    1
   115    38    39    1
   116    35    36    1
   117    35    34    1
   118   154   151    1
   119    44    43    2
   120    54    56   ar
   121    54    55   ar
   122    26    29    1
   123    26    27    1
   124   138   139    1
   125    36    37    2
   126    56    58   ar
   127    43    42    1
   128    29    30    1
   129    55    57   ar
   130    27    28    2
   131   139   140    2
   132   139   141   am
   133   150   151    1
   134   151   152    1
   135    30    31    1
   136    58    59   ar
   137   162   160   ar
   138    42    41    1
   139    42    45    1
   140   152   155   am
   141   152   153    2
   142   159   160    1
   143   159   156    1
   144    33    32    1
   145   160   161   ar
   146    57    59   ar
   147   155   156    1
   148    31    32    1
   149    45    46    1
   150   156   157    1
   151    46    48    1
   152    46    47    1
   153   157   158    2
   154   157   163   am
   155   172   170   ar
   156   172   173   ar
   157   170   168   ar
   158   163   164    1
   159   173   171   ar
   160   168   167    1
   161   168   169   ar
   162   164   167    1
   163   164   165    1
   164   181   179    1
   165   171   169   ar
   166   166   165    2
   167   179   178    1
   168   179   180    1
   169   178   175    1
   170   174   175    1
   171   175   176    1
   172   177   176    2
