@<TRIPOS>MOLECULE
tmp/5l2vA00.pdb
 94 92 0 0 0
SMALL
GASTEIGER

@<TRIPOS>ATOM
      1  N         24.4700   62.1830   37.9880 N.3     3  TYR3       -0.1241
      2  CA        23.5360   61.2750   38.6310 C.3     3  TYR3        0.1605
      3  C         22.4450   60.8960   37.6480 C.2     3  TYR3        0.2264
      4  O         22.2440   61.5710   36.6380 O.2     3  TYR3       -0.2867
      5  CB        22.9230   61.8960   39.9050 C.3     3  TYR3        0.0534
      6  CG        22.2870   63.2590   39.7110 C.ar    3  TYR3       -0.0201
      7  CD1       20.9610   63.4040   39.3500 C.ar    3  TYR3       -0.0009
      8  CD2       23.0150   64.4260   39.9270 C.ar    3  TYR3       -0.0009
      9  CE1       20.3920   64.6540   39.1800 C.ar    3  TYR3        0.0417
     10  CE2       22.4610   65.6830   39.7610 C.ar    3  TYR3        0.0417
     11  CZ        21.1570   65.8020   39.3960 C.ar    3  TYR3        0.1957
     12  OH        20.6240   67.0700   39.2630 O.3     3  TYR3       -0.2866
     13  N         19.3660   60.7800   44.2180 N.3    12  TYR12      -0.1241
     14  CA        18.6630   61.9470   43.6720 C.3    12  TYR12       0.1605
     15  C         17.3360   62.1530   44.4040 C.2    12  TYR12       0.2264
     16  O         16.9880   63.2890   44.7400 O.2    12  TYR12      -0.2867
     17  CB        18.4830   61.8310   42.1660 C.3    12  TYR12       0.0534
     18  CG        17.8240   63.0400   41.5250 C.ar   12  TYR12      -0.0201
     19  CD1       18.2890   64.3370   41.7530 C.ar   12  TYR12      -0.0009
     20  CD2       16.7750   62.8990   40.6390 C.ar   12  TYR12      -0.0009
     21  CE1       17.7100   65.4330   41.1510 C.ar   12  TYR12       0.0417
     22  CE2       16.1960   63.9950   40.0200 C.ar   12  TYR12       0.0417
     23  CZ        16.6650   65.2610   40.3030 C.ar   12  TYR12       0.1957
     24  OH        16.1130   66.3780   39.7070 O.3    12  TYR12      -0.2866
     25  N         16.8260   61.3750   47.4650 N.3    14  ALA14      -0.1231
     26  CA        17.2360   61.9840   48.7400 C.3    14  ALA14       0.1694
     27  C         17.4870   63.4890   48.5960 C.2    14  ALA14       0.2592
     28  O         17.0850   64.2890   49.4560 O.2    14  ALA14      -0.2718
     29  CB        18.4720   61.2990   49.3020 C.3    14  ALA14       0.0304
     30  N         18.1490   63.8840   47.5100 N.am   15  ASN15      -0.1960
     31  CA        18.3770   65.3050   47.2340 C.3    15  ASN15       0.1819
     32  C         17.0730   66.0990   47.1340 C.2    15  ASN15       0.2621
     33  O         17.0430   67.2860   47.4570 O.2    15  ASN15      -0.2715
     34  CB        19.2000   65.4410   45.9520 C.3    15  ASN15       0.1195
     35  CG        19.4860   66.8780   45.5850 C.2    15  ASN15       0.2630
     36  OD1       18.8210   67.4410   44.7100 O.2    15  ASN15      -0.2716
     37  ND2       20.4550   67.4770   46.2610 N.am   15  ASN15      -0.0877
     38  N         16.0040   65.4380   46.6930 N.am   16  LYS16      -0.1963
     39  CA        14.6910   66.0680   46.5220 C.3    16  LYS16       0.1728
     40  C         13.7400   65.7570   47.6720 C.2    16  LYS16       0.2616
     41  O         12.5330   66.0170   47.5720 O.2    16  LYS16      -0.2715
     42  CB        14.1050   65.7370   45.1370 C.3    16  LYS16       0.0311
     43  CG        14.9750   66.2060   43.9810 C.3    16  LYS16       0.0038
     44  CD        15.1680   67.7200   43.9880 C.3    16  LYS16       0.0206
     45  CE        16.0020   68.2020   42.8130 C.3    16  LYS16       0.1093
     46  NZ        16.1570   69.6850   42.8250 N.3    16  LYS16      -0.1314
     47  N         14.2690   65.2330   48.7850 N.am   17  GLY17      -0.1955
     48  CA        13.4880   65.0810   50.0110 C.3    17  GLY17       0.1869
     49  C         12.5300   63.9040   50.0530 C.2    17  GLY17       0.2309
     50  O         11.7880   63.7610   51.0200 O.2    17  GLY17      -0.2863
     51  N         22.8160   63.5730   50.6840 N.3    26  GLN26      -0.1231
     52  CA        21.6710   64.3000   50.1300 C.3    26  GLN26       0.1698
     53  C         22.0960   65.5450   49.3540 C.2    26  GLN26       0.2592
     54  O         21.3590   65.9840   48.4840 O.2    26  GLN26      -0.2718
     55  CB        20.6620   64.6820   51.2090 C.3    26  GLN26       0.0381
     56  CG        21.1330   65.7830   52.1390 C.3    26  GLN26       0.0905
     57  CD        20.2160   65.9620   53.3140 C.2    26  GLN26       0.2608
     58  OE1       19.1360   66.5050   53.1870 O.2    26  GLN26      -0.2717
     59  NE2       20.6200   65.4560   54.4550 N.am   26  GLN26      -0.0878
     60  N         23.2490   66.1260   49.6870 N.am   27  TYR27      -0.1976
     61  CA        23.7100   67.3590   49.0410 C.3    27  TYR27       0.1639
     62  C         24.5550   67.1150   47.8030 C.2    27  TYR27       0.2290
     63  O         24.8510   68.0690   47.0900 O.2    27  TYR27      -0.2864
     64  CB        24.5280   68.1990   50.0400 C.3    27  TYR27       0.0560
     65  CG        23.7630   68.5350   51.2880 C.ar   27  TYR27      -0.0198
     66  CD1       22.6380   69.3590   51.2410 C.ar   27  TYR27      -0.0009
     67  CD2       24.1150   67.9960   52.5190 C.ar   27  TYR27      -0.0009
     68  CE1       21.8940   69.6180   52.3720 C.ar   27  TYR27       0.0417
     69  CE2       23.3850   68.2750   53.6620 C.ar   27  TYR27       0.0417
     70  CZ        22.2690   69.0850   53.5820 C.ar   27  TYR27       0.1957
     71  OH        21.5340   69.3530   54.7040 O.3    27  TYR27      -0.2866
     72  N         24.2760   64.2890   45.1420 N.3    29  PRO29      -0.2102
     73  CA        23.8980   63.1190   44.3410 C.3    29  PRO29       0.1504
     74  C         24.8550   62.8510   43.1670 C.2    29  PRO29       0.2575
     75  O         24.9450   61.7080   42.7170 O.2    29  PRO29      -0.2718
     76  CB        22.4810   63.4650   43.8740 C.3    29  PRO29       0.0282
     77  CG        22.4450   64.9640   43.8990 C.3    29  PRO29       0.0208
     78  CD        23.2380   65.3310   45.1180 C.3    29  PRO29       0.0893
     79  N         25.5210   63.9030   42.6750 N.am   30  GLN30      -0.1980
     80  CA        26.4730   63.8260   41.5800 C.3    30  GLN30       0.1601
     81  C         27.8430   63.2730   41.9490 C.2    30  GLN30       0.2287
     82  O         28.6770   63.1230   41.0570 O.2    30  GLN30      -0.2864
     83  CB        26.6380   65.2050   40.9420 C.3    30  GLN30       0.0394
     84  CG        27.3920   66.2540   41.7510 C.3    30  GLN30       0.0908
     85  CD        26.5750   67.0470   42.7530 C.2    30  GLN30       0.2608
     86  OE1       25.5430   66.6260   43.2620 O.2    30  GLN30      -0.2717
     87  NE2       27.0780   68.2100   43.0720 N.am   30  GLN30      -0.0878
     88  N         26.6360   67.0480   35.9090 N.3    82  THR82      -0.1218
     89  CA        27.0420   68.3690   36.4110 C.3    82  THR82       0.1862
     90  C         28.4480   68.7290   35.9310 C.2    82  THR82       0.2287
     91  O         28.7620   69.9080   35.7930 O.2    82  THR82      -0.2866
     92  CB        26.9420   68.4250   37.9460 C.3    82  THR82       0.1770
     93  OG1       27.8130   67.4350   38.5190 O.3    82  THR82      -0.2211
     94  CG2       25.5210   68.1520   38.4190 C.3    82  THR82       0.0375
@<TRIPOS>BOND
     1    91    90    2
     2    88    89    1
     3    90    89    1
     4    89    92    1
     5     4     3    2
     6     3     2    1
     7    92    94    1
     8    92    93    1
     9     1     2    1
    10     2     5    1
    11     9     7   ar
    12     9    11   ar
    13    12    11    1
    14     7     6   ar
    15    11    10   ar
    16    24    23    1
    17     6     5    1
    18     6     8   ar
    19    10     8   ar
    20    22    23   ar
    21    22    20   ar
    22    23    21   ar
    23    20    18   ar
    24    83    80    1
    25    83    84    1
    26    82    81    2
    27    21    19   ar
    28    18    19   ar
    29    18    17    1
    30    80    81    1
    31    80    79    1
    32    84    85    1
    33    17    14    1
    34    79    74   am
    35    75    74    2
    36    85    87   am
    37    85    86    2
    38    45    46    1
    39    45    44    1
    40    74    73    1
    41    14    13    1
    42    14    15    1
    43    76    77    1
    44    76    73    1
    45    77    78    1
    46    43    44    1
    47    43    42    1
    48    73    72    1
    49    15    16    2
    50    36    35    2
    51    78    72    1
    52    42    39    1
    53    35    34    1
    54    35    37   am
    55    34    31    1
    56    39    38    1
    57    39    40    1
    58    38    32   am
    59    63    62    2
    60    32    31    1
    61    32    33    2
    62    31    30    1
    63    25    26    1
    64    30    27   am
    65    41    40    2
    66    40    47   am
    67    62    61    1
    68    54    53    2
    69    27    26    1
    70    27    28    2
    71    26    29    1
    72    47    48    1
    73    61    60    1
    74    61    64    1
    75    53    60   am
    76    53    52    1
    77    48    49    1
    78    64    65    1
    79    49    50    2
    80    52    51    1
    81    52    55    1
    82    55    56    1
    83    66    65   ar
    84    66    68   ar
    85    65    67   ar
    86    56    57    1
    87    68    70   ar
    88    67    69   ar
    89    58    57    2
    90    57    59   am
    91    70    69   ar
    92    70    71    1
