@<TRIPOS>MOLECULE
tmp/5l2xA00.pdb
 158 146 0 0 0
SMALL
GASTEIGER

@<TRIPOS>ATOM
      1  N         43.2610  -52.3210    9.5160 N.3    51  GLU51      -0.1245
      2  CA        42.0850  -52.2400   10.3720 C.3    51  GLU51       0.1567
      3  C         41.3420  -50.9420   10.0900 C.2    51  GLU51       0.2260
      4  O         41.8900  -49.8540   10.2690 O.2    51  GLU51      -0.2867
      5  CB        42.4880  -52.3110   11.8370 C.3    51  GLU51       0.0388
      6  CG        42.4410  -53.6980   12.4410 C.3    51  GLU51       0.1160
      7  CD        42.6420  -53.6540   13.9420 C.2    51  GLU51       0.3649
      8  OE1       43.3350  -52.7250   14.4110 O.co2  51  GLU51      -0.2457
      9  OE2       42.1110  -54.5260   14.6550 O.co2  51  GLU51      -0.2457
     10  N         37.2730  -55.9620   14.3600 N.3    57  GLY57      -0.1225
     11  CA        38.5430  -56.3770   13.8100 C.3    57  GLY57       0.1811
     12  C         38.4510  -56.5250   12.3100 C.2    57  GLY57       0.2280
     13  O         39.2920  -57.1790   11.6810 O.2    57  GLY57      -0.2866
     14  N         38.8610  -55.9250    8.4690 N.3    59  ARG59      -0.1245
     15  CA        40.0200  -55.4690    7.7260 C.3    59  ARG59       0.1563
     16  C         39.6540  -55.2500    6.2720 C.2    59  ARG59       0.2260
     17  O         38.7310  -55.8710    5.7400 O.2    59  ARG59      -0.2867
     18  CB        41.1730  -56.4710    7.7930 C.3    59  ARG59       0.0307
     19  CG        41.9380  -56.4690    9.0990 C.3    59  ARG59       0.0489
     20  CD        41.8670  -57.8170    9.7700 C.3    59  ARG59       0.2205
     21  NE        43.0250  -58.0410   10.6240 N.pl3  59  ARG59      -0.0865
     22  CZ        43.0910  -57.6790   11.8980 C.cat  59  ARG59       0.5346
     23  NH1       42.0570  -57.0720   12.4640 N.pl3  59  ARG59       0.1354
     24  NH2       44.1890  -57.9220   12.6010 N.pl3  59  ARG59       0.1354
     25  N         48.8270  -54.5720    9.3850 N.3    83  TYR83      -0.1241
     26  CA        49.1470  -55.9570    9.6880 C.3    83  TYR83       0.1605
     27  C         49.8060  -56.6140    8.4830 C.2    83  TYR83       0.2264
     28  O         49.3800  -56.4220    7.3400 O.2    83  TYR83      -0.2867
     29  CB        47.8760  -56.7350   10.0930 C.3    83  TYR83       0.0534
     30  CG        47.2940  -56.2530   11.3990 C.ar   83  TYR83      -0.0201
     31  CD1       46.4470  -55.1510   11.4340 C.ar   83  TYR83      -0.0009
     32  CD2       47.6150  -56.8800   12.6020 C.ar   83  TYR83      -0.0009
     33  CE1       45.9280  -54.6910   12.6190 C.ar   83  TYR83       0.0417
     34  CE2       47.0950  -56.4260   13.8010 C.ar   83  TYR83       0.0417
     35  CZ        46.2500  -55.3290   13.7940 C.ar   83  TYR83       0.1957
     36  OH        45.7250  -54.8560   14.9760 O.3    83  TYR83      -0.2866
     37  N         54.8950  -64.4800   19.5580 N.3    97  ASP97      -0.1239
     38  CA        54.0330  -63.4970   20.2030 C.3    97  ASP97       0.1674
     39  C         53.9890  -63.8650   21.6830 C.2    97  ASP97       0.2266
     40  O         53.4190  -64.9030   22.0510 O.2    97  ASP97      -0.2867
     41  CB        52.6390  -63.4920   19.5800 C.3    97  ASP97       0.1410
     42  CG        51.7250  -62.4690   20.2160 C.2    97  ASP97       0.3668
     43  OD1       52.1230  -61.2860   20.2810 O.co2  97  ASP97      -0.2456
     44  OD2       50.6100  -62.8420   20.6580 O.co2  97  ASP97      -0.2456
     45  N         53.1380  -62.7050   25.6650 N.3    99  GLU99      -0.1245
     46  CA        52.3460  -61.7740   26.4550 C.3    99  GLU99       0.1567
     47  C         51.9440  -62.3970   27.7870 C.2    99  GLU99       0.2260
     48  O         51.7480  -63.6130   27.8910 O.2    99  GLU99      -0.2867
     49  CB        51.0930  -61.3300   25.7000 C.3    99  GLU99       0.0388
     50  CG        50.1960  -62.4570   25.2790 C.3    99  GLU99       0.1160
     51  CD        49.0990  -61.9780   24.3590 C.2    99  GLU99       0.3649
     52  OE1       47.9160  -62.3180   24.5740 O.co2  99  GLU99      -0.2457
     53  OE2       49.4290  -61.2260   23.4210 O.co2  99  GLU99      -0.2457
     54  N         55.4230  -53.9400   22.6940 N.3   143  SER143     -0.1217
     55  CA        54.1580  -53.2170   22.6600 C.3   143  SER143      0.1889
     56  C         53.5180  -53.1830   24.0430 C.2   143  SER143      0.2288
     57  O         52.2990  -53.2050   24.1610 O.2   143  SER143     -0.2866
     58  CB        53.1950  -53.8340   21.6470 C.3   143  SER143      0.2089
     59  OG        52.0960  -52.9590   21.4260 O.3   143  SER143     -0.2183
     60  N         49.7440  -54.9300   30.3190 N.3   148  LYS148     -0.1245
     61  CA        50.1710  -56.0720   29.5120 C.3   148  LYS148      0.1561
     62  C         51.6520  -55.9830   29.1720 C.2   148  LYS148      0.2260
     63  O         52.1110  -54.9700   28.6440 O.2   148  LYS148     -0.2867
     64  CB        49.3430  -56.1530   28.2230 C.3   148  LYS148      0.0271
     65  CG        49.4790  -57.4650   27.4690 C.3   148  LYS148      0.0035
     66  CD        48.4370  -57.5530   26.3570 C.3   148  LYS148      0.0206
     67  CE        48.5720  -58.8510   25.5620 C.3   148  LYS148      0.1093
     68  NZ        47.6930  -58.8820   24.3560 N.3   148  LYS148     -0.1314
     69  N         53.8720  -57.1810   26.4870 N.3   150  SER150     -0.1217
     70  CA        53.6290  -57.6520   25.1250 C.3   150  SER150      0.1889
     71  C         54.8950  -57.5020   24.3020 C.2   150  SER150      0.2288
     72  O         55.4240  -56.3880   24.1670 O.2   150  SER150     -0.2866
     73  CB        52.4800  -56.8800   24.4850 C.3   150  SER150      0.2089
     74  OG        52.3720  -57.1840   23.1130 O.3   150  SER150     -0.2183
     75  N         56.9460  -58.9870   20.5600 N.3   152  HIS152     -0.1241
     76  CA        57.0630  -59.7760   19.3410 C.3   152  HIS152      0.1621
     77  C         58.5360  -60.0420   19.0970 C.2   152  HIS152      0.2264
     78  O         59.3380  -59.1050   19.0880 O.2   152  HIS152     -0.2867
     79  CB        56.4550  -59.0500   18.1340 C.3   152  HIS152      0.0745
     80  CG        54.9590  -59.0480   18.1100 C.ar  152  HIS152      0.0817
     81  ND1       54.2350  -58.6750   16.9950 N.ar  152  HIS152     -0.2268
     82  CD2       54.0480  -59.3690   19.0610 C.ar  152  HIS152      0.1154
     83  CE1       52.9440  -58.7780   17.2580 C.ar  152  HIS152      0.1986
     84  NE2       52.8040  -59.1920   18.5060 N.ar  152  HIS152     -0.2212
     85  N         52.3370  -67.3870   23.0910 N.3   203  ASP203     -0.1239
     86  CA        51.0060  -67.4920   22.4910 C.3   203  ASP203      0.1674
     87  C         51.0660  -68.4520   21.2970 C.2   203  ASP203      0.2266
     88  O         51.6540  -68.1270   20.2580 O.2   203  ASP203     -0.2867
     89  CB        50.5660  -66.0910   22.0750 C.3   203  ASP203      0.1410
     90  CG        49.3050  -66.0680   21.2500 C.2   203  ASP203      0.3668
     91  OD1       48.6380  -67.1090   21.0840 O.co2 203  ASP203     -0.2456
     92  OD2       48.9770  -64.9690   20.7500 O.co2 203  ASP203     -0.2456
     93  N         49.0370  -68.0580   17.0470 N.3   206  VAL206     -0.1245
     94  CA        49.4130  -67.1990   15.9300 C.3   206  VAL206      0.1561
     95  C         50.0440  -67.9710   14.7830 C.2   206  VAL206      0.2260
     96  O         50.5070  -67.3540   13.8190 O.2   206  VAL206     -0.2867
     97  CB        50.3840  -66.0980   16.3970 C.3   206  VAL206      0.0252
     98  CG1       49.7420  -65.2700   17.4770 C.3   206  VAL206      0.0019
     99  CG2       51.6420  -66.7230   16.9150 C.3   206  VAL206      0.0019
    100  N         47.7890  -65.9010    8.9690 N.3   211  ARG211     -0.1231
    101  CA        47.8060  -65.1320   10.2100 C.3   211  ARG211      0.1694
    102  C         48.1890  -63.6660    9.9760 C.2   211  ARG211      0.2592
    103  O         49.1740  -63.3600    9.3070 O.2   211  ARG211     -0.2718
    104  CB        48.7790  -65.7770   11.2060 C.3   211  ARG211      0.0321
    105  CG        49.2680  -64.8250   12.3000 C.3   211  ARG211      0.0489
    106  CD        48.2320  -64.5680   13.3740 C.3   211  ARG211      0.2205
    107  NE        47.3400  -65.7150   13.5870 N.pl3 211  ARG211     -0.0865
    108  CZ        46.2800  -65.7300   14.3850 C.cat 211  ARG211      0.5346
    109  NH1       45.9580  -64.6490   15.0850 N.pl3 211  ARG211      0.1354
    110  NH2       45.5680  -66.8410   14.4740 N.pl3 211  ARG211      0.1354
    111  N         47.3780  -62.7570   10.5010 N.am  212  ASN212     -0.1960
    112  CA        47.7320  -61.3440   10.5260 C.3   212  ASN212      0.1819
    113  C         48.7220  -61.0960   11.6520 C.2   212  ASN212      0.2621
    114  O         48.5450  -61.6080   12.7560 O.2   212  ASN212     -0.2715
    115  CB        46.4900  -60.4820   10.7310 C.3   212  ASN212      0.1195
    116  CG        45.6990  -60.2930    9.4590 C.2   212  ASN212      0.2630
    117  OD1       44.8800  -59.3860    9.3580 O.2   212  ASN212     -0.2716
    118  ND2       45.9590  -61.1410    8.4630 N.am  212  ASN212     -0.0877
    119  N         49.7750  -60.3200   11.3740 N.am  213  PHE213     -0.1960
    120  CA        50.7670  -59.9980   12.4010 C.3   213  PHE213      0.1771
    121  C         51.0860  -58.5110   12.3310 C.2   213  PHE213      0.2619
    122  O         51.5330  -58.0180   11.2930 O.2   213  PHE213     -0.2715
    123  CB        52.0420  -60.8290   12.2410 C.3   213  PHE213      0.0574
    124  CG        52.7350  -61.1280   13.5490 C.ar  213  PHE213     -0.0200
    125  CD1       52.0410  -61.7110   14.5910 C.ar  213  PHE213     -0.0042
    126  CD2       54.0730  -60.8380   13.7290 C.ar  213  PHE213     -0.0042
    127  CE1       52.6670  -62.0010   15.7930 C.ar  213  PHE213     -0.0003
    128  CE2       54.7050  -61.1240   14.9280 C.ar  213  PHE213     -0.0003
    129  CZ        54.0020  -61.7070   15.9590 C.ar  213  PHE213     -0.0000
    130  N         50.8870  -57.8200   13.4500 N.am  214  ARG214     -0.1977
    131  CA        50.8750  -56.3650   13.4860 C.3   214  ARG214      0.1597
    132  C         52.2420  -55.7980   13.1260 C.2   214  ARG214      0.2287
    133  O         53.2690  -56.2450   13.6460 O.2   214  ARG214     -0.2864
    134  CB        50.4220  -55.9040   14.8780 C.3   214  ARG214      0.0334
    135  CG        50.3950  -54.3900   15.0890 C.3   214  ARG214      0.0492
    136  CD        49.4750  -53.9610   16.2580 C.3   214  ARG214      0.2205
    137  NE        49.8700  -54.5720   17.5200 N.pl3 214  ARG214     -0.0865
    138  CZ        50.5090  -53.9640   18.5180 C.cat 214  ARG214      0.5346
    139  NH1       50.8490  -52.6850   18.4520 N.pl3 214  ARG214      0.1354
    140  NH2       50.7960  -54.6590   19.6070 N.pl3 214  ARG214      0.1354
    141  N         47.0920  -51.3570   17.4950 N.3   220  LYS220     -0.1245
    142  CA        45.7130  -51.7940   17.3440 C.3   220  LYS220      0.1561
    143  C         44.7860  -50.5830   17.3380 C.2   220  LYS220      0.2260
    144  O         45.0690  -49.5500   17.9630 O.2   220  LYS220     -0.2867
    145  CB        45.3340  -52.7510   18.4700 C.3   220  LYS220      0.0271
    146  CG        45.9850  -54.1200   18.3630 C.3   220  LYS220      0.0035
    147  CD        45.9040  -54.8610   19.6750 C.3   220  LYS220      0.0206
    148  CE        45.5520  -56.3130   19.4550 C.3   220  LYS220      0.1093
    149  NZ        45.1930  -57.0090   20.7240 N.3   220  LYS220     -0.1314
    150  N         43.6920  -48.6080   20.2760 N.3   223  LYS223     -0.1245
    151  CA        44.7250  -48.2760   21.2420 C.3   223  LYS223      0.1561
    152  C         45.7160  -47.2820   20.6520 C.2   223  LYS223      0.2260
    153  O         45.5650  -46.8030   19.5240 O.2   223  LYS223     -0.2867
    154  CB        45.4340  -49.5510   21.7180 C.3   223  LYS223      0.0271
    155  CG        44.4350  -50.5240   22.3580 C.3   223  LYS223      0.0035
    156  CD        45.1880  -51.7190   22.9070 C.3   223  LYS223      0.0206
    157  CE        44.2410  -52.8040   23.4030 C.3   223  LYS223      0.1093
    158  NZ        45.0840  -54.0270   23.6610 N.3   223  LYS223     -0.1314
@<TRIPOS>BOND
     1    17    16    2
     2    16    15    1
     3    28    27    2
     4    15    18    1
     5    15    14    1
     6    18    19    1
     7   118   116   am
     8    27    26    1
     9   100   101    1
    10    19    20    1
    11   103   102    2
    12   117   116    2
    13    25    26    1
    14   116   115    1
    15     1     2    1
    16    26    29    1
    17    20    21    1
    18   102   101    1
    19   102   111   am
    20     3     4    2
    21     3     2    1
    22    29    30    1
    23   101   104    1
    24     2     5    1
    25   111   112    1
    26   112   115    1
    27   112   113    1
    28    21    22    2
    29   104   105    1
    30   122   121    2
    31   119   113   am
    32   119   120    1
    33    30    31   ar
    34    30    32   ar
    35    31    33   ar
    36   113   114    2
    37    13    12    2
    38     5     6    1
    39    22    23    1
    40    22    24    1
    41   123   120    1
    42   123   124    1
    43   105   106    1
    44    12    11    1
    45   121   120    1
    46   121   130   am
    47     6     7    1
    48    32    34   ar
    49    33    35   ar
    50   132   131    1
    51   132   133    2
    52   106   107    1
    53   130   131    1
    54   131   134    1
    55   124   126   ar
    56   124   125   ar
    57   107   108    2
    58   126   128   ar
    59    35    34   ar
    60    35    36    1
    61    11    10    1
    62    96    95    2
    63     7     8   ar
    64     7     9   ar
    65   108   110    1
    66   108   109    1
    67   125   127   ar
    68    95    94    1
    69   134   135    1
    70   128   129   ar
    71   135   136    1
    72   127   129   ar
    73    94    97    1
    74    94    93    1
    75   136   137    1
    76    97    99    1
    77    97    98    1
    78    81    83   ar
    79    81    80   ar
    80    83    84   ar
    81   143   142    1
    82   143   144    2
    83   142   141    1
    84   142   145    1
    85   137   138    2
    86    80    79    1
    87    80    82   ar
    88    79    76    1
    89   146   145    1
    90   146   147    1
    91   139   138    1
    92    84    82   ar
    93   138   140    1
    94    78    77    2
    95    77    76    1
    96    76    75    1
    97   148   147    1
    98   148   149    1
    99   153   152    2
   100    37    38    1
   101    41    38    1
   102    41    42    1
   103    38    39    1
   104    42    43   ar
   105    42    44   ar
   106    88    87    2
   107   150   151    1
   108   152   151    1
   109    92    90   ar
   110    91    90   ar
   111   151   154    1
   112    90    89    1
   113    87    86    1
   114    59    58    1
   115    58    55    1
   116    39    40    2
   117   154   155    1
   118    89    86    1
   119   155   156    1
   120    86    85    1
   121    55    54    1
   122    55    56    1
   123   156   157    1
   124    74    73    1
   125   157   158    1
   126    53    51   ar
   127    56    57    2
   128    72    71    2
   129    71    70    1
   130    68    67    1
   131    51    52   ar
   132    51    50    1
   133    73    70    1
   134    70    69    1
   135    50    49    1
   136    67    66    1
   137    45    46    1
   138    49    46    1
   139    66    65    1
   140    46    47    1
   141    65    64    1
   142    47    48    2
   143    64    61    1
   144    63    62    2
   145    62    61    1
   146    61    60    1
