@<TRIPOS>MOLECULE
tmp/5l2zA00.pdb
 203 201 0 0 0
SMALL
GASTEIGER

@<TRIPOS>ATOM
      1  N         15.5030   38.3760   15.6830 N.3    25  LEU25      -0.1231
      2  CA        14.0880   38.0640   15.8750 C.3    25  LEU25       0.1693
      3  C         13.8710   37.0220   16.9510 C.2    25  LEU25       0.2592
      4  O         13.1530   37.2510   17.9300 O.2    25  LEU25      -0.2718
      5  CB        13.4680   37.5530   14.5540 C.3    25  LEU25       0.0284
      6  CG        11.9620   37.2180   14.5980 C.3    25  LEU25       0.0019
      7  CD1       11.0910   38.5250   14.5830 C.3    25  LEU25       0.0001
      8  CD2       11.5780   36.3740   13.3930 C.3    25  LEU25       0.0001
      9  N         14.4410   35.8250   16.7260 N.am   26  CYS26      -0.1970
     10  CA        14.1740   34.6390   17.5350 C.3    26  CYS26       0.1712
     11  C         15.2490   33.6220   17.2250 C.2    26  CYS26       0.2296
     12  O         16.1040   33.8480   16.3700 O.2    26  CYS26      -0.2864
     13  CB        12.8170   34.0800   17.1110 C.3    26  CYS26       0.0983
     14  SG        11.4290   34.6690   18.1010 S.3    26  CYS26      -0.0798
     15  N          4.8840   32.1050   17.7590 N.3    41  HIS41      -0.1226
     16  CA         4.7260   33.4770   18.2860 C.3    41  HIS41       0.1752
     17  C          5.8260   34.4140   17.8090 C.2    41  HIS41       0.2596
     18  O          5.6300   35.6150   17.7890 O.2    41  HIS41      -0.2718
     19  CB         4.5600   33.4960   19.8200 C.3    41  HIS41       0.0759
     20  CG         5.8490   33.4200   20.5750 C.ar   41  HIS41       0.0818
     21  ND1        6.3270   32.2240   21.0530 N.ar   41  HIS41      -0.2268
     22  CD2        6.7050   34.4040   20.9280 C.ar   41  HIS41       0.1154
     23  CE1        7.4690   32.4980   21.6590 C.ar   41  HIS41       0.1986
     24  NE2        7.7490   33.7920   21.6060 N.ar   41  HIS41      -0.2212
     25  N          6.9330   33.8740   17.3040 N.am   42  CYS42      -0.1970
     26  CA         7.9960   34.7120   16.7630 C.3    42  CYS42       0.1712
     27  C          7.5290   35.5170   15.5580 C.2    42  CYS42       0.2296
     28  O          8.1860   36.4870   15.2060 O.2    42  CYS42      -0.2864
     29  CB         9.1990   33.8510   16.4050 C.3    42  CYS42       0.0983
     30  SG        10.0570   33.2040   17.8570 S.3    42  CYS42      -0.0798
     31  N          4.3060   36.8180   15.1170 N.3    44  ASP44      -0.1225
     32  CA         3.0870   37.5490   15.3920 C.3    44  ASP44       0.1805
     33  C          3.0920   38.9890   14.8940 C.2    44  ASP44       0.2597
     34  O          2.0170   39.5380   14.6370 O.2    44  ASP44      -0.2718
     35  CB         2.8230   37.5370   16.8920 C.3    44  ASP44       0.1424
     36  CG         2.0480   36.3370   17.3880 C.2    44  ASP44       0.3668
     37  OD1        1.9490   35.3230   16.6360 O.co2  44  ASP44      -0.2456
     38  OD2        1.5670   36.3830   18.5310 O.co2  44  ASP44      -0.2456
     39  N          4.2680   39.6060   14.8040 N.am   45  LYS45      -0.1979
     40  CA         4.3910   41.0300   14.4420 C.3    45  LYS45       0.1596
     41  C          5.0840   41.2910   13.0970 C.2    45  LYS45       0.2287
     42  O          5.2220   42.4540   12.7100 O.2    45  LYS45      -0.2864
     43  CB         5.1430   41.7840   15.5660 C.3    45  LYS45       0.0298
     44  CG         4.3540   41.9460   16.8650 C.3    45  LYS45       0.0038
     45  CD         5.1350   42.7260   17.9340 C.3    45  LYS45       0.0206
     46  CE         5.2510   44.2060   17.6390 C.3    45  LYS45       0.1093
     47  NZ         5.6120   44.9870   18.8500 N.3    45  LYS45      -0.1314
     48  N         -0.8780   35.8510   19.8830 N.3    85  GLY85      -0.1210
     49  CA        -1.0030   36.4420   21.2120 C.3    85  GLY85       0.1956
     50  C         -1.3340   35.4440   22.2990 C.2    85  GLY85       0.2613
     51  O         -1.4680   35.8380   23.4620 O.2    85  GLY85      -0.2717
     52  N         -1.4720   34.1280   21.9480 N.am   86  THR86      -0.1938
     53  CA        -1.7660   33.0740   22.9330 C.3    86  THR86       0.2028
     54  C         -0.5730   32.0650   23.0210 C.2    86  THR86       0.2642
     55  O          0.4770   32.2800   22.4090 O.2    86  THR86      -0.2714
     56  CB        -3.1370   32.4140   22.7210 C.3    86  THR86       0.1808
     57  OG1       -3.0760   31.5940   21.5630 O.3    86  THR86      -0.2208
     58  CG2       -4.3160   33.4270   22.6330 C.3    86  THR86       0.0379
     59  N         -0.7460   30.9870   23.7810 N.am   87  THR87      -0.1950
     60  CA         0.3270   30.0370   24.0650 C.3    87  THR87       0.1897
     61  C          0.3050   28.7140   23.2930 C.2    87  THR87       0.2313
     62  O          1.3630   28.1600   23.0350 O.2    87  THR87      -0.2863
     63  CB         0.3240   29.7040   25.5600 C.3    87  THR87       0.1794
     64  OG1       -0.9820   29.2630   25.9330 O.3    87  THR87      -0.2208
     65  CG2        0.7600   30.8420   26.4130 C.3    87  THR87       0.0378
     66  N          2.5030   26.3900   19.8050 N.3    90  ASP90      -0.1239
     67  CA         3.5320   27.3670   19.4970 C.3    90  ASP90       0.1674
     68  C          4.6870   26.7860   18.6920 C.2    90  ASP90       0.2266
     69  O          5.7990   26.5840   19.2020 O.2    90  ASP90      -0.2867
     70  CB         4.0060   28.0790   20.7760 C.3    90  ASP90       0.1410
     71  CG         4.8360   29.3220   20.5230 C.2    90  ASP90       0.3668
     72  OD1        4.8520   29.8100   19.3630 O.co2  90  ASP90      -0.2456
     73  OD2        5.4740   29.7990   21.4670 O.co2  90  ASP90      -0.2456
     74  N         -2.0300   31.1200   31.6910 N.3   169  PRO169     -0.2116
     75  CA        -2.4320   30.0400   30.7730 C.3   169  PRO169      0.1372
     76  C         -2.2360   28.6320   31.3260 C.2   169  PRO169      0.2244
     77  O         -1.3850   28.4060   32.1880 O.2   169  PRO169     -0.2868
     78  CB        -1.5640   30.2790   29.5300 C.3   169  PRO169      0.0268
     79  CG        -1.0830   31.6860   29.6460 C.3   169  PRO169      0.0207
     80  CD        -0.9250   31.9150   31.1160 C.3   169  PRO169      0.0892
     81  N         16.8630   30.0000   33.5150 N.3   186  ASP186     -0.1225
     82  CA        15.7170   29.8890   32.6010 C.3   186  ASP186      0.1805
     83  C         16.1300   30.2950   31.2040 C.2   186  ASP186      0.2598
     84  O         17.1920   30.8920   31.0230 O.2   186  ASP186     -0.2718
     85  CB        14.5790   30.8280   33.0760 C.3   186  ASP186      0.1424
     86  CG        13.1600   30.5050   32.6100 C.2   186  ASP186      0.3668
     87  OD1       12.9790   29.4960   31.8540 O.co2 186  ASP186     -0.2456
     88  OD2       12.2300   31.2290   33.0180 O.co2 186  ASP186     -0.2456
     89  N         15.2780   29.9950   30.2170 N.am  187  SER187     -0.1938
     90  CA        15.4030   30.5410   28.8630 C.3   187  SER187      0.2055
     91  C         14.4760   31.7860   28.9430 C.2   187  SER187      0.2643
     92  O         13.5940   31.8320   29.7850 O.2   187  SER187     -0.2714
     93  CB        14.9220   29.5660   27.7950 C.3   187  SER187      0.2130
     94  OG        13.6170   29.0910   28.0610 O.3   187  SER187     -0.2179
     95  N         14.7280   32.7860   28.0960 N.am  188  CYS188     -0.1953
     96  CA        14.0690   34.0940   28.0520 C.3   188  CYS188      0.1843
     97  C         13.3160   34.2980   26.7620 C.2   188  CYS188      0.2625
     98  O         13.5330   33.5550   25.8150 O.2   188  CYS188     -0.2714
     99  CB        15.1120   35.1980   28.2210 C.3   188  CYS188      0.0997
    100  SG        15.8450   35.2860   29.8720 S.3   188  CYS188     -0.0797
    101  N         12.5440   35.4190   26.6680 N.am  189  LYS189     -0.1963
    102  CA        11.8200   35.7500   25.4430 C.3   189  LYS189      0.1728
    103  C         12.7110   35.8240   24.1930 C.2   189  LYS189      0.2616
    104  O         12.2800   35.3650   23.1410 O.2   189  LYS189     -0.2715
    105  CB        10.9740   37.0210   25.6130 C.3   189  LYS189      0.0311
    106  CG        11.7750   38.2640   25.8800 C.3   189  LYS189      0.0038
    107  CD        10.7480   39.4400   25.9010 C.3   189  LYS189      0.0206
    108  CE        11.4200   40.7640   25.9680 C.3   189  LYS189      0.1093
    109  NZ        10.4030   41.8620   25.9390 N.3   189  LYS189     -0.1314
    110  N         13.9420   36.3350   24.3230 N.am  190  GLY190     -0.1955
    111  CA        14.8780   36.3930   23.2050 C.3   190  GLY190      0.1869
    112  C         15.3700   35.0220   22.7530 C.2   190  GLY190      0.2309
    113  O         15.9410   34.8890   21.6700 O.2   190  GLY190     -0.2863
    114  N         13.1790   32.5080   22.4470 N.3   192  SER192     -0.1217
    115  CA        11.9670   31.9540   21.8210 C.3   192  SER192      0.1889
    116  C         12.3090   31.3380   20.4830 C.2   192  SER192      0.2288
    117  O         13.0660   31.9360   19.7210 O.2   192  SER192     -0.2866
    118  CB        10.9300   33.0530   21.5850 C.3   192  SER192      0.2089
    119  OG        10.3730   33.4810   22.8130 O.3   192  SER192     -0.2183
    120  N         11.6500   26.6830   22.7410 N.3   210  VAL210     -0.1231
    121  CA        11.5190   27.7370   23.7290 C.3   210  VAL210      0.1692
    122  C         10.2280   28.5090   23.3740 C.2   210  VAL210      0.2593
    123  O         10.1140   29.0440   22.2650 O.2   210  VAL210     -0.2718
    124  CB        12.7410   28.6820   23.7480 C.3   210  VAL210      0.0266
    125  CG1       12.5210   29.7850   24.8080 C.3   210  VAL210      0.0020
    126  CG2       14.0270   27.9140   24.0290 C.3   210  VAL210      0.0020
    127  N          9.2360   28.4860   24.2700 N.am  211  SER211     -0.1938
    128  CA         7.9280   29.0450   23.9870 C.3   211  SER211      0.2055
    129  C          7.4850   30.1920   24.8940 C.2   211  SER211      0.2643
    130  O          7.3900   31.3240   24.4240 O.2   211  SER211     -0.2714
    131  CB         6.8980   27.9140   23.9990 C.3   211  SER211      0.2130
    132  OG         5.5900   28.3590   23.6670 O.3   211  SER211     -0.2179
    133  N          7.1940   29.9280   26.1840 N.am  212  TRP212     -0.1959
    134  CA         6.7040   31.0220   27.0320 C.3   212  TRP212      0.1771
    135  C          6.9630   30.7720   28.4960 C.2   212  TRP212      0.2620
    136  O          7.4340   29.7140   28.8920 O.2   212  TRP212     -0.2715
    137  CB         5.1880   31.2740   26.7850 C.3   212  TRP212      0.0590
    138  CG         4.2740   30.1350   27.1590 C.ar  212  TRP212      0.0006
    139  CD1        3.9880   29.0300   26.4110 C.ar  212  TRP212      0.0946
    140  CD2        3.5420   29.9900   28.3880 C.ar  212  TRP212      0.0152
    141  NE1        3.1290   28.1960   27.0990 N.ar  212  TRP212     -0.2442
    142  CE2        2.8570   28.7540   28.3260 C.ar  212  TRP212      0.0810
    143  CE3        3.4200   30.7750   29.5510 C.ar  212  TRP212      0.0012
    144  CZ2        2.0450   28.2920   29.3780 C.ar  212  TRP212      0.0191
    145  CZ3        2.6030   30.3280   30.5820 C.ar  212  TRP212      0.0001
    146  CH2        1.9320   29.1000   30.4940 C.ar  212  TRP212      0.0015
    147  N          6.6310   31.7770   29.2930 N.am  213  GLY213     -0.1940
    148  CA         6.7170   31.7390   30.7420 C.3   213  GLY213      0.2014
    149  C          6.1880   33.0460   31.2990 C.2   213  GLY213      0.2639
    150  O          5.6780   33.8930   30.5540 O.2   213  GLY213     -0.2714
    151  N          6.2940   33.2000   32.6110 N.am  214  GLN214     -0.1963
    152  CA         5.7820   34.3710   33.3250 C.3   214  GLN214      0.1733
    153  C          6.9810   35.1280   33.8870 C.2   214  GLN214      0.2617
    154  O          7.2860   35.0200   35.0740 O.2   214  GLN214     -0.2715
    155  CB         4.8100   33.9170   34.4340 C.3   214  GLN214      0.0408
    156  CG         3.7500   32.8920   33.9990 C.3   214  GLN214      0.0908
    157  CD         2.4830   33.5240   33.4720 C.2   214  GLN214      0.2608
    158  OE1        1.5780   33.8700   34.2370 O.2   214  GLN214     -0.2717
    159  NE2        2.3690   33.6520   32.1510 N.am  214  GLN214     -0.0878
    160  N          7.6780   35.8520   33.0160 N.am  215  GLY215     -0.1940
    161  CA         8.8870   36.5900   33.3560 C.3   215  GLY215      0.2014
    162  C         10.0490   35.6210   33.4100 C.2   215  GLY215      0.2639
    163  O          9.9110   34.5400   34.0130 O.2   215  GLY215     -0.2714
    164  N         11.2150   36.0510   32.8880 N.am  216  CYS216     -0.1967
    165  CA        12.4060   35.2140   32.8190 C.3   216  CYS216      0.1712
    166  C         13.0670   34.9530   34.1580 C.2   216  CYS216      0.2296
    167  O         13.4470   35.9020   34.8530 O.2   216  CYS216     -0.2864
    168  CB        13.4110   35.7540   31.8130 C.3   216  CYS216      0.0983
    169  SG        14.5070   34.4740   31.1550 S.3   216  CYS216     -0.0798
    170  N          8.3100   27.9640   36.0620 N.3   222  PHE222     -0.1227
    171  CA         9.2030   27.1950   35.1790 C.3   222  PHE222      0.1736
    172  C          9.0330   27.7430   33.7580 C.2   222  PHE222      0.2596
    173  O          8.0290   28.3960   33.4660 O.2   222  PHE222     -0.2718
    174  CB         8.7910   25.6980   35.1730 C.3   222  PHE222      0.0547
    175  CG         9.0550   25.0070   36.4870 C.ar  222  PHE222     -0.0202
    176  CD1       10.2790   24.3980   36.7370 C.ar  222  PHE222     -0.0042
    177  CD2        8.0820   24.9700   37.4800 C.ar  222  PHE222     -0.0042
    178  CE1       10.5400   23.7960   37.9730 C.ar  222  PHE222     -0.0003
    179  CE2        8.3340   24.3420   38.7040 C.ar  222  PHE222     -0.0003
    180  CZ         9.5600   23.7630   38.9430 C.ar  222  PHE222     -0.0000
    181  N          9.9770   27.4110   32.8790 N.am  223  GLY223     -0.1942
    182  CA         9.8750   27.7450   31.4650 C.3   223  GLY223      0.2014
    183  C          8.9090   26.7680   30.8120 C.2   223  GLY223      0.2639
    184  O          8.8080   25.6050   31.2420 O.2   223  GLY223     -0.2714
    185  N          8.1420   27.2410   29.8220 N.am  224  VAL224     -0.1963
    186  CA         7.1950   26.3890   29.1080 C.3   224  VAL224      0.1727
    187  C          7.6670   26.2040   27.6770 C.2   224  VAL224      0.2616
    188  O          8.0550   27.1600   27.0080 O.2   224  VAL224     -0.2715
    189  CB         5.7050   26.8150   29.2140 C.3   224  VAL224      0.0290
    190  CG1        4.8020   25.7200   28.6470 C.3   224  VAL224      0.0023
    191  CG2        5.3260   27.1140   30.6890 C.3   224  VAL224      0.0023
    192  N          7.6970   24.9350   27.2490 N.am  225  TYR225     -0.1974
    193  CA         8.2350   24.5410   25.9660 C.3   225  TYR225      0.1639
    194  C          7.1890   23.8520   25.1570 C.2   225  TYR225      0.2290
    195  O          6.3900   23.1230   25.7090 O.2   225  TYR225     -0.2864
    196  CB         9.4540   23.6090   26.1990 C.3   225  TYR225      0.0560
    197  CG        10.5730   24.3170   26.9300 C.ar  225  TYR225     -0.0198
    198  CD1       10.5580   24.4410   28.3240 C.ar  225  TYR225     -0.0009
    199  CD2       11.6110   24.9310   26.2290 C.ar  225  TYR225     -0.0009
    200  CE1       11.5380   25.1760   28.9940 C.ar  225  TYR225      0.0417
    201  CE2       12.6270   25.6140   26.8910 C.ar  225  TYR225      0.0417
    202  CZ        12.5790   25.7460   28.2730 C.ar  225  TYR225      0.1957
    203  OH        13.5770   26.4540   28.8960 O.3   225  TYR225     -0.2866
@<TRIPOS>BOND
     1    42    41    2
     2    41    40    1
     3     8     6    1
     4    40    39    1
     5    40    43    1
     6     5     6    1
     7     5     2    1
     8     7     6    1
     9    34    33    2
    10    39    33   am
    11    33    32    1
    12    31    32    1
    13    28    27    2
    14    32    35    1
    15    27    26    1
    16    43    44    1
    17     1     2    1
    18     2     3    1
    19    12    11    2
    20    29    26    1
    21    29    30    1
    22    37    36   ar
    23     9     3   am
    24     9    10    1
    25    26    25    1
    26    44    45    1
    27    35    36    1
    28     3     4    2
    29    13    10    1
    30    13    14    1
    31    11    10    1
    32    25    17   am
    33    36    38   ar
    34    46    45    1
    35    46    47    1
    36    15    16    1
    37    18    17    2
    38    17    16    1
    39    30    14    1
    40    16    19    1
    41    68    69    2
    42    68    67    1
    43    72    71   ar
    44    67    66    1
    45    67    70    1
    46   117   116    2
    47    19    20    1
    48    48    49    1
    49   116   115    1
    50    71    70    1
    51    71    73   ar
    52    20    22   ar
    53    20    21   ar
    54    22    24   ar
    55    21    23   ar
    56    49    50    1
    57    57    56    1
    58   118   115    1
    59   118   119    1
    60    24    23   ar
    61   113   112    2
    62   115   114    1
    63    52    50   am
    64    52    53    1
    65   123   122    2
    66    50    51    2
    67    55    54    2
    68    58    56    1
    69    56    53    1
    70   120   121    1
    71   112   111    1
    72    53    54    1
    73    54    59   am
    74    62    61    2
    75   104   103    2
    76   111   110    1
    77    61    60    1
    78   122   121    1
    79   122   127   am
    80   132   131    1
    81   121   124    1
    82   124   126    1
    83   124   125    1
    84    59    60    1
    85   128   131    1
    86   128   127    1
    87   128   129    1
    88    60    63    1
    89   103   110   am
    90   103   102    1
    91   130   129    2
    92   129   133   am
    93   194   195    2
    94   194   193    1
    95   102   105    1
    96   102   101    1
    97    63    64    1
    98    63    65    1
    99   105   106    1
   100    98    97    2
   101   106   107    1
   102   107   108    1
   103   109   108    1
   104   193   196    1
   105   193   192    1
   106   133   134    1
   107   196   197    1
   108   199   201   ar
   109   199   197   ar
   110   139   141   ar
   111   139   138   ar
   112   101    97   am
   113    97    96    1
   114   137   134    1
   115   137   138    1
   116   201   202   ar
   117   197   198   ar
   118   188   187    2
   119   134   135    1
   120   141   142   ar
   121   138   140   ar
   122   192   187   am
   123   187   186    1
   124    93    94    1
   125    93    90    1
   126    96    95    1
   127    96    99    1
   128    95    91   am
   129    99   100    1
   130   202   203    1
   131   202   200   ar
   132   198   200   ar
   133   142   140   ar
   134   142   144   ar
   135   140   143   ar
   136   135   136    2
   137   135   147   am
   138   190   189    1
   139    90    91    1
   140    90    89    1
   141    91    92    2
   142   186   189    1
   143   186   185    1
   144   189   191    1
   145   147   148    1
   146   144   146   ar
   147    78    79    1
   148    78    75    1
   149   143   145   ar
   150    79    80    1
   151   185   183   am
   152   100   169    1
   153    89    83   am
   154   146   145   ar
   155   150   149    2
   156   148   149    1
   157    75    76    1
   158    75    74    1
   159   183   184    2
   160   183   182    1
   161    84    83    2
   162    80    74    1
   163   169   168    1
   164    83    82    1
   165   149   151   am
   166    76    77    2
   167   182   181    1
   168   168   165    1
   169    87    86   ar
   170   159   157   am
   171    82    85    1
   172    82    81    1
   173    86    88   ar
   174    86    85    1
   175   151   152    1
   176   165   164    1
   177   165   166    1
   178   181   172   am
   179   164   162   am
   180   160   161    1
   181   160   153   am
   182   152   153    1
   183   152   155    1
   184   161   162    1
   185   162   163    2
   186   173   172    2
   187   157   156    1
   188   157   158    2
   189   172   171    1
   190   153   154    2
   191   156   155    1
   192   166   167    2
   193   174   171    1
   194   174   175    1
   195   171   170    1
   196   175   176   ar
   197   175   177   ar
   198   176   178   ar
   199   177   179   ar
   200   178   180   ar
   201   179   180   ar
