@<TRIPOS>MOLECULE
tmp/5l30A00.pdb
 199 197 0 0 0
SMALL
GASTEIGER

@<TRIPOS>ATOM
      1  N         15.3810   39.9040   16.8490 N.3    25  LEU25      -0.1231
      2  CA        13.9490   39.6420   16.9890 C.3    25  LEU25       0.1693
      3  C         13.6770   38.4560   17.8950 C.2    25  LEU25       0.2592
      4  O         12.8820   38.5460   18.8290 O.2    25  LEU25      -0.2718
      5  CB        13.3130   39.3780   15.5940 C.3    25  LEU25       0.0284
      6  CG        11.8670   38.8930   15.5840 C.3    25  LEU25       0.0019
      7  CD1       10.8830   40.0220   15.9670 C.3    25  LEU25       0.0001
      8  CD2       11.4940   38.2890   14.2040 C.3    25  LEU25       0.0001
      9  N         14.3090   37.3090   17.5830 N.am   26  CYS26      -0.1970
     10  CA        14.0140   36.0440   18.2780 C.3    26  CYS26       0.1712
     11  C         15.1460   35.0750   17.9750 C.2    26  CYS26       0.2296
     12  O         16.0050   35.3530   17.1510 O.2    26  CYS26      -0.2864
     13  CB        12.7030   35.4760   17.7260 C.3    26  CYS26       0.0983
     14  SG        11.2040   36.0460   18.5710 S.3    26  CYS26      -0.0798
     15  N          4.7560   33.3850   17.6520 N.3    41  HIS41      -0.1226
     16  CA         4.5460   34.7370   18.2050 C.3    41  HIS41       0.1752
     17  C          5.6400   35.6870   17.8180 C.2    41  HIS41       0.2596
     18  O          5.4370   36.8970   17.8700 O.2    41  HIS41      -0.2718
     19  CB         4.2980   34.6930   19.7320 C.3    41  HIS41       0.0759
     20  CG         5.5400   34.6670   20.5610 C.ar   41  HIS41       0.0818
     21  ND1        6.0380   33.4840   21.0690 N.ar   41  HIS41      -0.2268
     22  CD2        6.3270   35.6910   20.9780 C.ar   41  HIS41       0.1154
     23  CE1        7.1290   33.8090   21.7520 C.ar   41  HIS41       0.1986
     24  NE2        7.3430   35.1250   21.7300 N.ar   41  HIS41      -0.2212
     25  N          6.8060   35.1640   17.3960 N.am   42  CYS42      -0.1970
     26  CA         7.8890   36.0230   16.9240 C.3    42  CYS42       0.1712
     27  C          7.4910   36.8730   15.7350 C.2    42  CYS42       0.2296
     28  O          8.1510   37.8660   15.4650 O.2    42  CYS42      -0.2864
     29  CB         9.1230   35.1870   16.6020 C.3    42  CYS42       0.0983
     30  SG         9.9250   34.5350   18.0760 S.3    42  CYS42      -0.0798
     31  N          4.2590   38.1340   15.1170 N.3    44  ASP44      -0.1225
     32  CA         2.9800   38.8630   15.2520 C.3    44  ASP44       0.1805
     33  C          3.0230   40.3210   14.8000 C.2    44  ASP44       0.2597
     34  O          1.9940   40.8600   14.3600 O.2    44  ASP44      -0.2718
     35  CB         2.5210   38.8650   16.7110 C.3    44  ASP44       0.1424
     36  CG         1.8210   37.6250   17.2050 C.2    44  ASP44       0.3668
     37  OD1        1.8750   36.5820   16.5020 O.co2  44  ASP44      -0.2456
     38  OD2        1.3230   37.6530   18.3370 O.co2  44  ASP44      -0.2456
     39  N          4.1800   40.9570   14.9250 N.am   45  LYS45      -0.1979
     40  CA         4.3070   42.4080   14.6960 C.3    45  LYS45       0.1596
     41  C          5.1140   42.7750   13.4760 C.2    45  LYS45       0.2287
     42  O          5.3800   43.9630   13.2760 O.2    45  LYS45      -0.2864
     43  CB         4.8870   43.0620   15.9810 C.3    45  LYS45       0.0298
     44  CG         3.9410   42.9080   17.1760 C.3    45  LYS45       0.0038
     45  CD         4.5880   43.0750   18.5460 C.3    45  LYS45       0.0206
     46  CE         3.5940   42.6970   19.6320 C.3    45  LYS45       0.1093
     47  NZ         4.1930   42.6830   21.0050 N.3    45  LYS45      -0.1314
     48  N         -1.1940   37.0400   19.4400 N.3    85  GLY85      -0.1210
     49  CA        -1.3660   37.6050   20.7780 C.3    85  GLY85       0.1956
     50  C         -1.7330   36.6210   21.8700 C.2    85  GLY85       0.2613
     51  O         -1.9460   37.0320   23.0220 O.2    85  GLY85      -0.2717
     52  N         -1.8220   35.3050   21.5350 N.am   86  THR86      -0.1938
     53  CA        -2.1360   34.2620   22.5050 C.3    86  THR86       0.2028
     54  C         -0.9430   33.3060   22.6220 C.2    86  THR86       0.2642
     55  O          0.1350   33.6140   22.1090 O.2    86  THR86      -0.2714
     56  CB        -3.4910   33.5750   22.2250 C.3    86  THR86       0.1808
     57  OG1       -3.3680   32.7910   21.0350 O.3    86  THR86      -0.2208
     58  CG2       -4.6460   34.5850   22.0710 C.3    86  THR86       0.0379
     59  N         -1.1330   32.1610   23.2850 N.am   87  THR87      -0.1950
     60  CA        -0.0430   31.2290   23.6150 C.3    87  THR87       0.1897
     61  C         -0.0730   29.8820   22.9260 C.2    87  THR87       0.2313
     62  O          0.9930   29.3120   22.7150 O.2    87  THR87      -0.2863
     63  CB        -0.0660   30.9550   25.1260 C.3    87  THR87       0.1794
     64  OG1       -1.3890   30.5430   25.4780 O.3    87  THR87      -0.2208
     65  CG2        0.3320   32.1540   25.9380 C.3    87  THR87       0.0378
     66  N          2.3460   27.6160   19.4770 N.3    90  ASP90      -0.1239
     67  CA         3.3680   28.6320   19.2530 C.3    90  ASP90       0.1674
     68  C          4.5750   28.0610   18.5200 C.2    90  ASP90       0.2266
     69  O          5.6450   27.8660   19.0960 O.2    90  ASP90      -0.2867
     70  CB         3.7470   29.2990   20.5790 C.3    90  ASP90       0.1410
     71  CG         4.5360   30.5650   20.3860 C.2    90  ASP90       0.3668
     72  OD1        4.5490   31.0880   19.2550 O.co2  90  ASP90      -0.2456
     73  OD2        5.1620   31.0150   21.3530 O.co2  90  ASP90      -0.2456
     74  N         -2.6630   32.2250   31.4170 N.3   166  PRO166     -0.2116
     75  CA        -3.2780   31.2930   30.4520 C.3   166  PRO166      0.1372
     76  C         -3.0630   29.8250   30.8480 C.2   166  PRO166      0.2244
     77  O         -2.1940   29.5220   31.6720 O.2   166  PRO166     -0.2868
     78  CB        -2.5780   31.6330   29.1240 C.3   166  PRO166      0.0268
     79  CG        -1.9130   32.9550   29.3420 C.3   166  PRO166      0.0207
     80  CD        -1.5570   32.9780   30.7900 C.3   166  PRO166      0.0892
     81  N         15.9330   31.0330   34.0920 N.3   183  ASP183     -0.1225
     82  CA        14.8350   30.9420   33.1290 C.3   183  ASP183      0.1805
     83  C         15.3280   31.4320   31.7790 C.2   183  ASP183      0.2598
     84  O         16.3820   32.0420   31.6920 O.2   183  ASP183     -0.2718
     85  CB        13.6910   31.8760   33.5790 C.3   183  ASP183      0.1424
     86  CG        12.2860   31.5850   33.0470 C.2   183  ASP183      0.3668
     87  OD1       12.1350   30.6410   32.1990 O.co2 183  ASP183     -0.2456
     88  OD2       11.3550   32.3530   33.3870 O.co2 183  ASP183     -0.2456
     89  N         14.5410   31.1850   30.7200 N.am  184  SER184     -0.1938
     90  CA        14.7580   31.7890   29.4260 C.3   184  SER184      0.2055
     91  C         13.8210   33.0180   29.4810 C.2   184  SER184      0.2643
     92  O         12.9020   33.0620   30.3190 O.2   184  SER184     -0.2714
     93  CB        14.4170   30.8170   28.2890 C.3   184  SER184      0.2130
     94  OG        13.1270   30.2620   28.4390 O.3   184  SER184     -0.2179
     95  N         14.1000   34.0330   28.6470 N.am  185  CYS185     -0.1953
     96  CA        13.3900   35.3180   28.6330 C.3   185  CYS185      0.1843
     97  C         12.7300   35.5920   27.2920 C.2   185  CYS185      0.2625
     98  O         13.0090   34.8920   26.3250 O.2   185  CYS185     -0.2714
     99  CB        14.3500   36.4510   29.0110 C.3   185  CYS185      0.0997
    100  SG        15.1560   36.2490   30.6290 S.3   185  CYS185     -0.0797
    101  N         11.9310   36.6770   27.2010 N.am  186  LYS186     -0.1977
    102  CA        11.2680   37.0570   25.9350 C.3   186  LYS186      0.1596
    103  C         12.2160   37.1790   24.7570 C.2   186  LYS186      0.2287
    104  O         11.8650   36.7350   23.6730 O.2   186  LYS186     -0.2864
    105  CB        10.4220   38.3220   26.0970 C.3   186  LYS186      0.0298
    106  CG        11.1980   39.5860   26.4530 C.3   186  LYS186      0.0038
    107  CD        10.2010   40.7370   26.6210 C.3   186  LYS186      0.0206
    108  CE        10.8800   42.0260   27.0110 C.3   186  LYS186      0.1093
    109  NZ         9.8440   43.0670   27.3170 N.3   186  LYS186     -0.1314
    110  N         12.8330   33.9230   22.9190 N.3   189  SER189     -0.1217
    111  CA        11.6550   33.3440   22.2320 C.3   189  SER189      0.1889
    112  C         12.0600   32.7330   20.9260 C.2   189  SER189      0.2288
    113  O         12.8100   33.3690   20.1640 O.2   189  SER189     -0.2866
    114  CB        10.6100   34.4210   21.9430 C.3   189  SER189      0.2089
    115  OG         9.8910   34.8250   23.0980 O.3   189  SER189     -0.2183
    116  N         11.3710   27.9490   23.0280 N.3   207  VAL207     -0.1231
    117  CA        11.1470   29.0130   24.0530 C.3   207  VAL207      0.1692
    118  C          9.8730   29.7760   23.6180 C.2   207  VAL207      0.2593
    119  O          9.8340   30.3640   22.5330 O.2   207  VAL207     -0.2718
    120  CB        12.3560   29.9800   24.1470 C.3   207  VAL207      0.0266
    121  CG1       12.0870   31.0960   25.1970 C.3   207  VAL207      0.0020
    122  CG2       13.6430   29.2140   24.4750 C.3   207  VAL207      0.0020
    123  N          8.8280   29.7510   24.4660 N.am  208  SER208     -0.1938
    124  CA         7.5290   30.2950   24.0730 C.3   208  SER208      0.2055
    125  C          7.0150   31.4450   24.9450 C.2   208  SER208      0.2643
    126  O          6.8660   32.5640   24.4370 O.2   208  SER208     -0.2714
    127  CB         6.5050   29.1600   24.0050 C.3   208  SER208      0.2130
    128  OG         5.2100   29.5730   23.5890 O.3   208  SER208     -0.2179
    129  N          6.6660   31.1700   26.2250 N.am  209  TRP209     -0.1959
    130  CA         6.0940   32.2350   27.0530 C.3   209  TRP209      0.1771
    131  C          6.2780   32.0170   28.5390 C.2   209  TRP209      0.2620
    132  O          6.7800   30.9840   28.9770 O.2   209  TRP209     -0.2715
    133  CB         4.5960   32.4500   26.7290 C.3   209  TRP209      0.0590
    134  CG         3.7110   31.2930   27.0640 C.ar  209  TRP209      0.0006
    135  CD1        3.4710   30.1940   26.2890 C.ar  209  TRP209      0.0946
    136  CD2        2.8880   31.1540   28.2260 C.ar  209  TRP209      0.0152
    137  NE1        2.5810   29.3570   26.9160 N.ar  209  TRP209     -0.2442
    138  CE2        2.2150   29.9140   28.1180 C.ar  209  TRP209      0.0810
    139  CE3        2.6460   31.9650   29.3560 C.ar  209  TRP209      0.0012
    140  CZ2        1.2960   29.4710   29.0790 C.ar  209  TRP209      0.0191
    141  CZ3        1.7890   31.4890   30.3470 C.ar  209  TRP209      0.0001
    142  CH2        1.1160   30.2630   30.1980 C.ar  209  TRP209      0.0015
    143  N          5.8160   32.9940   29.3030 N.am  210  GLY210     -0.1940
    144  CA         5.8690   32.9580   30.7630 C.3   210  GLY210      0.2014
    145  C          5.4820   34.3250   31.2960 C.2   210  GLY210      0.2639
    146  O          4.9730   35.1520   30.5390 O.2   210  GLY210     -0.2714
    147  N          5.8100   34.6000   32.5720 N.am  211  GLN211     -0.1963
    148  CA         5.5510   35.9050   33.2340 C.3   211  GLN211      0.1733
    149  C          6.8960   36.5510   33.5950 C.2   211  GLN211      0.2617
    150  O          7.7010   35.9160   34.2810 O.2   211  GLN211     -0.2715
    151  CB         4.6540   35.7300   34.4810 C.3   211  GLN211      0.0408
    152  CG         3.5460   34.6610   34.3740 C.3   211  GLN211      0.0908
    153  CD         2.4100   34.9210   33.3880 C.2   211  GLN211      0.2608
    154  OE1        2.5330   35.6310   32.3770 O.2   211  GLN211     -0.2717
    155  NE2        1.2820   34.2730   33.6260 N.am  211  GLN211     -0.0878
    156  N          7.1530   37.7620   33.0750 N.am  212  GLY212     -0.1940
    157  CA         8.4190   38.4950   33.2370 C.3   212  GLY212      0.2014
    158  C          9.5310   37.5820   32.7700 C.2   212  GLY212      0.2639
    159  O          9.4990   37.1380   31.6270 O.2   212  GLY212     -0.2714
    160  N         10.5330   37.3580   33.6330 N.am  213  CYS213     -0.1967
    161  CA        11.6220   36.4040   33.4710 C.3   213  CYS213      0.1712
    162  C         12.1440   36.0080   34.8150 C.2   213  CYS213      0.2296
    163  O         12.4480   36.8910   35.6310 O.2   213  CYS213     -0.2864
    164  CB        12.7470   36.8910   32.5670 C.3   213  CYS213      0.0983
    165  SG        13.7420   35.5330   31.8850 S.3   213  CYS213     -0.0798
    166  N          7.2550   29.0690   36.0550 N.3   219  PHE219     -0.1227
    167  CA         8.2330   28.3220   35.2540 C.3   219  PHE219      0.1736
    168  C          8.1930   28.8810   33.8470 C.2   219  PHE219      0.2596
    169  O          7.2670   29.6140   33.5100 O.2   219  PHE219     -0.2718
    170  CB         7.8290   26.8360   35.2010 C.3   219  PHE219      0.0547
    171  CG         7.9770   26.1320   36.5270 C.ar  219  PHE219     -0.0202
    172  CD1        9.1830   25.5550   36.8930 C.ar  219  PHE219     -0.0042
    173  CD2        6.9060   26.0530   37.4120 C.ar  219  PHE219     -0.0042
    174  CE1        9.3270   24.9270   38.1380 C.ar  219  PHE219     -0.0003
    175  CE2        7.0490   25.4180   38.6530 C.ar  219  PHE219     -0.0003
    176  CZ         8.2600   24.8670   39.0050 C.ar  219  PHE219     -0.0000
    177  N          9.1720   28.5120   33.0280 N.am  220  GLY220     -0.1942
    178  CA         9.1290   28.8810   31.6190 C.3   220  GLY220      0.2014
    179  C          8.1820   27.9250   30.9100 C.2   220  GLY220      0.2639
    180  O          8.0460   26.7680   31.3290 O.2   220  GLY220     -0.2714
    181  N          7.5240   28.3880   29.8260 N.am  221  VAL221     -0.1963
    182  CA         6.5660   27.5390   29.1010 C.3   221  VAL221      0.1727
    183  C          7.1360   27.3850   27.7140 C.2   221  VAL221      0.2616
    184  O          7.5790   28.3660   27.1120 O.2   221  VAL221     -0.2715
    185  CB         5.0860   28.0360   29.0970 C.3   221  VAL221      0.0290
    186  CG1        4.1650   26.9430   28.5220 C.3   221  VAL221      0.0023
    187  CG2        4.6150   28.4070   30.5110 C.3   221  VAL221      0.0023
    188  N          7.1600   26.1410   27.2260 N.am  222  TYR222     -0.1974
    189  CA         7.7950   25.8130   25.9370 C.3   222  TYR222      0.1639
    190  C          6.8020   25.1110   25.0400 C.2   222  TYR222      0.2290
    191  O          5.9710   24.3300   25.5190 O.2   222  TYR222     -0.2864
    192  CB         9.0170   24.8910   26.1830 C.3   222  TYR222      0.0560
    193  CG        10.0890   25.5670   27.0150 C.ar  222  TYR222     -0.0198
    194  CD1        9.9880   25.6270   28.4110 C.ar  222  TYR222     -0.0009
    195  CD2       11.1920   26.1600   26.4130 C.ar  222  TYR222     -0.0009
    196  CE1       10.9260   26.3180   29.1700 C.ar  222  TYR222      0.0417
    197  CE2       12.1310   26.8640   27.1600 C.ar  222  TYR222      0.0417
    198  CZ        11.9910   26.9420   28.5390 C.ar  222  TYR222      0.1957
    199  OH        12.9560   27.6190   29.2360 O.3   222  TYR222     -0.2866
@<TRIPOS>BOND
     1    42    41    2
     2    41    40    1
     3     8     6    1
     4    34    33    2
     5    40    39    1
     6    40    43    1
     7    33    39   am
     8    33    32    1
     9    31    32    1
    10    32    35    1
    11    28    27    2
    12     6     5    1
    13     6     7    1
    14     5     2    1
    15    27    26    1
    16    43    44    1
    17    37    36   ar
    18    29    26    1
    19    29    30    1
    20    35    36    1
    21     1     2    1
    22    26    25    1
    23     2     3    1
    24    12    11    2
    25    44    45    1
    26    36    38   ar
    27    25    17   am
    28     9     3   am
    29     9    10    1
    30    15    16    1
    31    13    10    1
    32    13    14    1
    33    17    18    2
    34    17    16    1
    35     3     4    2
    36    11    10    1
    37    30    14    1
    38    16    19    1
    39    68    69    2
    40    68    67    1
    41    45    46    1
    42    67    66    1
    43    67    70    1
    44    72    71   ar
    45    48    49    1
    46    46    47    1
    47    19    20    1
    48   113   112    2
    49    71    70    1
    50    71    73   ar
    51    20    22   ar
    52    20    21   ar
    53    49    50    1
    54   112   111    1
    55    22    24   ar
    56    57    56    1
    57    21    23   ar
    58    52    50   am
    59    52    53    1
    60    24    23   ar
    61    50    51    2
    62   114   111    1
    63   114   115    1
    64    58    56    1
    65    55    54    2
    66    56    53    1
    67   111   110    1
    68    53    54    1
    69   119   118    2
    70    54    59   am
    71    62    61    2
    72    61    60    1
    73   116   117    1
    74    59    60    1
    75   128   127    1
    76    60    63    1
    77   118   117    1
    78   118   123   am
    79   104   103    2
    80   127   124    1
    81   117   120    1
    82   124   123    1
    83   124   125    1
    84   120   122    1
    85   120   121    1
    86   126   125    2
    87   103   102    1
    88   125   129   am
    89   190   191    2
    90   190   189    1
    91    63    64    1
    92    63    65    1
    93   102   105    1
    94   102   101    1
    95   189   192    1
    96   189   188    1
    97   105   106    1
    98   192   193    1
    99   129   130    1
   100   135   137   ar
   101   135   134   ar
   102    98    97    2
   103   195   193   ar
   104   195   197   ar
   105   106   107    1
   106   107   108    1
   107   133   130    1
   108   133   134    1
   109   137   138   ar
   110   108   109    1
   111   193   194   ar
   112   130   131    1
   113   134   136   ar
   114   184   183    2
   115   197   198   ar
   116   101    97   am
   117   188   183   am
   118    97    96    1
   119   183   182    1
   120   138   136   ar
   121   138   140   ar
   122   136   139   ar
   123    93    94    1
   124    93    90    1
   125   194   196   ar
   126   186   185    1
   127   198   196   ar
   128   198   199    1
   129   131   132    2
   130   131   143   am
   131    96    95    1
   132    96    99    1
   133    95    91   am
   134    99   100    1
   135   140   142   ar
   136   185   182    1
   137   185   187    1
   138   182   181    1
   139    78    79    1
   140    78    75    1
   141   143   144    1
   142    79    80    1
   143   139   141   ar
   144    90    91    1
   145    90    89    1
   146    91    92    2
   147   181   179   am
   148   142   141   ar
   149    75    76    1
   150    75    74    1
   151   146   145    2
   152   100   165    1
   153    89    83   am
   154   144   145    1
   155    80    74    1
   156    76    77    2
   157   179   180    2
   158   179   178    1
   159   145   147   am
   160   178   177    1
   161   159   158    2
   162    84    83    2
   163    83    82    1
   164   165   164    1
   165    87    86   ar
   166   154   153    2
   167   164   161    1
   168   147   148    1
   169   158   157    1
   170   158   160   am
   171   177   168   am
   172    86    88   ar
   173    86    85    1
   174   156   157    1
   175   156   149   am
   176    82    85    1
   177    82    81    1
   178   148   149    1
   179   148   151    1
   180   153   155   am
   181   153   152    1
   182   161   160    1
   183   161   162    1
   184   169   168    2
   185   149   150    2
   186   168   167    1
   187   152   151    1
   188   162   163    2
   189   170   167    1
   190   170   171    1
   191   167   166    1
   192   171   172   ar
   193   171   173   ar
   194   172   174   ar
   195   173   175   ar
   196   174   176   ar
   197   175   176   ar
