@<TRIPOS>MOLECULE
tmp/5l3aA00.pdb
 122 112 0 0 0
SMALL
GASTEIGER

@<TRIPOS>ATOM
      1  N          9.5510  -15.5910  -26.3740 N.3    15  LEU15      -0.1231
      2  CA         9.6560  -15.1380  -24.9900 C.3    15  LEU15       0.1693
      3  C         10.5530  -13.8740  -24.9660 C.2    15  LEU15       0.2592
      4  O         10.2420  -12.9170  -25.6630 O.2    15  LEU15      -0.2718
      5  CB        10.1550  -16.2840  -24.0940 C.3    15  LEU15       0.0284
      6  CG         9.3300  -17.5780  -24.1600 C.3    15  LEU15       0.0019
      7  CD1        9.9700  -18.6520  -23.3040 C.3    15  LEU15       0.0001
      8  CD2        7.8810  -17.3590  -23.7520 C.3    15  LEU15       0.0001
      9  N         11.6520  -13.8530  -24.2180 N.am   16  GLY16      -0.1957
     10  CA        12.4610  -12.6410  -24.0930 C.3    16  GLY16       0.1869
     11  C         13.3560  -12.3410  -25.2830 C.2    16  GLY16       0.2309
     12  O         13.5350  -13.1640  -26.1830 O.2    16  GLY16      -0.2863
     13  N         15.0200  -15.8580  -26.6980 N.3    23  VAL23      -0.1245
     14  CA        14.5210  -17.1420  -26.2330 C.3    23  VAL23       0.1561
     15  C         13.1210  -17.3750  -26.7840 C.2    23  VAL23       0.2260
     16  O         12.2800  -16.4760  -26.7600 O.2    23  VAL23      -0.2867
     17  CB        14.4840  -17.2040  -24.6970 C.3    23  VAL23       0.0252
     18  CG1       13.9170  -18.5390  -24.2130 C.3    23  VAL23       0.0019
     19  CG2       15.8820  -16.9830  -24.1290 C.3    23  VAL23       0.0019
     20  N         12.5020  -24.3310  -23.5990 N.3    40  ALA40      -0.1245
     21  CA        12.9610  -22.9800  -23.9060 C.3    40  ALA40       0.1562
     22  C         14.2130  -23.0950  -24.7460 C.2    40  ALA40       0.2260
     23  O         15.1160  -23.8570  -24.4010 O.2    40  ALA40      -0.2867
     24  CB        13.2650  -22.2120  -22.6320 C.3    40  ALA40       0.0290
     25  N         17.2650  -20.9620  -26.5910 N.3    42  LYS42      -0.1245
     26  CA        17.9940  -19.6960  -26.6170 C.3    42  LYS42       0.1561
     27  C         18.8740  -19.6250  -27.8620 C.2    42  LYS42       0.2260
     28  O         19.6050  -20.5590  -28.1580 O.2    42  LYS42      -0.2867
     29  CB        18.8140  -19.5270  -25.3420 C.3    42  LYS42       0.0271
     30  CG        19.5920  -18.2280  -25.2600 C.3    42  LYS42       0.0035
     31  CD        20.0420  -17.9160  -23.8420 C.3    42  LYS42       0.0206
     32  CE        21.0100  -16.7340  -23.8460 C.3    42  LYS42       0.1093
     33  NZ        21.4280  -16.3770  -22.4640 N.3    42  LYS42      -0.1314
     34  N         18.0650  -22.8770  -13.3110 N.3    71  VAL71      -0.1245
     35  CA        17.3160  -23.3720  -14.4770 C.3    71  VAL71       0.1561
     36  C         18.0710  -24.5700  -15.0730 C.2    71  VAL71       0.2260
     37  O         19.2900  -24.5550  -15.1100 O.2    71  VAL71      -0.2867
     38  CB        17.0580  -22.2440  -15.5160 C.3    71  VAL71       0.0252
     39  CG1       18.3300  -21.8260  -16.2240 C.3    71  VAL71       0.0019
     40  CG2       15.9980  -22.6650  -16.5250 C.3    71  VAL71       0.0019
     41  N         16.6740  -25.4560  -22.7460 N.3    89  MET89      -0.1230
     42  CA        16.4650  -25.4220  -21.2930 C.3    89  MET89       0.1702
     43  C         15.0450  -25.8230  -20.9440 C.2    89  MET89       0.2592
     44  O         14.1670  -25.8070  -21.8040 O.2    89  MET89      -0.2718
     45  CB        16.7240  -24.0170  -20.7640 C.3    89  MET89       0.0401
     46  CG        18.1400  -23.5270  -20.9660 C.3    89  MET89       0.0596
     47  SD        18.3170  -21.7630  -20.6340 S.3    89  MET89      -0.1393
     48  CE        17.4990  -21.0450  -22.0630 C.3    89  MET89       0.0692
     49  N         14.8030  -26.1380  -19.6680 N.am   90  GLU90      -0.1966
     50  CA        13.4340  -26.3650  -19.2070 C.3    90  GLU90       0.1733
     51  C         12.6050  -25.0750  -19.3700 C.2    90  GLU90       0.2616
     52  O         13.1440  -23.9710  -19.2900 O.2    90  GLU90      -0.2715
     53  CB        13.3910  -26.8560  -17.7430 C.3    90  GLU90       0.0429
     54  CG        13.7000  -25.7750  -16.7200 C.3    90  GLU90       0.1163
     55  CD        13.6660  -26.2650  -15.2870 C.2    90  GLU90       0.3649
     56  OE1       14.4320  -25.7130  -14.4650 O.co2  90  GLU90      -0.2457
     57  OE2       12.8750  -27.1810  -14.9830 O.co2  90  GLU90      -0.2457
     58  N         11.3070  -25.2370  -19.6040 N.am   91  TYR91      -0.1960
     59  CA        10.3970  -24.1070  -19.6730 C.3    91  TYR91       0.1771
     60  C          9.7700  -23.8050  -18.2960 C.2    91  TYR91       0.2619
     61  O          9.0710  -24.6440  -17.7280 O.2    91  TYR91      -0.2715
     62  CB         9.3100  -24.3670  -20.7070 C.3    91  TYR91       0.0574
     63  CG         8.3630  -23.2060  -20.8130 C.ar   91  TYR91      -0.0198
     64  CD1        8.8000  -21.9750  -21.2950 C.ar   91  TYR91      -0.0009
     65  CD2        7.0430  -23.3160  -20.3810 C.ar   91  TYR91      -0.0009
     66  CE1        7.9370  -20.8900  -21.3660 C.ar   91  TYR91       0.0417
     67  CE2        6.1760  -22.2350  -20.4560 C.ar   91  TYR91       0.0417
     68  CZ         6.6350  -21.0250  -20.9500 C.ar   91  TYR91       0.1957
     69  OH         5.7900  -19.9510  -21.0210 O.3    91  TYR91      -0.2866
     70  N         10.0740  -22.6330  -17.7490 N.am   92  LEU92      -0.1977
     71  CA         9.3760  -22.0670  -16.5840 C.3    92  LEU92       0.1596
     72  C          8.2670  -21.0810  -17.0120 C.2    92  LEU92       0.2287
     73  O          8.5660  -20.0030  -17.5370 O.2    92  LEU92      -0.2864
     74  CB        10.3890  -21.3980  -15.6690 C.3    92  LEU92       0.0297
     75  CG        11.5860  -22.2750  -15.2510 C.3    92  LEU92       0.0022
     76  CD1       12.4200  -21.5680  -14.1950 C.3    92  LEU92       0.0001
     77  CD2       11.1710  -23.6360  -14.7300 C.3    92  LEU92       0.0001
     78  N          7.5910  -16.6710  -16.4470 N.3    95  GLY95      -0.1210
     79  CA         8.5610  -15.6710  -16.8740 C.3    95  GLY95       0.1956
     80  C          9.5240  -15.2100  -15.7990 C.2    95  GLY95       0.2612
     81  O          9.7550  -15.9140  -14.8230 O.2    95  GLY95      -0.2717
     82  N         10.0690  -14.0130  -15.9820 N.am   96  SER96      -0.1952
     83  CA        11.0190  -13.4450  -15.0430 C.3    96  SER96       0.1924
     84  C         10.3200  -13.0080  -13.7630 C.2    96  SER96       0.2314
     85  O          9.1530  -12.6310  -13.7750 O.2    96  SER96      -0.2863
     86  CB        11.7520  -12.2350  -15.6390 C.3    96  SER96       0.2116
     87  OG        10.9050  -11.0930  -15.7020 O.3    96  SER96      -0.2180
     88  N          8.7800   -9.4610  -14.0030 N.3    99  ASP99      -0.1239
     89  CA         7.4300   -9.4120  -14.6000 C.3    99  ASP99       0.1674
     90  C          6.3810  -10.0040  -13.6580 C.2    99  ASP99       0.2266
     91  O          5.3160   -9.4230  -13.4740 O.2    99  ASP99      -0.2867
     92  CB         7.3730  -10.1720  -15.9310 C.3    99  ASP99       0.1410
     93  CG         8.2010   -9.5260  -17.0320 C.2    99  ASP99       0.3668
     94  OD1        8.5270   -8.3120  -16.9420 O.co2  99  ASP99      -0.2456
     95  OD2        8.5240  -10.2450  -18.0090 O.co2  99  ASP99      -0.2456
     96  N         15.0790   -9.4680  -13.1380 N.3   140  ARG140     -0.1197
     97  CA        14.9430   -9.8080  -14.5790 C.3   140  ARG140      0.1779
     98  C         15.6090  -11.1220  -15.0140 C.2   140  ARG140      0.2305
     99  O         15.2150  -11.6910  -16.0220 O.2   140  ARG140     -0.2863
    100  CB        15.4750   -8.6670  -15.4910 C.2   140  ARG140     -0.0007
    101  CG        16.9490   -8.3180  -15.2960 C.2   140  ARG140      0.0176
    102  CD        17.5130   -7.3050  -16.2880 C.3   140  ARG140      0.2464
    103  NE        18.9010   -6.9970  -15.9170 N.pl3 140  ARG140     -0.0815
    104  CZ        19.2940   -6.0970  -15.0010 C.cat 140  ARG140      0.5349
    105  NH1       20.5900   -5.9570  -14.7510 N.pl3 140  ARG140      0.1354
    106  NH2       18.4260   -5.3290  -14.3230 N.pl3 140  ARG140      0.1354
    107  N         13.9210  -16.6180  -12.7940 N.3   143  LEU143     -0.1245
    108  CA        12.7140  -17.2010  -13.4230 C.3   143  LEU143      0.1561
    109  C         11.8100  -17.8550  -12.3890 C.2   143  LEU143      0.2260
    110  O         12.3040  -18.3840  -11.3960 O.2   143  LEU143     -0.2867
    111  CB        13.1150  -18.2440  -14.4490 C.3   143  LEU143      0.0270
    112  CG        13.9200  -17.7600  -15.6530 C.3   143  LEU143      0.0019
    113  CD1       14.4790  -18.9600  -16.4120 C.3   143  LEU143      0.0001
    114  CD2       13.0660  -16.8920  -16.5600 C.3   143  LEU143      0.0001
    115  N         19.9610  -16.8810  -16.7930 N.3   154  ASP154     -0.1239
    116  CA        20.9190  -16.0610  -17.5310 C.3   154  ASP154      0.1674
    117  C         22.3380  -16.0920  -16.9520 C.2   154  ASP154      0.2266
    118  O         22.7090  -15.2630  -16.0970 O.2   154  ASP154     -0.2867
    119  CB        20.4040  -14.6210  -17.6830 C.3   154  ASP154      0.1410
    120  CG        21.1340  -13.8360  -18.8020 C.2   154  ASP154      0.3668
    121  OD1       21.9580  -14.4320  -19.5440 O.co2 154  ASP154     -0.2456
    122  OD2       20.8750  -12.6130  -18.9450 O.co2 154  ASP154     -0.2456
@<TRIPOS>BOND
     1    28    27    2
     2    27    26    1
     3    15    16    2
     4    15    14    1
     5    13    14    1
     6    26    25    1
     7    26    29    1
     8     1     2    1
     9    14    17    1
    10    12    11    2
    11     4     3    2
    12    29    30    1
    13    11    10    1
    14    30    31    1
    15     2     3    1
    16     2     5    1
    17     3     9   am
    18    22    23    2
    19    22    21    1
    20    17    18    1
    21    17    19    1
    22     9    10    1
    23     6     5    1
    24     6     8    1
    25     6     7    1
    26    21    20    1
    27    21    24    1
    28    32    31    1
    29    32    33    1
    30    41    42    1
    31    48    47    1
    32    44    43    2
    33    66    64   ar
    34    66    68   ar
    35    64    63   ar
    36    42    43    1
    37    42    45    1
    38    69    68    1
    39    46    45    1
    40    46    47    1
    41    68    67   ar
    42    43    49   am
    43    63    62    1
    44    63    65   ar
    45    62    59    1
    46    67    65   ar
    47    59    58    1
    48    59    60    1
    49    49    50    1
    50    58    51   am
    51   121   120   ar
    52    51    52    2
    53    51    50    1
    54    50    53    1
    55   122   120   ar
    56   120   119    1
    57    60    70   am
    58    60    61    2
    59    95    93   ar
    60    70    71    1
    61    53    54    1
    62   119   116    1
    63    73    72    2
    64   116   117    1
    65   116   115    1
    66    93    94   ar
    67    93    92    1
    68    72    71    1
    69   117   118    2
    70    79    78    1
    71    79    80    1
    72    54    55    1
    73    71    74    1
    74   114   112    1
    75    40    38    1
    76   113   112    1
    77   102   103    1
    78   102   101    1
    79    39    38    1
    80    99    98    2
    81    82    80   am
    82    82    83    1
    83    92    89    1
    84   103   104    2
    85    80    81    2
    86    87    86    1
    87    74    75    1
    88   112   111    1
    89    86    83    1
    90    38    35    1
    91   100   101    2
    92   100    97    1
    93    55    57   ar
    94    55    56   ar
    95    75    77    1
    96    75    76    1
    97    37    36    2
    98    36    35    1
    99    83    84    1
   100    98    97    1
   101   104   105    1
   102   104   106    1
   103    89    88    1
   104    89    90    1
   105    97    96    1
   106    35    34    1
   107   111   108    1
   108    85    84    2
   109    90    91    2
   110   108   107    1
   111   108   109    1
   112   109   110    2
