@<TRIPOS>MOLECULE
tmp/5l3eA03.pdb
 81 79 0 0 0
SMALL
GASTEIGER

@<TRIPOS>ATOM
      1  N        -14.7230   43.0610   76.3150 N.3   188  GLN188     -0.1245
      2  CA       -13.2660   43.0820   76.1340 C.3   188  GLN188      0.1566
      3  C        -12.8120   42.6920   74.7070 C.2   188  GLN188      0.2260
      4  O        -11.6300   42.8290   74.3820 O.2   188  GLN188     -0.2867
      5  CB       -12.5370   42.2290   77.2140 C.3   188  GLN188      0.0367
      6  CG       -12.6110   42.7200   78.6800 C.3   188  GLN188      0.0905
      7  CD       -12.1630   44.1770   78.9380 C.2   188  GLN188      0.2608
      8  OE1      -11.4740   44.7980   78.1220 O.2   188  GLN188     -0.2717
      9  NE2      -12.5570   44.7190   80.0970 N.am  188  GLN188     -0.0878
     10  N         -0.3390   37.6680   70.8090 N.3   209  GLU209     -0.1245
     11  CA        -0.8070   38.0010   72.1440 C.3   209  GLU209      0.1567
     12  C         -0.1430   37.1410   73.1910 C.2   209  GLU209      0.2260
     13  O          0.4340   37.6480   74.1440 O.2   209  GLU209     -0.2867
     14  CB        -2.3220   37.8770   72.2550 C.3   209  GLU209      0.0388
     15  CG        -2.8480   38.3200   73.6110 C.3   209  GLU209      0.1160
     16  CD        -4.3430   38.4910   73.6580 C.2   209  GLU209      0.3649
     17  OE1       -5.0370   38.3680   72.6120 O.co2 209  GLU209     -0.2457
     18  OE2       -4.8170   38.7540   74.7750 O.co2 209  GLU209     -0.2457
     19  N         -0.0630   46.7920   91.0840 N.3   386  ASP386     -0.1225
     20  CA        -0.8310   45.6760   90.4960 C.3   386  ASP386      0.1805
     21  C         -1.6090   44.9290   91.5830 C.2   386  ASP386      0.2597
     22  O         -2.7920   44.6200   91.4030 O.2   386  ASP386     -0.2718
     23  CB         0.0800   44.7090   89.7150 C.3   386  ASP386      0.1424
     24  CG        -0.6950   43.7900   88.8050 C.2   386  ASP386      0.3668
     25  OD1       -1.3590   44.3170   87.8830 O.co2 386  ASP386     -0.2456
     26  OD2       -0.6440   42.5600   89.0250 O.co2 386  ASP386     -0.2456
     27  N         -0.9480   44.7030   92.7190 N.am  387  ASP387     -0.1974
     28  CA        -1.5690   44.0950   93.8700 C.3   387  ASP387      0.1709
     29  C         -2.9410   44.6750   94.3230 C.2   387  ASP387      0.2293
     30  O         -3.6610   44.0330   95.1050 O.2   387  ASP387     -0.2864
     31  CB        -0.6060   44.2010   95.0510 C.3   387  ASP387      0.1436
     32  CG         0.4270   43.0880   95.0950 C.2   387  ASP387      0.3671
     33  OD1        0.1560   41.9420   94.6840 O.co2 387  ASP387     -0.2456
     34  OD2        1.5270   43.3660   95.5980 O.co2 387  ASP387     -0.2456
     35  N         -5.4190   45.8930   92.2740 N.3   389  GLU389     -0.1231
     36  CA        -6.3680   46.0030   91.1880 C.3   389  GLU389      0.1699
     37  C         -7.7660   45.6540   91.6970 C.2   389  GLU389      0.2592
     38  O         -7.9270   44.7940   92.5470 O.2   389  GLU389     -0.2718
     39  CB        -5.9170   45.0960   90.0730 C.3   389  GLU389      0.0402
     40  CG        -6.6060   45.3160   88.7510 C.3   389  GLU389      0.1161
     41  CD        -6.1330   44.3120   87.7160 C.2   389  GLU389      0.3649
     42  OE1       -5.2120   43.4450   88.0320 O.co2 389  GLU389     -0.2457
     43  OE2       -6.7290   44.4260   86.6110 O.co2 389  GLU389     -0.2457
     44  N         -8.7680   46.3680   91.2390 N.am  390  PHE390     -0.1962
     45  CA       -10.1450   46.0210   91.6050 C.3   390  PHE390      0.1771
     46  C        -10.7470   44.8400   90.7830 C.2   390  PHE390      0.2620
     47  O        -10.4350   44.6030   89.5990 O.2   390  PHE390     -0.2715
     48  CB       -11.0810   47.2550   91.4700 C.3   390  PHE390      0.0574
     49  CG       -10.6670   48.4610   92.2940 C.ar  390  PHE390     -0.0200
     50  CD1      -10.1700   48.2950   93.5760 C.ar  390  PHE390     -0.0042
     51  CD2      -10.8100   49.7730   91.7920 C.ar  390  PHE390     -0.0042
     52  CE1       -9.8030   49.3830   94.3330 C.ar  390  PHE390     -0.0003
     53  CE2      -10.4420   50.8650   92.5460 C.ar  390  PHE390     -0.0003
     54  CZ        -9.9360   50.6670   93.8150 C.ar  390  PHE390     -0.0000
     55  N        -11.6760   44.1440   91.4150 N.am  391  THR391     -0.1937
     56  CA       -12.4430   43.0920   90.7680 C.3   391  THR391      0.2028
     57  C        -13.7410   43.6240   90.1400 C.2   391  THR391      0.2643
     58  O        -14.3490   44.5480   90.6400 O.2   391  THR391     -0.2714
     59  CB       -12.8160   42.0070   91.7740 C.3   391  THR391      0.1808
     60  OG1      -13.8820   42.4690   92.6020 O.3   391  THR391     -0.2208
     61  CG2      -11.6010   41.5990   92.6370 C.3   391  THR391      0.0379
     62  N        -14.1730   43.0090   89.0520 N.am  392  GLY392     -0.1939
     63  CA       -15.3860   43.4360   88.3440 C.3   392  GLY392      0.2014
     64  C        -14.9890   43.8440   86.9600 C.2   392  GLY392      0.2640
     65  O        -13.8160   44.1270   86.7210 O.2   392  GLY392     -0.2714
     66  N        -15.9330   43.8720   86.0310 N.am  393  SER393     -0.1935
     67  CA       -15.5720   44.3260   84.7100 C.3   393  SER393      0.2055
     68  C        -15.3870   45.8400   84.7490 C.2   393  SER393      0.2643
     69  O        -15.8420   46.4990   85.6520 O.2   393  SER393     -0.2714
     70  CB       -16.5100   43.8170   83.5830 C.3   393  SER393      0.2130
     71  OG       -17.8750   44.0350   83.8420 O.3   393  SER393     -0.2179
     72  N        -14.5880   46.3240   83.8180 N.am  394  HIS394     -0.1973
     73  CA       -14.3880   47.7220   83.5510 C.3   394  HIS394      0.1656
     74  C        -15.6400   48.2930   82.8970 C.2   394  HIS394      0.2291
     75  O        -16.3620   47.5810   82.1860 O.2   394  HIS394     -0.2864
     76  CB       -13.1570   47.8780   82.6540 C.3   394  HIS394      0.0771
     77  CG       -11.8830   47.5480   83.3560 C.ar  394  HIS394      0.0820
     78  ND1      -10.6630   48.0410   82.9500 N.ar  394  HIS394     -0.2267
     79  CD2      -11.6480   46.8410   84.4890 C.ar  394  HIS394      0.1154
     80  CE1       -9.7240   47.6240   83.7850 C.ar  394  HIS394      0.1986
     81  NE2      -10.2980   46.8980   84.7310 N.ar  394  HIS394     -0.2212
@<TRIPOS>BOND
     1    10    11    1
     2    11    14    1
     3    11    12    1
     4    14    15    1
     5    17    16   ar
     6    12    13    2
     7    15    16    1
     8    16    18   ar
     9     4     3    2
    10     3     2    1
    11     2     1    1
    12     2     5    1
    13     5     6    1
    14     8     7    2
    15     6     7    1
    16     7     9   am
    17    75    74    2
    18    76    77    1
    19    76    73    1
    20    74    73    1
    21    78    77   ar
    22    78    80   ar
    23    77    79   ar
    24    73    72    1
    25    70    71    1
    26    70    67    1
    27    80    81   ar
    28    72    68   am
    29    79    81   ar
    30    67    68    1
    31    67    66    1
    32    68    69    2
    33    66    64   am
    34    43    41   ar
    35    65    64    2
    36    64    63    1
    37    41    42   ar
    38    41    40    1
    39    25    24   ar
    40    63    62    1
    41    40    39    1
    42    24    26   ar
    43    24    23    1
    44    62    57   am
    45    47    46    2
    46    23    20    1
    47    39    36    1
    48    57    58    2
    49    57    56    1
    50    20    19    1
    51    20    21    1
    52    56    55    1
    53    56    59    1
    54    46    55   am
    55    46    45    1
    56    36    37    1
    57    36    35    1
    58    44    45    1
    59    44    37   am
    60    22    21    2
    61    48    45    1
    62    48    49    1
    63    21    27   am
    64    37    38    2
    65    59    60    1
    66    59    61    1
    67    51    49   ar
    68    51    53   ar
    69    49    50   ar
    70    53    54   ar
    71    27    28    1
    72    50    52   ar
    73    54    52   ar
    74    28    29    1
    75    28    31    1
    76    29    30    2
    77    33    32   ar
    78    31    32    1
    79    32    34   ar
