@<TRIPOS>MOLECULE
tmp/5l3eA01.pdb
 231 224 0 0 0
SMALL
GASTEIGER

@<TRIPOS>ATOM
      1  N        -13.0770   55.4600   82.0350 N.3   163  VAL163     -0.1245
      2  CA       -13.3130   54.1050   82.4720 C.3   163  VAL163      0.1561
      3  C        -13.2320   53.9830   83.9830 C.2   163  VAL163      0.2260
      4  O        -12.3230   54.5090   84.6270 O.2   163  VAL163     -0.2867
      5  CB       -12.2220   53.1800   81.8880 C.3   163  VAL163      0.0252
      6  CG1      -12.3440   51.7330   82.3720 C.3   163  VAL163      0.0019
      7  CG2      -12.2440   53.2420   80.3790 C.3   163  VAL163      0.0019
      8  N        -12.4610   51.2830   86.6580 N.3   165  THR165     -0.1218
      9  CA       -11.7050   50.0660   86.4910 C.3   165  THR165      0.1862
     10  C        -12.1110   48.9980   87.5040 C.2   165  THR165      0.2287
     11  O        -11.2750   48.4900   88.2630 O.2   165  THR165     -0.2866
     12  CB       -10.1910   50.3640   86.4710 C.3   165  THR165      0.1770
     13  OG1       -9.7230   50.7750   87.7550 O.3   165  THR165     -0.2211
     14  CG2       -9.8910   51.4910   85.4670 C.3   165  THR165      0.0375
     15  N        -17.6910   47.1520   79.4900 N.3   186  ILE186     -0.1245
     16  CA       -16.9390   47.1940   78.2640 C.3   186  ILE186      0.1561
     17  C        -16.6980   45.7330   77.9150 C.2   186  ILE186      0.2260
     18  O        -16.0530   45.0090   78.7020 O.2   186  ILE186     -0.2867
     19  CB       -15.6040   47.9190   78.4940 C.3   186  ILE186      0.0252
     20  CG1      -15.8270   49.4220   78.6170 C.3   186  ILE186      0.0019
     21  CG2      -14.5800   47.6100   77.4040 C.3   186  ILE186      0.0019
     22  CD1      -14.7370   50.0630   79.4490 C.3   186  ILE186      0.0001
     23  N        -14.7230   43.0610   76.3150 N.3   188  GLN188     -0.1245
     24  CA       -13.2660   43.0820   76.1340 C.3   188  GLN188      0.1566
     25  C        -12.8120   42.6920   74.7070 C.2   188  GLN188      0.2260
     26  O        -11.6300   42.8290   74.3820 O.2   188  GLN188     -0.2867
     27  CB       -12.5370   42.2290   77.2140 C.3   188  GLN188      0.0367
     28  CG       -12.6110   42.7200   78.6800 C.3   188  GLN188      0.0905
     29  CD       -12.1630   44.1770   78.9380 C.2   188  GLN188      0.2608
     30  OE1      -11.4740   44.7980   78.1220 O.2   188  GLN188     -0.2717
     31  NE2      -12.5570   44.7190   80.0970 N.am  188  GLN188     -0.0878
     32  N          3.4040   38.3420   73.4840 N.3   212  PHE212     -0.1227
     33  CA         3.3690   39.5760   74.2970 C.3   212  PHE212      0.1736
     34  C          3.3900   39.2520   75.7780 C.2   212  PHE212      0.2595
     35  O          4.2820   39.6980   76.5150 O.2   212  PHE212     -0.2718
     36  CB         2.1460   40.4390   73.9500 C.3   212  PHE212      0.0547
     37  CG         1.8570   41.5340   74.9450 C.ar  212  PHE212     -0.0202
     38  CD1        2.8280   42.4590   75.2750 C.ar  212  PHE212     -0.0042
     39  CD2        0.5980   41.6500   75.5240 C.ar  212  PHE212     -0.0042
     40  CE1        2.5690   43.4470   76.1910 C.ar  212  PHE212     -0.0003
     41  CE2        0.3270   42.6450   76.4360 C.ar  212  PHE212     -0.0003
     42  CZ         1.3170   43.5440   76.7730 C.ar  212  PHE212     -0.0000
     43  N          2.4390   38.4350   76.1990 N.am  213  ASN213     -0.1974
     44  CA         2.3430   38.0720   77.6070 C.3   213  ASN213      0.1688
     45  C          3.5460   37.3710   78.1790 C.2   213  ASN213      0.2292
     46  O          3.8350   37.5160   79.3790 O.2   213  ASN213     -0.2864
     47  CB         1.1120   37.2320   77.8320 C.3   213  ASN213      0.1181
     48  CG        -0.1280   38.0640   77.8170 C.2   213  ASN213      0.2629
     49  OD1       -0.3260   38.8650   78.7120 O.2   213  ASN213     -0.2716
     50  ND2       -0.9390   37.9270   76.7920 N.am  213  ASN213     -0.0877
     51  N          6.3740   39.8420   78.5620 N.3   216  LEU216     -0.1245
     52  CA         6.1680   40.5650   79.8160 C.3   216  LEU216      0.1561
     53  C          6.5860   39.7470   80.9920 C.2   216  LEU216      0.2260
     54  O          7.4290   40.2010   81.7400 O.2   216  LEU216     -0.2867
     55  CB         4.7380   41.0510   80.0210 C.3   216  LEU216      0.0270
     56  CG         4.4440   42.5330   79.7640 C.3   216  LEU216      0.0019
     57  CD1        3.0330   42.7920   80.2500 C.3   216  LEU216      0.0001
     58  CD2        5.4140   43.5100   80.4310 C.3   216  LEU216      0.0001
     59  N          9.5940   40.5390   83.9530 N.3   220  SER220     -0.1217
     60  CA         9.4940   40.3340   85.3810 C.3   220  SER220      0.1889
     61  C         10.5480   39.3590   85.9000 C.2   220  SER220      0.2288
     62  O         11.1710   39.6300   86.9360 O.2   220  SER220     -0.2866
     63  CB         8.1100   39.8870   85.7900 C.3   220  SER220      0.2089
     64  OG         8.1170   39.6890   87.1950 O.3   220  SER220     -0.2183
     65  N         -0.6630   49.2950   73.3700 N.3   365  ASN365     -0.1225
     66  CA        -1.7340   49.1850   74.3350 C.3   365  ASN365      0.1785
     67  C         -1.2170   49.4750   75.7310 C.2   365  ASN365      0.2597
     68  O         -1.8850   50.1070   76.5030 O.2   365  ASN365     -0.2718
     69  CB        -2.4630   47.8260   74.2600 C.3   365  ASN365      0.1169
     70  CG        -3.9600   47.9680   74.4750 C.2   365  ASN365      0.2627
     71  OD1       -4.5360   49.0150   74.2550 O.2   365  ASN365     -0.2716
     72  ND2       -4.5940   46.9210   74.9130 N.am  365  ASN365     -0.0877
     73  N         -0.0070   49.0520   76.0090 N.am  366  LEU366     -0.1980
     74  CA         0.5830   49.1930   77.3000 C.3   366  LEU366      0.1596
     75  C          1.0410   50.6240   77.5370 C.2   366  LEU366      0.2287
     76  O          0.9790   51.1270   78.6610 O.2   366  LEU366     -0.2864
     77  CB         1.7850   48.2660   77.3770 C.3   366  LEU366      0.0297
     78  CG         2.1170   47.7690   78.7580 C.3   366  LEU366      0.0022
     79  CD1        1.0020   46.8910   79.3250 C.3   366  LEU366      0.0001
     80  CD2        3.4250   47.0100   78.6830 C.3   366  LEU366      0.0001
     81  N         -0.4240   53.1650   76.1540 N.3   368  PHE368     -0.1227
     82  CA        -1.6750   53.8540   76.3800 C.3   368  PHE368      0.1736
     83  C         -2.0350   53.7830   77.8460 C.2   368  PHE368      0.2595
     84  O         -2.2690   54.7710   78.4630 O.2   368  PHE368     -0.2718
     85  CB        -2.7780   53.2680   75.5040 C.3   368  PHE368      0.0547
     86  CG        -4.1180   53.2380   76.1390 C.ar  368  PHE368     -0.0202
     87  CD1       -4.7450   54.3990   76.5010 C.ar  368  PHE368     -0.0042
     88  CD2       -4.7730   52.0360   76.3410 C.ar  368  PHE368     -0.0042
     89  CE1       -5.9990   54.3690   77.0900 C.ar  368  PHE368     -0.0003
     90  CE2       -6.0420   51.9990   76.9120 C.ar  368  PHE368     -0.0003
     91  CZ        -6.6570   53.1690   77.2880 C.ar  368  PHE368     -0.0000
     92  N         -2.0440   52.6180   78.4240 N.am  369  ALA369     -0.1966
     93  CA        -2.3940   52.5100   79.8300 C.3   369  ALA369      0.1728
     94  C         -1.4520   53.2000   80.8290 C.2   369  ALA369      0.2616
     95  O         -1.9070   53.6760   81.8640 O.2   369  ALA369     -0.2715
     96  CB        -2.5370   51.0580   80.2040 C.3   369  ALA369      0.0334
     97  N         -0.1660   53.2290   80.5350 N.am  370  ASN370     -0.1972
     98  CA         0.7720   53.8960   81.3960 C.3   370  ASN370      0.1688
     99  C          0.9820   55.3160   80.9800 C.2   370  ASN370      0.2292
    100  O          1.7610   56.0370   81.5980 O.2   370  ASN370     -0.2864
    101  CB         2.0860   53.1590   81.4260 C.3   370  ASN370      0.1181
    102  CG         1.9820   51.9340   82.2350 C.2   370  ASN370      0.2629
    103  OD1        2.2110   51.9710   83.4250 O.2   370  ASN370     -0.2716
    104  ND2        1.5440   50.8540   81.6220 N.am  370  ASN370     -0.0877
    105  N          7.2100   49.5990   87.5860 N.3   382  TRP382     -0.1227
    106  CA         6.1000   50.0990   86.7880 C.3   382  TRP382      0.1737
    107  C          4.7670   49.5040   87.1950 C.2   382  TRP382      0.2595
    108  O          3.7930   50.1480   87.0570 O.2   382  TRP382     -0.2718
    109  CB         6.3190   49.8970   85.2860 C.3   382  TRP382      0.0564
    110  CG         6.0930   48.4960   84.7770 C.ar  382  TRP382      0.0003
    111  CD1        6.9950   47.4860   84.7410 C.ar  382  TRP382      0.0946
    112  CD2        4.8690   47.9760   84.2290 C.ar  382  TRP382      0.0152
    113  NE1        6.4060   46.3750   84.2080 N.ar  382  TRP382     -0.2442
    114  CE2        5.1050   46.6500   83.8790 C.ar  382  TRP382      0.0810
    115  CE3        3.6080   48.5180   83.9960 C.ar  382  TRP382      0.0012
    116  CZ2        4.1290   45.8370   83.3070 C.ar  382  TRP382      0.0191
    117  CZ3        2.6350   47.7100   83.4090 C.ar  382  TRP382      0.0001
    118  CH2        2.9060   46.3840   83.0770 C.ar  382  TRP382      0.0015
    119  N          4.7420   48.2680   87.6850 N.am  383  ASP383     -0.1974
    120  CA         3.4970   47.5460   87.9850 C.3   383  ASP383      0.1709
    121  C          3.2650   47.4660   89.4910 C.2   383  ASP383      0.2293
    122  O          2.4250   46.7010   89.9130 O.2   383  ASP383     -0.2864
    123  CB         3.5210   46.1250   87.3330 C.3   383  ASP383      0.1436
    124  CG         4.8110   45.2700   87.7030 C.2   383  ASP383      0.3671
    125  OD1        5.8140   45.8110   88.2650 O.co2 383  ASP383     -0.2456
    126  OD2        4.8090   44.0410   87.4030 O.co2 383  ASP383     -0.2456
    127  N          1.5680   48.9810   91.7090 N.3   385  ASP385     -0.1225
    128  CA         0.1610   49.0420   92.0550 C.3   385  ASP385      0.1805
    129  C         -0.6820   47.8530   91.6020 C.2   385  ASP385      0.2597
    130  O         -1.9090   47.9020   91.7100 O.2   385  ASP385     -0.2718
    131  CB        -0.4410   50.3500   91.4960 C.3   385  ASP385      0.1424
    132  CG        -0.3490   50.4660   89.9720 C.2   385  ASP385      0.3668
    133  OD1        0.5130   49.8090   89.3760 O.co2 385  ASP385     -0.2456
    134  OD2       -1.1170   51.2430   89.3680 O.co2 385  ASP385     -0.2456
    135  N         -0.0630   46.7920   91.0840 N.am  386  ASP386     -0.1974
    136  CA        -0.8310   45.6760   90.4960 C.3   386  ASP386      0.1709
    137  C         -1.6090   44.9290   91.5830 C.2   386  ASP386      0.2293
    138  O         -2.7920   44.6200   91.4030 O.2   386  ASP386     -0.2864
    139  CB         0.0800   44.7090   89.7150 C.3   386  ASP386      0.1436
    140  CG        -0.6950   43.7900   88.8050 C.2   386  ASP386      0.3671
    141  OD1       -1.3590   44.3170   87.8830 O.co2 386  ASP386     -0.2456
    142  OD2       -0.6440   42.5600   89.0250 O.co2 386  ASP386     -0.2456
    143  N        -14.5880   46.3240   83.8180 N.3   394  HIS394     -0.1241
    144  CA       -14.3880   47.7220   83.5510 C.3   394  HIS394      0.1621
    145  C        -15.6400   48.2930   82.8970 C.2   394  HIS394      0.2264
    146  O        -16.3620   47.5810   82.1860 O.2   394  HIS394     -0.2867
    147  CB       -13.1570   47.8780   82.6540 C.3   394  HIS394      0.0745
    148  CG       -11.8830   47.5480   83.3560 C.ar  394  HIS394      0.0817
    149  ND1      -10.6630   48.0410   82.9500 N.ar  394  HIS394     -0.2268
    150  CD2      -11.6480   46.8410   84.4890 C.ar  394  HIS394      0.1154
    151  CE1       -9.7240   47.6240   83.7850 C.ar  394  HIS394      0.1986
    152  NE2      -10.2980   46.8980   84.7310 N.ar  394  HIS394     -0.2212
    153  N        -14.6520   48.0970   71.1920 N.3   507  LEU507     -0.1245
    154  CA       -13.4030   48.6110   70.7290 C.3   507  LEU507      0.1561
    155  C        -12.7380   47.7760   69.6330 C.2   507  LEU507      0.2260
    156  O        -13.0770   46.6180   69.4170 O.2   507  LEU507     -0.2867
    157  CB       -12.5150   48.8370   71.9540 C.3   507  LEU507      0.0270
    158  CG       -12.3060   47.6430   72.8850 C.3   507  LEU507      0.0019
    159  CD1      -11.1390   46.8780   72.3400 C.3   507  LEU507      0.0001
    160  CD2      -11.9620   48.0160   74.3030 C.3   507  LEU507      0.0001
    161  N         -6.1500   52.6250   68.3430 N.3   523  LEU523     -0.1245
    162  CA        -7.2680   51.9790   69.0520 C.3   523  LEU523      0.1561
    163  C         -8.4760   52.8890   68.9780 C.2   523  LEU523      0.2260
    164  O         -8.3180   54.1050   68.9040 O.2   523  LEU523     -0.2867
    165  CB        -6.8700   51.6510   70.4920 C.3   523  LEU523      0.0270
    166  CG        -7.9570   51.1740   71.4620 C.3   523  LEU523      0.0019
    167  CD1       -8.7020   49.9610   70.9590 C.3   523  LEU523      0.0001
    168  CD2       -7.3630   50.8000   72.8160 C.3   523  LEU523      0.0001
    169  N        -12.6990   53.4560   70.2640 N.3   525  TRP525     -0.1241
    170  CA       -13.7460   53.0250   71.1970 C.3   525  TRP525      0.1605
    171  C        -15.0680   53.3870   70.6000 C.2   525  TRP525      0.2264
    172  O        -15.2090   54.4460   69.9660 O.2   525  TRP525     -0.2867
    173  CB       -13.6520   53.6820   72.5810 C.3   525  TRP525      0.0550
    174  CG       -12.4370   53.4020   73.3300 C.ar  525  TRP525      0.0003
    175  CD1      -11.1990   53.9440   73.1160 C.ar  525  TRP525      0.0946
    176  CD2      -12.3070   52.5390   74.4440 C.ar  525  TRP525      0.0152
    177  NE1      -10.2970   53.4500   74.0220 N.ar  525  TRP525     -0.2442
    178  CE2      -10.9480   52.5890   74.8560 C.ar  525  TRP525      0.0810
    179  CE3      -13.1910   51.7110   75.1300 C.ar  525  TRP525      0.0012
    180  CZ2      -10.4630   51.8520   75.9200 C.ar  525  TRP525      0.0191
    181  CZ3      -12.7060   50.9780   76.2080 C.ar  525  TRP525      0.0001
    182  CH2      -11.3490   51.0530   76.5860 C.ar  525  TRP525      0.0015
    183  N         -1.3370   61.8210   83.2080 N.3   591  TYR591     -0.1227
    184  CA        -1.2170   61.2080   84.5180 C.3   591  TYR591      0.1736
    185  C          0.1530   60.6750   84.7480 C.2   591  TYR591      0.2596
    186  O          0.9350   60.5180   83.8330 O.2   591  TYR591     -0.2718
    187  CB        -2.2560   60.1060   84.7820 C.3   591  TYR591      0.0548
    188  CG        -2.5490   59.0780   83.7130 C.ar  591  TYR591     -0.0200
    189  CD1       -1.7480   57.9320   83.5790 C.ar  591  TYR591     -0.0009
    190  CD2       -3.6990   59.1960   82.8970 C.ar  591  TYR591     -0.0009
    191  CE1       -2.0600   56.9590   82.6480 C.ar  591  TYR591      0.0417
    192  CE2       -3.9990   58.2360   81.9490 C.ar  591  TYR591      0.0417
    193  CZ        -3.1710   57.1190   81.8420 C.ar  591  TYR591      0.1957
    194  OH        -3.4200   56.1460   80.9400 O.3   591  TYR591     -0.2866
    195  N          0.4300   60.4090   86.0060 N.am  592  SER592     -0.1938
    196  CA         1.7560   60.1100   86.4640 C.3   592  SER592      0.2055
    197  C          2.0800   58.6800   86.1250 C.2   592  SER592      0.2643
    198  O          1.2000   57.8890   85.7980 O.2   592  SER592     -0.2714
    199  CB         1.8250   60.2750   87.9730 C.3   592  SER592      0.2130
    200  OG         1.0530   59.2570   88.6280 O.3   592  SER592     -0.2179
    201  N          3.3620   58.3650   86.1960 N.am  593  TYR593     -0.1973
    202  CA         3.8300   57.0270   85.9410 C.3   593  TYR593      0.1639
    203  C          5.0540   56.8380   86.7570 C.2   593  TYR593      0.2290
    204  O          5.5750   57.7940   87.3450 O.2   593  TYR593     -0.2864
    205  CB         4.0210   56.7320   84.4330 C.3   593  TYR593      0.0560
    206  CG         5.1590   57.4540   83.7630 C.ar  593  TYR593     -0.0198
    207  CD1        6.4910   57.0140   83.9110 C.ar  593  TYR593     -0.0009
    208  CD2        4.9270   58.5810   82.9760 C.ar  593  TYR593     -0.0009
    209  CE1        7.5380   57.6770   83.2760 C.ar  593  TYR593      0.0417
    210  CE2        5.9740   59.2370   82.3530 C.ar  593  TYR593      0.0417
    211  CZ         7.2660   58.7740   82.5000 C.ar  593  TYR593      0.1957
    212  OH         8.2850   59.4510   81.9100 O.3   593  TYR593     -0.2866
    213  N         -2.3620   55.2310   92.0490 N.3   638  PRO638     -0.2102
    214  CA        -1.9890   56.3790   91.2360 C.3   638  PRO638      0.1504
    215  C         -2.6740   56.3800   89.9310 C.2   638  PRO638      0.2576
    216  O         -3.2090   55.3810   89.4970 O.2   638  PRO638     -0.2718
    217  CB        -0.5040   56.1730   90.9750 C.3   638  PRO638      0.0282
    218  CG        -0.3370   54.7270   91.0540 C.3   638  PRO638      0.0208
    219  CD        -1.2170   54.3270   92.2010 C.3   638  PRO638      0.0893
    220  N         -2.6250   57.5450   89.3280 N.am  639  ALA639     -0.1966
    221  CA        -3.0820   57.7870   87.9970 C.3   639  ALA639      0.1728
    222  C         -4.5200   57.4040   87.6920 C.2   639  ALA639      0.2616
    223  O         -4.8520   57.0510   86.5720 O.2   639  ALA639     -0.2715
    224  CB        -2.1230   57.1240   87.0690 C.3   639  ALA639      0.0334
    225  N         -5.3900   57.5320   88.6790 N.am  640  THR640     -0.1951
    226  CA        -6.8160   57.2040   88.5130 C.3   640  THR640      0.1897
    227  C         -7.7140   58.2550   89.1120 C.2   640  THR640      0.2313
    228  O         -7.2630   59.0940   89.8410 O.2   640  THR640     -0.2863
    229  CB        -7.1170   55.8970   89.2230 C.3   640  THR640      0.1794
    230  OG1       -6.5550   55.9400   90.5470 O.3   640  THR640     -0.2208
    231  CG2       -6.4900   54.7860   88.4630 C.3   640  THR640      0.0378
@<TRIPOS>BOND
     1   161   162    1
     2   164   163    2
     3   163   162    1
     4   162   165    1
     5   156   155    2
     6   155   154    1
     7   172   171    2
     8   169   170    1
     9   165   166    1
    10   171   170    1
    11   154   153    1
    12   154   157    1
    13   167   166    1
    14   170   173    1
    15   166   168    1
    16   157   158    1
    17   159   158    1
    18   173   174    1
    19   158   160    1
    20   175   174   ar
    21   175   177   ar
    22   174   176   ar
    23    65    66    1
    24    32    33    1
    25    36    33    1
    26    36    37    1
    27   177   178   ar
    28    71    70    2
    29    69    66    1
    30    69    70    1
    31    33    34    1
    32    66    67    1
    33    26    25    2
    34   176   178   ar
    35   176   179   ar
    36    70    72   am
    37    25    24    1
    38   178   180   ar
    39    37    38   ar
    40    37    39   ar
    41   179   181   ar
    42    38    40   ar
    43    85    86    1
    44    85    82    1
    45    39    41   ar
    46    67    73   am
    47    67    68    2
    48    34    43   am
    49    34    35    2
    50   180   182   ar
    51    73    74    1
    52    24    23    1
    53    24    27    1
    54    86    88   ar
    55    86    87   ar
    56    81    82    1
    57    40    42   ar
    58    43    44    1
    59   181   182   ar
    60    88    90   ar
    61    82    83    1
    62    41    42   ar
    63    87    89   ar
    64    50    48   am
    65    90    91   ar
    66    89    91   ar
    67    27    28    1
    68    74    77    1
    69    74    75    1
    70    77    78    1
    71    21    19    1
    72    75    76    2
    73    44    47    1
    74    44    45    1
    75    48    47    1
    76    48    49    2
    77    83    92   am
    78    83    84    2
    79    17    16    1
    80    17    18    2
    81    30    29    2
    82    45    46    2
    83    16    19    1
    84    16    15    1
    85    92    93    1
    86    19    20    1
    87    51    52    1
    88    20    22    1
    89    28    29    1
    90    80    78    1
    91    78    79    1
    92    29    31   am
    93    56    55    1
    94    56    57    1
    95    56    58    1
    96    52    55    1
    97    52    53    1
    98    93    96    1
    99    93    94    1
   100     7     5    1
   101    97    94   am
   102    97    98    1
   103    94    95    2
   104   194   193    1
   105    99    98    1
   106    99   100    2
   107    53    54    2
   108    98   101    1
   109   101   102    1
   110   104   102   am
   111   193   192   ar
   112   193   191   ar
   113     5     6    1
   114     5     2    1
   115   212   211    1
   116   192   190   ar
   117     1     2    1
   118   146   145    2
   119   102   103    2
   120   210   211   ar
   121   210   208   ar
   122     2     3    1
   123   211   209   ar
   124   191   189   ar
   125   147   148    1
   126   147   144    1
   127   190   188   ar
   128   145   144    1
   129   149   148   ar
   130   149   151   ar
   131   208   206   ar
   132   118   116   ar
   133   118   117   ar
   134   183   184    1
   135   209   207   ar
   136   116   114   ar
   137   148   150   ar
   138   117   115   ar
   139   144   143    1
   140   189   188   ar
   141   188   187    1
   142   206   207   ar
   143   206   205    1
   144   151   152   ar
   145   186   185    2
   146   114   113   ar
   147   114   112   ar
   148    59    60    1
   149     3     4    2
   150   115   112   ar
   151   113   111   ar
   152   112   110   ar
   153   205   202    1
   154   150   152   ar
   155   184   185    1
   156   184   187    1
   157   111   110   ar
   158   185   195   am
   159   110   109    1
   160   109   106    1
   161    60    63    1
   162    60    61    1
   163    14    12    1
   164    63    64    1
   165   198   197    2
   166    61    62    2
   167   202   201    1
   168   202   203    1
   169   195   196    1
   170   197   201   am
   171   197   196    1
   172   196   199    1
   173    12     9    1
   174    12    13    1
   175     9     8    1
   176     9    10    1
   177   223   222    2
   178   203   204    2
   179   106   107    1
   180   106   105    1
   181   108   107    2
   182   224   221    1
   183   107   119   am
   184   123   124    1
   185   123   120    1
   186   126   124   ar
   187    10    11    2
   188   119   120    1
   189   222   221    1
   190   222   225   am
   191   124   125   ar
   192   141   140   ar
   193   199   200    1
   194   120   121    1
   195   221   220    1
   196   231   229    1
   197   226   225    1
   198   226   227    1
   199   226   229    1
   200   140   142   ar
   201   140   139    1
   202   227   228    2
   203   229   230    1
   204   220   215   am
   205   134   132   ar
   206   133   132   ar
   207   121   122    2
   208   216   215    2
   209   139   136    1
   210   215   214    1
   211   132   131    1
   212   136   135    1
   213   136   137    1
   214   217   218    1
   215   217   214    1
   216   218   219    1
   217   135   129   am
   218   214   213    1
   219   138   137    2
   220   131   128    1
   221   129   130    2
   222   129   128    1
   223   127   128    1
   224   213   219    1
