@<TRIPOS>MOLECULE
tmp/5l3eA02.pdb
 86 79 0 0 0
SMALL
GASTEIGER

@<TRIPOS>ATOM
      1  N         -0.2050   35.8380   73.0060 N.3   210  GLN210     -0.1245
      2  CA         0.5180   34.9420   73.8960 C.3   210  GLN210      0.1566
      3  C          2.0110   35.3540   74.0050 C.2   210  GLN210      0.2260
      4  O          2.5830   35.3290   75.0770 O.2   210  GLN210     -0.2867
      5  CB         0.3800   33.4790   73.4340 C.3   210  GLN210      0.0367
      6  CG         0.6620   32.4420   74.5250 C.3   210  GLN210      0.0905
      7  CD         1.1800   31.1150   73.9870 C.2   210  GLN210      0.2608
      8  OE1        2.2620   30.6480   74.3710 O.2   210  GLN210     -0.2717
      9  NE2        0.4160   30.5020   73.0920 N.am  210  GLN210     -0.0878
     10  N          2.4390   38.4350   76.1990 N.3   213  ASN213     -0.1225
     11  CA         2.3430   38.0720   77.6070 C.3   213  ASN213      0.1785
     12  C          3.5460   37.3710   78.1790 C.2   213  ASN213      0.2597
     13  O          3.8350   37.5160   79.3790 O.2   213  ASN213     -0.2718
     14  CB         1.1120   37.2320   77.8320 C.3   213  ASN213      0.1169
     15  CG        -0.1280   38.0640   77.8170 C.2   213  ASN213      0.2627
     16  OD1       -0.3260   38.8650   78.7120 O.2   213  ASN213     -0.2716
     17  ND2       -0.9390   37.9270   76.7920 N.am  213  ASN213     -0.0877
     18  N          4.2230   36.6120   77.3220 N.am  214  ARG214     -0.1979
     19  CA         5.4160   35.8560   77.6970 C.3   214  ARG214      0.1597
     20  C          6.5970   36.7750   77.7870 C.2   214  ARG214      0.2287
     21  O          7.4200   36.6770   78.7050 O.2   214  ARG214     -0.2864
     22  CB         5.6980   34.7650   76.6720 C.3   214  ARG214      0.0334
     23  CG         4.6270   33.6930   76.6610 C.3   214  ARG214      0.0492
     24  CD         4.3960   33.0280   75.3080 C.3   214  ARG214      0.2205
     25  NE         5.4900   32.1740   74.9110 N.pl3 214  ARG214     -0.0865
     26  CZ         5.7470   30.9990   75.4530 C.cat 214  ARG214      0.5346
     27  NH1        5.0070   30.4890   76.4470 N.pl3 214  ARG214      0.1354
     28  NH2        6.7870   30.3330   75.0170 N.pl3 214  ARG214      0.1354
     29  N          6.3740   39.8420   78.5620 N.3   216  LEU216     -0.1231
     30  CA         6.1680   40.5650   79.8160 C.3   216  LEU216      0.1693
     31  C          6.5860   39.7470   80.9920 C.2   216  LEU216      0.2591
     32  O          7.4290   40.2010   81.7400 O.2   216  LEU216     -0.2718
     33  CB         4.7380   41.0510   80.0210 C.3   216  LEU216      0.0284
     34  CG         4.4440   42.5330   79.7640 C.3   216  LEU216      0.0019
     35  CD1        3.0330   42.7920   80.2500 C.3   216  LEU216      0.0001
     36  CD2        5.4140   43.5100   80.4310 C.3   216  LEU216      0.0001
     37  N          6.0530   38.5370   81.1680 N.am  217  GLU217     -0.1979
     38  CA         6.5050   37.7300   82.3220 C.3   217  GLU217      0.1602
     39  C          8.0340   37.5800   82.3530 C.2   217  GLU217      0.2287
     40  O          8.6500   37.5380   83.4060 O.2   217  GLU217     -0.2864
     41  CB         5.8370   36.3640   82.3690 C.3   217  GLU217      0.0415
     42  CG         4.3960   36.3910   82.8580 C.3   217  GLU217      0.1163
     43  CD         3.7940   35.0080   83.0880 C.2   217  GLU217      0.3649
     44  OE1        4.4130   33.9760   82.7210 O.co2 217  GLU217     -0.2457
     45  OE2        2.6780   34.9640   83.6490 O.co2 217  GLU217     -0.2457
     46  N          9.5940   40.5390   83.9530 N.3   220  SER220     -0.1217
     47  CA         9.4940   40.3340   85.3810 C.3   220  SER220      0.1889
     48  C         10.5480   39.3590   85.9000 C.2   220  SER220      0.2288
     49  O         11.1710   39.6300   86.9360 O.2   220  SER220     -0.2866
     50  CB         8.1100   39.8870   85.7900 C.3   220  SER220      0.2089
     51  OG         8.1170   39.6890   87.1950 O.3   220  SER220     -0.2183
     52  N          4.7420   48.2680   87.6850 N.3   383  ASP383     -0.1239
     53  CA         3.4970   47.5460   87.9850 C.3   383  ASP383      0.1674
     54  C          3.2650   47.4660   89.4910 C.2   383  ASP383      0.2266
     55  O          2.4250   46.7010   89.9130 O.2   383  ASP383     -0.2867
     56  CB         3.5210   46.1250   87.3330 C.3   383  ASP383      0.1410
     57  CG         4.8110   45.2700   87.7030 C.2   383  ASP383      0.3668
     58  OD1        5.8140   45.8110   88.2650 O.co2 383  ASP383     -0.2456
     59  OD2        4.8090   44.0410   87.4030 O.co2 383  ASP383     -0.2456
     60  N         -0.0630   46.7920   91.0840 N.3   386  ASP386     -0.1239
     61  CA        -0.8310   45.6760   90.4960 C.3   386  ASP386      0.1674
     62  C         -1.6090   44.9290   91.5830 C.2   386  ASP386      0.2266
     63  O         -2.7920   44.6200   91.4030 O.2   386  ASP386     -0.2867
     64  CB         0.0800   44.7090   89.7150 C.3   386  ASP386      0.1410
     65  CG        -0.6950   43.7900   88.8050 C.2   386  ASP386      0.3668
     66  OD1       -1.3590   44.3170   87.8830 O.co2 386  ASP386     -0.2456
     67  OD2       -0.6440   42.5600   89.0250 O.co2 386  ASP386     -0.2456
     68  N         -5.4190   45.8930   92.2740 N.3   389  GLU389     -0.1245
     69  CA        -6.3680   46.0030   91.1880 C.3   389  GLU389      0.1567
     70  C         -7.7660   45.6540   91.6970 C.2   389  GLU389      0.2260
     71  O         -7.9270   44.7940   92.5470 O.2   389  GLU389     -0.2867
     72  CB        -5.9170   45.0960   90.0730 C.3   389  GLU389      0.0388
     73  CG        -6.6060   45.3160   88.7510 C.3   389  GLU389      0.1160
     74  CD        -6.1330   44.3120   87.7160 C.2   389  GLU389      0.3649
     75  OE1       -5.2120   43.4450   88.0320 O.co2 389  GLU389     -0.2457
     76  OE2       -6.7290   44.4260   86.6110 O.co2 389  GLU389     -0.2457
     77  N        -14.5880   46.3240   83.8180 N.3   394  HIS394     -0.1241
     78  CA       -14.3880   47.7220   83.5510 C.3   394  HIS394      0.1621
     79  C        -15.6400   48.2930   82.8970 C.2   394  HIS394      0.2264
     80  O        -16.3620   47.5810   82.1860 O.2   394  HIS394     -0.2867
     81  CB       -13.1570   47.8780   82.6540 C.3   394  HIS394      0.0745
     82  CG       -11.8830   47.5480   83.3560 C.ar  394  HIS394      0.0817
     83  ND1      -10.6630   48.0410   82.9500 N.ar  394  HIS394     -0.2268
     84  CD2      -11.6480   46.8410   84.4890 C.ar  394  HIS394      0.1154
     85  CE1       -9.7240   47.6240   83.7850 C.ar  394  HIS394      0.1986
     86  NE2      -10.2980   46.8980   84.7310 N.ar  394  HIS394     -0.2212
@<TRIPOS>BOND
     1     1     2    1
     2     9     7   am
     3     5     2    1
     4     5     6    1
     5     2     3    1
     6     7     8    2
     7     7     6    1
     8     3     4    2
     9    25    24    1
    10    25    26    2
    11    28    26    1
    12    24    23    1
    13    26    27    1
    14    10    11    1
    15    23    22    1
    16    22    19    1
    17    17    15   am
    18    18    19    1
    19    18    12   am
    20    11    14    1
    21    11    12    1
    22    19    20    1
    23    20    21    2
    24    15    14    1
    25    15    16    2
    26    12    13    2
    27    29    30    1
    28    34    33    1
    29    34    35    1
    30    34    36    1
    31    30    33    1
    32    30    31    1
    33    31    37   am
    34    31    32    2
    35    37    38    1
    36    80    79    2
    37    38    39    1
    38    38    41    1
    39    39    40    2
    40    41    42    1
    41    81    82    1
    42    81    78    1
    43    44    43   ar
    44    42    43    1
    45    79    78    1
    46    83    82   ar
    47    83    85   ar
    48    43    45   ar
    49    82    84   ar
    50    78    77    1
    51    85    86   ar
    52    46    47    1
    53    84    86   ar
    54    47    50    1
    55    47    48    1
    56    50    51    1
    57    48    49    2
    58    76    74   ar
    59    56    57    1
    60    56    53    1
    61    59    57   ar
    62    52    53    1
    63    57    58   ar
    64    74    75   ar
    65    74    73    1
    66    66    65   ar
    67    53    54    1
    68    73    72    1
    69    65    67   ar
    70    65    64    1
    71    54    55    2
    72    64    61    1
    73    72    69    1
    74    61    60    1
    75    61    62    1
    76    69    70    1
    77    69    68    1
    78    63    62    2
    79    70    71    2
