@<TRIPOS>MOLECULE
tmp/5l3gA00.pdb
 228 219 0 0 0
SMALL
GASTEIGER

@<TRIPOS>ATOM
      1  N         11.8110  -58.4970  -35.8450 N.3   162  MET162     -0.1230
      2  CA        12.8650  -57.8340  -36.6060 C.3   162  MET162      0.1702
      3  C         13.3170  -56.5730  -35.9000 C.2   162  MET162      0.2592
      4  O         14.4980  -56.2200  -35.9330 O.2   162  MET162     -0.2718
      5  CB        12.3940  -57.5000  -38.0160 C.3   162  MET162      0.0401
      6  CG        13.5090  -57.1060  -38.9720 C.3   162  MET162      0.0596
      7  SD        12.9380  -57.2700  -40.6690 S.3   162  MET162     -0.1393
      8  CE        11.3270  -56.4750  -40.5970 C.3   162  MET162      0.0692
      9  N         12.3870  -55.9190  -35.2140 N.am  163  VAL163     -0.1980
     10  CA        12.6630  -54.5970  -34.6730 C.3   163  VAL163      0.1595
     11  C         12.6530  -54.4840  -33.1440 C.2   163  VAL163      0.2287
     12  O         11.7630  -54.9990  -32.4530 O.2   163  VAL163     -0.2864
     13  CB        11.6400  -53.5750  -35.2170 C.3   163  VAL163      0.0276
     14  CG1       11.9030  -52.2120  -34.6280 C.3   163  VAL163      0.0022
     15  CG2       11.6950  -53.5300  -36.7300 C.3   163  VAL163      0.0022
     16  N         11.6380  -51.7830  -30.8540 N.3   165  THR165     -0.1218
     17  CA        10.8340  -50.5840  -30.9730 C.3   165  THR165      0.1862
     18  C         11.2090  -49.5040  -29.9450 C.2   165  THR165      0.2287
     19  O         10.3390  -48.9850  -29.2180 O.2   165  THR165     -0.2866
     20  CB         9.3390  -50.9250  -30.8270 C.3   165  THR165      0.1770
     21  OG1        9.0140  -51.1090  -29.4430 O.3   165  THR165     -0.2211
     22  CG2        9.0080  -52.2020  -31.5670 C.3   165  THR165      0.0375
     23  N         16.7820  -47.3070  -38.1420 N.3   186  ILE186     -0.1245
     24  CA        16.0390  -47.4400  -39.3600 C.3   186  ILE186      0.1561
     25  C         15.7050  -46.0660  -39.8810 C.2   186  ILE186      0.2260
     26  O         15.0490  -45.2780  -39.1960 O.2   186  ILE186     -0.2867
     27  CB        14.7880  -48.2370  -39.1200 C.3   186  ILE186      0.0252
     28  CG1       15.1710  -49.6750  -38.8100 C.3   186  ILE186      0.0019
     29  CG2       13.8450  -48.1300  -40.3060 C.3   186  ILE186      0.0019
     30  CD1       13.9910  -50.4980  -38.4550 C.3   186  ILE186      0.0001
     31  N         13.6300  -43.8110  -41.5230 N.3   188  GLN188     -0.1231
     32  CA        12.1810  -43.8440  -41.6850 C.3   188  GLN188      0.1698
     33  C         11.6530  -43.1130  -42.9360 C.2   188  GLN188      0.2592
     34  O         10.4640  -42.8080  -43.0430 O.2   188  GLN188     -0.2718
     35  CB        11.5700  -43.3040  -40.3970 C.3   188  GLN188      0.0381
     36  CG        11.9200  -41.8570  -40.1040 C.3   188  GLN188      0.0905
     37  CD        11.2980  -41.3780  -38.8130 C.2   188  GLN188      0.2608
     38  OE1       10.9180  -42.1860  -37.9610 O.2   188  GLN188     -0.2717
     39  NE2       11.2350  -40.0620  -38.6350 N.am  188  GLN188     -0.0878
     40  N         12.5380  -42.8630  -43.8930 N.am  189  LYS189     -0.1966
     41  CA        12.1480  -42.2480  -45.1520 C.3   189  LYS189      0.1728
     42  C         11.6880  -43.3020  -46.1440 C.2   189  LYS189      0.2616
     43  O         12.4270  -44.2300  -46.4510 O.2   189  LYS189     -0.2715
     44  CB        13.2900  -41.4590  -45.7830 C.3   189  LYS189      0.0311
     45  CG        12.9430  -41.1060  -47.2330 C.3   189  LYS189      0.0038
     46  CD        14.0880  -40.5400  -48.0320 C.3   189  LYS189      0.0206
     47  CE        13.6900  -40.4610  -49.4950 C.3   189  LYS189      0.1093
     48  NZ        14.8440  -40.0890  -50.3510 N.3   189  LYS189     -0.1314
     49  N         10.4780  -43.1720  -46.6630 N.am  190  CYS190     -0.1968
     50  CA        10.0010  -44.2270  -47.5220 C.3   190  CYS190      0.1712
     51  C          9.2980  -43.7530  -48.7730 C.2   190  CYS190      0.2296
     52  O          8.1510  -43.2780  -48.7170 O.2   190  CYS190     -0.2864
     53  CB         9.0420  -45.1230  -46.7540 C.3   190  CYS190      0.0983
     54  SG         8.5030  -46.6130  -47.6480 S.3   190  CYS190     -0.0798
     55  N         -0.4490  -38.5950  -47.1920 N.3   209  GLU209     -0.1245
     56  CA         0.0180  -38.9330  -45.8320 C.3   209  GLU209      0.1567
     57  C         -0.7020  -38.0880  -44.7750 C.2   209  GLU209      0.2260
     58  O         -1.2950  -38.6280  -43.8170 O.2   209  GLU209     -0.2867
     59  CB         1.5400  -38.7760  -45.7090 C.3   209  GLU209      0.0388
     60  CG         2.1000  -39.1610  -44.3390 C.3   209  GLU209      0.1160
     61  CD         3.5170  -39.7480  -44.4030 C.2   209  GLU209      0.3649
     62  OE1        3.9030  -40.2900  -45.4680 O.co2 209  GLU209     -0.2457
     63  OE2        4.2410  -39.6770  -43.3820 O.co2 209  GLU209     -0.2457
     64  N         -4.3920  -38.9850  -44.4220 N.3   212  PHE212     -0.1227
     65  CA        -4.4030  -40.2230  -43.6690 C.3   212  PHE212      0.1736
     66  C         -4.4460  -39.8630  -42.2060 C.2   212  PHE212      0.2595
     67  O         -5.4400  -40.1510  -41.5000 O.2   212  PHE212     -0.2718
     68  CB        -3.1660  -41.0740  -44.0380 C.3   212  PHE212      0.0547
     69  CG        -2.8430  -42.2000  -43.0670 C.ar  212  PHE212     -0.0202
     70  CD1       -3.7500  -43.2230  -42.8270 C.ar  212  PHE212     -0.0042
     71  CD2       -1.5960  -42.2650  -42.4560 C.ar  212  PHE212     -0.0042
     72  CE1       -3.4430  -44.2550  -41.9620 C.ar  212  PHE212     -0.0003
     73  CE2       -1.2790  -43.2910  -41.5930 C.ar  212  PHE212     -0.0003
     74  CZ        -2.2040  -44.2930  -41.3490 C.ar  212  PHE212     -0.0000
     75  N         -3.4120  -39.1520  -41.7700 N.am  213  ASN213     -0.1974
     76  CA        -3.2950  -38.8510  -40.3480 C.3   213  ASN213      0.1688
     77  C         -4.5100  -38.0970  -39.8000 C.2   213  ASN213      0.2292
     78  O         -4.9780  -38.3390  -38.6720 O.2   213  ASN213     -0.2864
     79  CB        -2.0000  -38.0970  -40.0850 C.3   213  ASN213      0.1181
     80  CG        -0.7690  -38.9370  -40.4180 C.2   213  ASN213      0.2629
     81  OD1       -0.6580  -40.1020  -39.9920 O.2   213  ASN213     -0.2716
     82  ND2        0.1690  -38.3540  -41.1640 N.am  213  ASN213     -0.0877
     83  N         -7.3170  -40.6670  -39.2200 N.3   216  LEU216     -0.1245
     84  CA        -7.0880  -41.3730  -37.9710 C.3   216  LEU216      0.1561
     85  C         -7.5230  -40.5610  -36.7490 C.2   216  LEU216      0.2260
     86  O         -8.3810  -41.0130  -35.9620 O.2   216  LEU216     -0.2867
     87  CB        -5.6140  -41.7490  -37.8400 C.3   216  LEU216      0.0270
     88  CG        -5.3100  -43.1760  -38.3020 C.3   216  LEU216      0.0019
     89  CD1       -3.8670  -43.5600  -38.0320 C.3   216  LEU216      0.0001
     90  CD2       -6.2670  -44.1710  -37.6560 C.3   216  LEU216      0.0001
     91  N         -0.0860  -50.0440  -44.4140 N.3   365  ASN365     -0.1225
     92  CA         0.9690  -49.9320  -43.4150 C.3   365  ASN365      0.1785
     93  C          0.4130  -50.1570  -41.9860 C.2   365  ASN365      0.2597
     94  O          1.0680  -50.7550  -41.1170 O.2   365  ASN365     -0.2718
     95  CB         1.6770  -48.5750  -43.5010 C.3   365  ASN365      0.1169
     96  CG         3.0750  -48.6420  -42.9400 C.2   365  ASN365      0.2627
     97  OD1        3.8160  -49.5640  -43.2510 O.2   365  ASN365     -0.2716
     98  ND2        3.4160  -47.7240  -42.0510 N.am  365  ASN365     -0.0877
     99  N         -0.7830  -49.6380  -41.7390 N.am  366  LEU366     -0.1980
    100  CA        -1.4260  -49.8230  -40.4460 C.3   366  LEU366      0.1596
    101  C         -1.7890  -51.2780  -40.1800 C.2   366  LEU366      0.2287
    102  O         -1.5400  -51.8140  -39.0900 O.2   366  LEU366     -0.2864
    103  CB        -2.6880  -48.9940  -40.3840 C.3   366  LEU366      0.0297
    104  CG        -3.0350  -48.5080  -39.0000 C.3   366  LEU366      0.0022
    105  CD1       -1.8550  -47.7180  -38.5090 C.3   366  LEU366      0.0001
    106  CD2       -4.3200  -47.6850  -39.0370 C.3   366  LEU366      0.0001
    107  N         -0.4300  -53.6890  -41.3480 N.3   368  PHE368     -0.1227
    108  CA         0.7870  -54.4180  -41.1240 C.3   368  PHE368      0.1736
    109  C          1.3160  -54.2740  -39.7050 C.2   368  PHE368      0.2595
    110  O          1.7400  -55.2310  -39.1120 O.2   368  PHE368     -0.2718
    111  CB         1.8400  -53.9450  -42.1030 C.3   368  PHE368      0.0547
    112  CG         3.2230  -54.0680  -41.5790 C.ar  368  PHE368     -0.0202
    113  CD1        3.8320  -55.3030  -41.5130 C.ar  368  PHE368     -0.0042
    114  CD2        3.9090  -52.9510  -41.1160 C.ar  368  PHE368     -0.0042
    115  CE1        5.0960  -55.4190  -41.0200 C.ar  368  PHE368     -0.0003
    116  CE2        5.1890  -53.0670  -40.6100 C.ar  368  PHE368     -0.0003
    117  CZ         5.7850  -54.3000  -40.5660 C.ar  368  PHE368     -0.0000
    118  N          1.2750  -53.0810  -39.1370 N.am  369  ALA369     -0.1966
    119  CA         1.8170  -52.9190  -37.7870 C.3   369  ALA369      0.1728
    120  C          0.9630  -53.6190  -36.7360 C.2   369  ALA369      0.2616
    121  O          1.3860  -53.8110  -35.6010 O.2   369  ALA369     -0.2715
    122  CB         1.9540  -51.4700  -37.4580 C.3   369  ALA369      0.0334
    123  N         -0.2750  -53.9000  -37.1000 N.am  370  ASN370     -0.1972
    124  CA        -1.1690  -54.5690  -36.1990 C.3   370  ASN370      0.1688
    125  C         -1.3950  -56.0020  -36.5470 C.2   370  ASN370      0.2292
    126  O         -2.0670  -56.7230  -35.8070 O.2   370  ASN370     -0.2864
    127  CB        -2.5000  -53.8560  -36.1740 C.3   370  ASN370      0.1181
    128  CG        -2.3730  -52.4970  -35.6320 C.2   370  ASN370      0.2629
    129  OD1       -2.5690  -52.2730  -34.4380 O.2   370  ASN370     -0.2716
    130  ND2       -1.9940  -51.5640  -36.4890 N.am  370  ASN370     -0.0877
    131  N         -7.7840  -50.3380  -29.8850 N.3   382  TRP382     -0.1227
    132  CA        -6.6570  -50.7650  -30.6810 C.3   382  TRP382      0.1737
    133  C         -5.3260  -50.0340  -30.3910 C.2   382  TRP382      0.2595
    134  O         -4.2300  -50.5500  -30.6330 O.2   382  TRP382     -0.2718
    135  CB        -7.0460  -50.6170  -32.1320 C.3   382  TRP382      0.0564
    136  CG        -6.9160  -49.2530  -32.6150 C.ar  382  TRP382      0.0003
    137  CD1       -7.8330  -48.2490  -32.4900 C.ar  382  TRP382      0.0946
    138  CD2       -5.8050  -48.7040  -33.3240 C.ar  382  TRP382      0.0152
    139  NE1       -7.3540  -47.1070  -33.0830 N.ar  382  TRP382     -0.2442
    140  CE2       -6.1150  -47.3610  -33.6070 C.ar  382  TRP382      0.0810
    141  CE3       -4.5740  -49.2210  -33.7490 C.ar  382  TRP382      0.0012
    142  CZ2       -5.2500  -46.5310  -34.3010 C.ar  382  TRP382      0.0191
    143  CZ3       -3.7110  -48.3870  -34.4410 C.ar  382  TRP382      0.0001
    144  CH2       -4.0550  -47.0580  -34.7070 C.ar  382  TRP382      0.0015
    145  N         -5.4170  -48.8160  -29.8720 N.am  383  ASP383     -0.1974
    146  CA        -4.2290  -47.9880  -29.7590 C.3   383  ASP383      0.1709
    147  C         -3.7680  -47.9780  -28.3200 C.2   383  ASP383      0.2293
    148  O         -2.7290  -47.4220  -28.0240 O.2   383  ASP383     -0.2864
    149  CB        -4.5260  -46.5490  -30.2820 C.3   383  ASP383      0.1436
    150  CG        -5.7430  -45.8850  -29.5860 C.2   383  ASP383      0.3671
    151  OD1       -6.4450  -46.5620  -28.7860 O.co2 383  ASP383     -0.2456
    152  OD2       -6.0050  -44.6810  -29.8530 O.co2 383  ASP383     -0.2456
    153  N         -1.9890  -49.5720  -26.2410 N.3   385  ASP385     -0.1225
    154  CA        -0.6220  -49.8060  -25.7700 C.3   385  ASP385      0.1805
    155  C          0.2880  -48.5850  -25.9740 C.2   385  ASP385      0.2597
    156  O          1.4320  -48.5630  -25.4780 O.2   385  ASP385     -0.2718
    157  CB        -0.0210  -51.0450  -26.4650 C.3   385  ASP385      0.1424
    158  CG         0.0380  -50.9150  -27.9890 C.2   385  ASP385      0.3668
    159  OD1       -0.9810  -50.5670  -28.6390 O.co2 385  ASP385     -0.2456
    160  OD2        1.1290  -51.1430  -28.5530 O.co2 385  ASP385     -0.2456
    161  N         -0.2620  -47.5520  -26.6330 N.am  386  ASP386     -0.1974
    162  CA         0.5120  -46.4220  -27.1730 C.3   386  ASP386      0.1709
    163  C          1.1060  -45.5590  -26.1080 C.2   386  ASP386      0.2293
    164  O          2.1290  -44.8900  -26.3200 O.2   386  ASP386     -0.2864
    165  CB        -0.3500  -45.5270  -28.0680 C.3   386  ASP386      0.1436
    166  CG         0.4810  -44.6790  -29.0200 C.2   386  ASP386      0.3671
    167  OD1        0.9560  -45.2230  -30.0430 O.co2 386  ASP386     -0.2456
    168  OD2        0.6650  -43.4700  -28.7380 O.co2 386  ASP386     -0.2456
    169  N          4.8370  -46.7590  -25.1850 N.3   389  GLU389     -0.1245
    170  CA         5.7790  -46.9970  -26.2550 C.3   389  GLU389      0.1567
    171  C          7.1210  -46.4560  -25.7960 C.2   389  GLU389      0.2260
    172  O          7.2000  -45.5470  -24.9640 O.2   389  GLU389     -0.2867
    173  CB         5.2930  -46.3730  -27.5660 C.3   389  GLU389      0.0388
    174  CG         6.2760  -46.5220  -28.7160 C.3   389  GLU389      0.1160
    175  CD         6.2610  -45.3310  -29.6880 C.2   389  GLU389      0.3649
    176  OE1        5.7960  -44.2090  -29.3230 O.co2 389  GLU389     -0.2457
    177  OE2        6.7470  -45.5280  -30.8230 O.co2 389  GLU389     -0.2457
    178  N         13.5700  -46.7580  -33.7110 N.3   394  HIS394     -0.1241
    179  CA        13.3710  -48.1820  -33.8440 C.3   394  HIS394      0.1621
    180  C         14.6220  -48.7410  -34.5120 C.2   394  HIS394      0.2264
    181  O         15.3050  -48.0620  -35.2720 O.2   394  HIS394     -0.2867
    182  CB        12.0540  -48.4930  -34.5690 C.3   394  HIS394      0.0745
    183  CG        10.8470  -48.1020  -33.7740 C.ar  394  HIS394      0.0817
    184  ND1       10.9410  -47.4460  -32.5620 N.ar  394  HIS394     -0.2268
    185  CD2        9.5280  -48.3580  -33.9560 C.ar  394  HIS394      0.1154
    186  CE1        9.7310  -47.2720  -32.0540 C.ar  394  HIS394      0.1986
    187  NE2        8.8550  -47.8170  -32.8800 N.ar  394  HIS394     -0.2212
    188  N         14.1430  -48.6950  -46.6970 N.3   507  LEU507     -0.1245
    189  CA        12.8430  -49.2320  -47.0360 C.3   507  LEU507      0.1561
    190  C         12.0350  -48.4250  -48.0650 C.2   507  LEU507      0.2260
    191  O         12.0420  -47.2000  -48.0520 O.2   507  LEU507     -0.2867
    192  CB        12.1380  -49.4450  -45.7010 C.3   507  LEU507      0.0270
    193  CG        11.8890  -48.2340  -44.8050 C.3   507  LEU507      0.0019
    194  CD1       10.7090  -47.4550  -45.2030 C.3   507  LEU507      0.0001
    195  CD2       11.8220  -48.6220  -43.3470 C.3   507  LEU507      0.0001
    196  N         12.3120  -54.0410  -47.5770 N.3   525  TRP525     -0.1241
    197  CA        13.4370  -53.6190  -46.6950 C.3   525  TRP525      0.1605
    198  C         14.8150  -54.0820  -47.1720 C.2   525  TRP525      0.2264
    199  O         15.0030  -55.2680  -47.4540 O.2   525  TRP525     -0.2867
    200  CB        13.3050  -54.1450  -45.2640 C.3   525  TRP525      0.0550
    201  CG        12.0270  -53.9040  -44.5460 C.ar  525  TRP525      0.0003
    202  CD1       10.7970  -54.3270  -44.9320 C.ar  525  TRP525      0.0946
    203  CD2       11.8450  -53.2620  -43.2780 C.ar  525  TRP525      0.0152
    204  NE1        9.8540  -53.9670  -44.0040 N.ar  525  TRP525     -0.2442
    205  CE2       10.4720  -53.3100  -42.9790 C.ar  525  TRP525      0.0810
    206  CE3       12.6980  -52.6230  -42.3880 C.ar  525  TRP525      0.0012
    207  CZ2        9.9370  -52.7530  -41.8250 C.ar  525  TRP525      0.0191
    208  CZ3       12.1700  -52.0800  -41.2350 C.ar  525  TRP525      0.0001
    209  CH2       10.8000  -52.1400  -40.9680 C.ar  525  TRP525      0.0015
    210  N          0.7720  -62.4860  -34.1390 N.3   591  TYR591     -0.1241
    211  CA         0.6910  -61.9090  -32.7850 C.3   591  TYR591      0.1605
    212  C         -0.7150  -61.4060  -32.4600 C.2   591  TYR591      0.2264
    213  O         -1.5580  -61.2560  -33.3480 O.2   591  TYR591     -0.2867
    214  CB         1.7770  -60.8460  -32.5350 C.3   591  TYR591      0.0534
    215  CG         1.9890  -59.7650  -33.5780 C.ar  591  TYR591     -0.0201
    216  CD1        1.0970  -58.7140  -33.7490 C.ar  591  TYR591     -0.0009
    217  CD2        3.1960  -59.7280  -34.2990 C.ar  591  TYR591     -0.0009
    218  CE1        1.3480  -57.7120  -34.6990 C.ar  591  TYR591      0.0417
    219  CE2        3.4610  -58.7380  -35.2330 C.ar  591  TYR591      0.0417
    220  CZ         2.5330  -57.7320  -35.4360 C.ar  591  TYR591      0.1957
    221  OH         2.7860  -56.7540  -36.3670 O.3   591  TYR591     -0.2866
    222  N          4.9800  -58.0760  -28.7790 N.3   640  THR640     -0.1218
    223  CA         6.3930  -57.7120  -28.8630 C.3   640  THR640      0.1862
    224  C          7.3790  -58.6550  -28.1490 C.2   640  THR640      0.2287
    225  O          6.9880  -59.4330  -27.2940 O.2   640  THR640     -0.2866
    226  CB         6.6190  -56.3460  -28.2790 C.3   640  THR640      0.1770
    227  OG1        6.3630  -56.4170  -26.8780 O.3   640  THR640     -0.2211
    228  CG2        5.6900  -55.3260  -28.9090 C.3   640  THR640      0.0375
@<TRIPOS>BOND
     1    48    47    1
     2    47    46    1
     3    51    52    2
     4    51    50    1
     5   190   191    2
     6   190   189    1
     7    46    45    1
     8    54    53    1
     9   196   197    1
    10    50    53    1
    11    50    49    1
    12   199   198    2
    13    45    44    1
    14    55    56    1
    15   198   197    1
    16   189   188    1
    17   189   192    1
    18   197   200    1
    19    49    42   am
    20    43    42    2
    21    42    41    1
    22    56    59    1
    23    56    57    1
    24    44    41    1
    25    59    60    1
    26   192   193    1
    27    62    61   ar
    28   200   201    1
    29   194   193    1
    30    41    40    1
    31   202   201   ar
    32   202   204   ar
    33   193   195    1
    34    57    58    2
    35   201   203   ar
    36    64    65    1
    37    91    92    1
    38    61    60    1
    39    61    63   ar
    40    68    65    1
    41    68    69    1
    42   204   205   ar
    43    40    33   am
    44    65    66    1
    45    95    92    1
    46    95    96    1
    47    92    93    1
    48   203   205   ar
    49   203   206   ar
    50    97    96    2
    51    69    70   ar
    52    69    71   ar
    53    34    33    2
    54   205   207   ar
    55    96    98   am
    56    33    32    1
    57    70    72   ar
    58    71    73   ar
    59   206   208   ar
    60    66    75   am
    61    66    67    2
    62   111   112    1
    63   111   108    1
    64    93    99   am
    65    93    94    2
    66    72    74   ar
    67   207   209   ar
    68    75    76    1
    69    99   100    1
    70    32    31    1
    71    32    35    1
    72    73    74   ar
    73   112   113   ar
    74   112   114   ar
    75   113   115   ar
    76   107   108    1
    77   208   209   ar
    78    82    80   am
    79   108   109    1
    80   114   116   ar
    81   115   117   ar
    82     7     8    1
    83     7     6    1
    84   116   117   ar
    85   100   103    1
    86   100   101    1
    87    80    79    1
    88    80    81    2
    89    35    36    1
    90   103   104    1
    91    76    79    1
    92    76    77    1
    93    29    27    1
    94   101   102    2
    95    36    37    1
    96    25    24    1
    97    25    26    2
    98    77    78    2
    99   109   118   am
   100   109   110    2
   101    24    27    1
   102    24    23    1
   103    83    84    1
   104   118   119    1
   105    27    28    1
   106   106   104    1
   107   104   105    1
   108     6     5    1
   109    37    39   am
   110    37    38    2
   111    28    30    1
   112    88    89    1
   113    88    87    1
   114    88    90    1
   115     5     2    1
   116    84    87    1
   117    84    85    1
   118   119   122    1
   119   119   120    1
   120   123   120   am
   121   123   124    1
   122    85    86    2
   123   120   121    2
   124    15    13    1
   125     2     3    1
   126     2     1    1
   127   125   124    1
   128   125   126    2
   129   130   128   am
   130   221   220    1
   131   124   127    1
   132   127   128    1
   133     4     3    2
   134     3     9   am
   135   128   129    2
   136   220   219   ar
   137   220   218   ar
   138   181   180    2
   139   219   217   ar
   140    13    10    1
   141    13    14    1
   142     9    10    1
   143   144   143   ar
   144   144   142   ar
   145   218   216   ar
   146    10    11    1
   147   182   179    1
   148   182   183    1
   149   180   179    1
   150   143   141   ar
   151   142   140   ar
   152   217   215   ar
   153   210   211    1
   154   185   183   ar
   155   185   187   ar
   156   179   178    1
   157   183   184   ar
   158   216   215   ar
   159   141   138   ar
   160   140   138   ar
   161   140   139   ar
   162   215   214    1
   163   213   212    2
   164   138   136   ar
   165    11    12    2
   166   139   137   ar
   167   187   186   ar
   168   211   214    1
   169   211   212    1
   170   136   137   ar
   171   136   135    1
   172   184   186   ar
   173   135   132    1
   174    22    20    1
   175    17    16    1
   176    17    20    1
   177    17    18    1
   178    20    21    1
   179   177   175   ar
   180   132   133    1
   181   132   131    1
   182   134   133    2
   183   133   145   am
   184   149   146    1
   185   149   150    1
   186   167   166   ar
   187    18    19    2
   188   145   146    1
   189   152   150   ar
   190   146   147    1
   191   175   176   ar
   192   175   174    1
   193   150   151   ar
   194   166   168   ar
   195   166   165    1
   196   228   226    1
   197   223   222    1
   198   223   226    1
   199   223   224    1
   200   174   173    1
   201   159   158   ar
   202   160   158   ar
   203   147   148    2
   204   226   227    1
   205   224   225    2
   206   165   162    1
   207   158   157    1
   208   173   170    1
   209   162   161    1
   210   162   163    1
   211   161   155   am
   212   157   154    1
   213   164   163    2
   214   170   171    1
   215   170   169    1
   216   153   154    1
   217   155   154    1
   218   155   156    2
   219   171   172    2
