@<TRIPOS>MOLECULE
tmp/5l3jA00.pdb
 132 122 0 0 0
SMALL
GASTEIGER

@<TRIPOS>ATOM
      1  N        -12.3070   10.9730   13.9230 N.3    29  VAL29      -0.1245
      2  CA       -13.2810   11.5470   14.8600 C.3    29  VAL29       0.1561
      3  C        -13.0770   10.9810   16.2740 C.2    29  VAL29       0.2260
      4  O        -13.2210   11.7090   17.2590 O.2    29  VAL29      -0.2867
      5  CB       -14.7380   11.3090   14.3960 C.3    29  VAL29       0.0252
      6  CG1      -15.7260   11.9260   15.3770 C.3    29  VAL29       0.0019
      7  CG2      -14.9610   11.8850   13.0040 C.3    29  VAL29       0.0019
      8  N         -9.8130   12.5230   17.9480 N.3    32  ASN32      -0.1225
      9  CA       -10.1340   13.8300   18.5470 C.3    32  ASN32       0.1785
     10  C        -10.8420   13.7090   19.9000 C.2    32  ASN32       0.2597
     11  O        -10.5920   14.5090   20.8060 O.2    32  ASN32      -0.2718
     12  CB       -10.9780   14.6900   17.5960 C.3    32  ASN32       0.1169
     13  CG       -10.1350   15.4120   16.5650 C.2    32  ASN32       0.2627
     14  OD1      -10.1280   16.6420   16.5050 O.2    32  ASN32      -0.2716
     15  ND2       -9.4100   14.6520   15.7540 N.am   32  ASN32      -0.0877
     16  N        -11.7270   12.7200   20.0190 N.am   33  ALA33      -0.1979
     17  CA       -12.3470   12.3690   21.3020 C.3    33  ALA33       0.1597
     18  C        -11.3100   11.8450   22.3020 C.2    33  ALA33       0.2287
     19  O        -11.3620   12.1780   23.4880 O.2    33  ALA33      -0.2864
     20  CB       -13.4470   11.3370   21.0940 C.3    33  ALA33       0.0319
     21  N         -9.0440   14.6350   23.6930 N.3    36  GLU36      -0.1245
     22  CA        -9.7320   15.2510   24.8340 C.3    36  GLU36       0.1567
     23  C         -9.6730   14.3560   26.0790 C.2    36  GLU36       0.2260
     24  O         -9.6090   14.8640   27.2010 O.2    36  GLU36      -0.2867
     25  CB       -11.1860   15.5960   24.4630 C.3    36  GLU36       0.0388
     26  CG       -12.0290   16.2620   25.5540 C.3    36  GLU36       0.1160
     27  CD       -11.6130   17.6880   25.9020 C.2    36  GLU36       0.3649
     28  OE1      -10.5020   18.1350   25.5440 O.co2  36  GLU36      -0.2457
     29  OE2      -12.4310   18.3860   26.5370 O.co2  36  GLU36      -0.2457
     30  N        -10.6280   15.2570   30.3860 N.3    41  HIS41      -0.1241
     31  CA       -12.0440   15.6320   30.4690 C.3    41  HIS41       0.1621
     32  C        -12.9190   14.4770   30.0690 C.2    41  HIS41       0.2264
     33  O        -13.8160   14.0840   30.8170 O.2    41  HIS41      -0.2867
     34  CB       -12.3410   16.8450   29.5860 C.3    41  HIS41       0.0745
     35  CG       -11.4000   18.0100   29.8060 C.ar   41  HIS41       0.0817
     36  ND1      -11.1420   18.9210   28.8510 N.ar   41  HIS41      -0.2268
     37  CD2      -10.6390   18.3780   30.9140 C.ar   41  HIS41       0.1154
     38  CE1      -10.2710   19.8320   29.3220 C.ar   41  HIS41       0.1986
     39  NE2       -9.9620   19.4980   30.5850 N.ar   41  HIS41      -0.2212
     40  N        -19.8520    9.6100   16.9940 N.3    57  VAL57      -0.1245
     41  CA       -18.9130    9.5120   18.1140 C.3    57  VAL57       0.1561
     42  C        -19.3150   10.5260   19.1870 C.2    57  VAL57       0.2260
     43  O        -18.9720   11.7040   19.0960 O.2    57  VAL57      -0.2867
     44  CB       -17.4580    9.7670   17.6610 C.3    57  VAL57       0.0252
     45  CG1      -16.5010    9.6690   18.8420 C.3    57  VAL57       0.0019
     46  CG2      -17.0580    8.7850   16.5680 C.3    57  VAL57       0.0019
     47  N        -18.7700   11.8010   22.8430 N.3    59  ASP59      -0.1239
     48  CA       -17.9230   11.8180   24.0510 C.3    59  ASP59       0.1674
     49  C        -18.5360   12.6910   25.1530 C.2    59  ASP59       0.2266
     50  O        -19.5060   13.4170   24.9110 O.2    59  ASP59      -0.2867
     51  CB       -16.4710   12.2330   23.7350 C.3    59  ASP59       0.1410
     52  CG       -16.3460   13.6370   23.1470 C.2    59  ASP59       0.3668
     53  OD1      -17.0820   14.5610   23.5500 O.co2  59  ASP59      -0.2456
     54  OD2      -15.4660   13.8210   22.2830 O.co2  59  ASP59      -0.2456
     55  N        -15.3900   18.4510   27.6110 N.3    62  ARG62      -0.1231
     56  CA       -15.7840   19.8420   27.8580 C.3    62  ARG62       0.1694
     57  C        -16.5840   20.4430   26.6960 C.2    62  ARG62       0.2593
     58  O        -17.3480   21.3900   26.8990 O.2    62  ARG62      -0.2718
     59  CB       -14.5480   20.7070   28.1330 C.3    62  ARG62       0.0321
     60  CG       -14.8360   22.0920   28.7480 C.3    62  ARG62       0.0489
     61  CD       -15.2390   22.0350   30.2140 C.3    62  ARG62       0.2205
     62  NE       -15.2520   23.3690   30.8090 N.pl3  62  ARG62      -0.0865
     63  CZ       -16.1660   24.2960   30.5410 C.cat  62  ARG62       0.5346
     64  NH1      -17.1450   24.0340   29.6860 N.pl3  62  ARG62       0.1354
     65  NH2      -16.1010   25.4850   31.1250 N.pl3  62  ARG62       0.1354
     66  N        -16.4030   19.8940   25.4930 N.am   63  GLY63      -0.1942
     67  CA       -17.0670   20.3810   24.2830 C.3    63  GLY63       0.2014
     68  C        -16.1100   21.1650   23.4040 C.2    63  GLY63       0.2639
     69  O        -15.1200   21.7180   23.8940 O.2    63  GLY63      -0.2714
     70  N        -16.3980   21.2020   22.1030 N.am   64  ILE64      -0.1963
     71  CA       -15.6660   22.0600   21.1690 C.3    64  ILE64       0.1712
     72  C        -16.0350   23.5180   21.4810 C.2    64  ILE64       0.2458
     73  O        -17.2250   23.8300   21.5700 O.2    64  ILE64      -0.2730
     74  CB       -16.0200   21.7540   19.6990 C.3    64  ILE64       0.0289
     75  CG1      -15.5140   20.3710   19.2940 C.3    64  ILE64       0.0022
     76  CG2      -15.3990   22.7890   18.7740 C.3    64  ILE64       0.0023
     77  CD1      -16.0810   19.8740   17.9820 C.3    64  ILE64       0.0001
     78  N        -15.0280   24.4050   21.6670 N.am   65  PRO65      -0.2727
     79  CA       -15.2670   25.8200   21.9660 C.3    65  PRO65       0.1402
     80  C        -16.2780   26.5140   21.0470 C.2    65  PRO65       0.2269
     81  O        -16.0740   26.5850   19.8330 O.2    65  PRO65      -0.2865
     82  CB       -13.8780   26.4440   21.8090 C.3    65  PRO65       0.0296
     83  CG       -12.9530   25.3630   22.2280 C.3    65  PRO65       0.0237
     84  CD       -13.6010   24.0680   21.8230 C.3    65  PRO65       0.0939
     85  N        -12.4660   24.7080   13.4390 N.3    80  ILE80      -0.1231
     86  CA       -11.9390   23.3510   13.6590 C.3    80  ILE80       0.1692
     87  C        -12.5580   22.3340   12.6830 C.2    80  ILE80       0.2591
     88  O        -11.8700   21.4190   12.2200 O.2    80  ILE80      -0.2718
     89  CB       -12.1620   22.8900   15.1240 C.3    80  ILE80       0.0266
     90  CG1      -11.3100   23.7240   16.0870 C.3    80  ILE80       0.0019
     91  CG2      -11.8050   21.4200   15.3100 C.3    80  ILE80       0.0020
     92  CD1       -9.8190   23.5380   15.9810 C.3    80  ILE80       0.0001
     93  N        -13.8390   22.5190   12.3560 N.am   81  MET81      -0.1979
     94  CA       -14.5790   21.5880   11.4910 C.3    81  MET81       0.1605
     95  C        -14.4090   21.8380    9.9790 C.2    81  MET81       0.2287
     96  O        -14.9530   21.0750    9.1790 O.2    81  MET81      -0.2864
     97  CB       -16.0770   21.6110   11.8540 C.3    81  MET81       0.0413
     98  CG       -16.7870   20.2730   11.7120 C.3    81  MET81       0.0598
     99  SD       -16.3610   19.1310   13.0430 S.3    81  MET81      -0.1393
    100  CE       -17.0890   17.6130   12.4370 C.3    81  MET81       0.0692
    101  N        -10.3770   16.8490   11.6390 N.3    88  VAL88      -0.1245
    102  CA       -11.7920   16.4710   11.4640 C.3    88  VAL88       0.1561
    103  C        -12.4170   17.1500   10.2350 C.2    88  VAL88       0.2260
    104  O        -13.4300   16.6780    9.7140 O.2    88  VAL88      -0.2867
    105  CB       -12.6340   16.7960   12.7250 C.3    88  VAL88       0.0252
    106  CG1      -14.0470   16.2460   12.5990 C.3    88  VAL88       0.0019
    107  CG2      -11.9830   16.2150   13.9680 C.3    88  VAL88       0.0019
    108  N        -21.8830   22.2990   25.7840 N.3   104  ARG104     -0.1245
    109  CA       -20.7720   23.0420   26.4070 C.3   104  ARG104      0.1563
    110  C        -21.1140   23.6290   27.7890 C.2   104  ARG104      0.2260
    111  O        -20.7990   23.0070   28.8070 O.2   104  ARG104     -0.2867
    112  CB       -20.2390   24.1140   25.4440 C.3   104  ARG104      0.0307
    113  CG       -19.0660   24.9090   26.0050 C.3   104  ARG104      0.0489
    114  CD       -18.1780   25.4940   24.9170 C.3   104  ARG104      0.2205
    115  NE       -16.8440   25.8290   25.4210 N.pl3 104  ARG104     -0.0865
    116  CZ       -15.8790   24.9490   25.7100 C.cat 104  ARG104      0.5346
    117  NH1      -16.0670   23.6340   25.5670 N.pl3 104  ARG104      0.1354
    118  NH2      -14.7060   25.3890   26.1620 N.pl3 104  ARG104      0.1354
    119  N        -19.1770   16.3260   23.3760 N.3   133  THR133     -0.1218
    120  CA       -19.1280   16.5640   21.9300 C.3   133  THR133      0.1862
    121  C        -19.6720   15.3410   21.1920 C.2   133  THR133      0.2287
    122  O        -19.2450   14.2140   21.4620 O.2   133  THR133     -0.2866
    123  CB       -17.6870   16.8180   21.4320 C.3   133  THR133      0.1770
    124  OG1      -16.9360   17.5330   22.4220 O.3   133  THR133     -0.2211
    125  CG2      -17.7000   17.6080   20.1290 C.3   133  THR133      0.0375
    126  N        -20.3970   14.0430   17.1520 N.3   135  VAL135     -0.1245
    127  CA       -20.2400   14.2400   15.7110 C.3   135  VAL135      0.1561
    128  C        -20.7350   12.9850   14.9950 C.2   135  VAL135      0.2260
    129  O        -20.1580   11.9140   15.1690 O.2   135  VAL135     -0.2867
    130  CB       -18.7660   14.5030   15.3330 C.3   135  VAL135      0.0252
    131  CG1      -18.6240   14.7290   13.8340 C.3   135  VAL135      0.0019
    132  CG2      -18.2280   15.7030   16.0980 C.3   135  VAL135      0.0019
@<TRIPOS>BOND
     1    96    95    2
     2   104   103    2
     3    95    94    1
     4   103   102    1
     5   102   101    1
     6   102   105    1
     7    94    97    1
     8    94    93    1
     9    98    97    1
    10    98    99    1
    11    88    87    2
    12    93    87   am
    13   100    99    1
    14   106   105    1
    15    87    86    1
    16   105   107    1
    17     7     5    1
    18    85    86    1
    19    86    89    1
    20   131   130    1
    21     1     2    1
    22     5     2    1
    23     5     6    1
    24     2     3    1
    25   128   129    2
    26   128   127    1
    27    89    91    1
    28    89    90    1
    29   130   127    1
    30   130   132    1
    31   127   126    1
    32    15    13   am
    33    92    90    1
    34     3     4    2
    35    14    13    2
    36    13    12    1
    37    46    44    1
    38    40    41    1
    39    12     9    1
    40    44    41    1
    41    44    45    1
    42     8     9    1
    43    77    75    1
    44    41    42    1
    45     9    10    1
    46    76    74    1
    47    43    42    2
    48    75    74    1
    49    74    71    1
    50    81    80    2
    51    10    16   am
    52    10    11    2
    53    16    17    1
    54   125   123    1
    55    80    79    1
    56    20    17    1
    57    71    72    1
    58    71    70    1
    59   121   122    2
    60   121   120    1
    61    17    18    1
    62   123   120    1
    63   123   124    1
    64    72    73    2
    65    72    78   am
    66    78    84    1
    67    78    79    1
    68    82    79    1
    69    82    83    1
    70    84    83    1
    71   120   119    1
    72    70    68   am
    73    54    52   ar
    74    18    19    2
    75    47    48    1
    76    52    53   ar
    77    52    51    1
    78    68    69    2
    79    68    67    1
    80    21    22    1
    81    51    48    1
    82    48    49    1
    83    67    66    1
    84    25    22    1
    85    25    26    1
    86    22    23    1
    87    50    49    2
    88   114   115    1
    89   114   113    1
    90   115   116    2
    91   112   113    1
    92   112   109    1
    93    66    57   am
    94    28    27   ar
    95    26    27    1
    96   117   116    1
    97   116   118    1
    98   108   109    1
    99    27    29   ar
   100    23    24    2
   101   109   110    1
   102    57    58    2
   103    57    56    1
   104    55    56    1
   105   110   111    2
   106    56    59    1
   107    59    60    1
   108    60    61    1
   109    36    38   ar
   110    36    35   ar
   111    38    39   ar
   112    34    35    1
   113    34    31    1
   114    64    63    1
   115    35    37   ar
   116    32    31    1
   117    32    33    2
   118    61    62    1
   119    30    31    1
   120    63    62    2
   121    63    65    1
   122    39    37   ar
