@<TRIPOS>MOLECULE
tmp/5l3kE01.pdb
 150 148 0 0 0
SMALL
GASTEIGER

@<TRIPOS>ATOM
      1  N        187.9420  163.8090  116.2940 N.3     9  ASN9       -0.1225
      2  CA       186.5790  163.4150  116.6380 C.3     9  ASN9        0.1785
      3  C        185.7790  163.0780  115.3810 C.2     9  ASN9        0.2597
      4  O        184.9670  162.1410  115.3820 O.2     9  ASN9       -0.2718
      5  CB       185.8820  164.5160  117.4440 C.3     9  ASN9        0.1169
      6  CG       184.4590  164.1230  117.8790 C.2     9  ASN9        0.2627
      7  OD1      184.2760  163.1960  118.6460 O.2     9  ASN9       -0.2716
      8  ND2      183.4630  164.8290  117.3790 N.am    9  ASN9       -0.0877
      9  N        186.0040  163.8160  114.2920 N.am   10  ARG10      -0.1979
     10  CA       185.2480  163.6230  113.0560 C.3    10  ARG10       0.1597
     11  C        185.9720  162.6630  112.1180 C.2    10  ARG10       0.2287
     12  O        187.1860  162.7650  111.9210 O.2    10  ARG10      -0.2864
     13  CB       185.0280  164.9550  112.3170 C.3    10  ARG10       0.0334
     14  CG       183.7650  165.7620  112.6760 C.3    10  ARG10       0.0492
     15  CD       182.4450  165.0330  112.3340 C.3    10  ARG10       0.2205
     16  NE       181.2680  165.8430  112.6200 N.pl3  10  ARG10      -0.0865
     17  CZ       180.0280  165.3720  112.6470 C.cat  10  ARG10       0.5346
     18  NH1      179.8050  164.0820  112.4060 N.pl3  10  ARG10       0.1354
     19  NH2      179.0080  166.1850  112.9270 N.pl3  10  ARG10       0.1354
     20  N        180.5360  167.8220  108.2950 N.3    22  PRO22      -0.2102
     21  CA       180.6520  169.2840  108.2320 C.3    22  PRO22       0.1504
     22  C        181.9840  169.7720  108.7810 C.2    22  PRO22       0.2576
     23  O        182.7050  169.0480  109.4710 O.2    22  PRO22      -0.2718
     24  CB       179.4950  169.7610  109.1140 C.3    22  PRO22       0.0282
     25  CG       179.4010  168.7000  110.1410 C.3    22  PRO22       0.0208
     26  CD       179.6480  167.4070  109.3950 C.3    22  PRO22       0.0893
     27  N        182.3070  171.0210  108.4460 N.am   23  GLY23      -0.1943
     28  CA       183.4130  171.6920  109.0920 C.3    23  GLY23       0.2014
     29  C        184.6610  171.7760  108.2230 C.2    23  GLY23       0.2639
     30  O        184.8530  171.0260  107.2580 O.2    23  GLY23      -0.2714
     31  N        185.5340  172.7000  108.6060 N.am   24  GLY24      -0.1939
     32  CA       186.7330  173.0050  107.8570 C.3    24  GLY24       0.2014
     33  C        187.9040  172.0990  108.1690 C.2    24  GLY24       0.2639
     34  O        188.8380  172.0180  107.3760 O.2    24  GLY24      -0.2714
     35  N        187.8740  171.4180  109.3220 N.am   25  LEU25      -0.1963
     36  CA       188.8960  170.4160  109.6130 C.3    25  LEU25       0.1728
     37  C        188.8380  169.2650  108.6130 C.2    25  LEU25       0.2616
     38  O        189.8720  168.6700  108.2960 O.2    25  LEU25      -0.2715
     39  CB       188.7350  169.9280  111.0530 C.3    25  LEU25       0.0311
     40  CG       189.5880  168.8230  111.6920 C.3    25  LEU25       0.0022
     41  CD1      189.5020  168.9420  113.2070 C.3    25  LEU25       0.0001
     42  CD2      189.1710  167.4260  111.2680 C.3    25  LEU25       0.0001
     43  N        187.6490  168.9470  108.0880 N.am   26  VAL26      -0.1977
     44  CA       187.5390  167.9080  107.0680 C.3    26  VAL26       0.1596
     45  C        187.8360  168.4560  105.6630 C.2    26  VAL26       0.2287
     46  O        188.4000  167.7380  104.8280 O.2    26  VAL26      -0.2864
     47  CB       186.1470  167.2460  107.1390 C.3    26  VAL26       0.0276
     48  CG1      185.8940  166.3370  105.9330 C.3    26  VAL26       0.0022
     49  CG2      186.0180  166.4420  108.4100 C.3    26  VAL26       0.0022
     50  N        180.4360  165.3020  123.8290 N.3    75  TYR75      -0.1241
     51  CA       180.3850  166.0530  122.5680 C.3    75  TYR75       0.1605
     52  C        179.5310  167.3100  122.7020 C.2    75  TYR75       0.2264
     53  O        180.0420  168.4310  122.6350 O.2    75  TYR75      -0.2867
     54  CB       179.8830  165.1380  121.4450 C.3    75  TYR75       0.0534
     55  CG       179.6370  165.8520  120.1320 C.ar   75  TYR75      -0.0201
     56  CD1      180.6720  166.4750  119.4390 C.ar   75  TYR75      -0.0009
     57  CD2      178.3630  165.8950  119.5800 C.ar   75  TYR75      -0.0009
     58  CE1      180.4230  167.1350  118.2420 C.ar   75  TYR75       0.0417
     59  CE2      178.1150  166.5360  118.3950 C.ar   75  TYR75       0.0417
     60  CZ       179.1360  167.1600  117.7300 C.ar   75  TYR75       0.1957
     61  OH       178.8540  167.7980  116.5380 O.3    75  TYR75      -0.2866
     62  N        184.0460  175.1600  123.4510 N.3    84  TRP84      -0.1241
     63  CA       183.8300  176.0470  122.3050 C.3    84  TRP84       0.1605
     64  C        183.4710  177.4830  122.7120 C.2    84  TRP84       0.2264
     65  O        184.0800  178.4200  122.1680 O.2    84  TRP84      -0.2867
     66  CB       182.7830  175.4330  121.3610 C.3    84  TRP84       0.0550
     67  CG       182.4760  176.2360  120.0950 C.ar   84  TRP84       0.0003
     68  CD1      181.5160  177.2070  119.9470 C.ar   84  TRP84       0.0946
     69  CD2      183.1030  176.1060  118.8000 C.ar   84  TRP84       0.0152
     70  NE1      181.5180  177.6900  118.6560 N.ar   84  TRP84      -0.2442
     71  CE2      182.4780  177.0310  117.9350 C.ar   84  TRP84       0.0810
     72  CE3      184.1270  175.2970  118.2920 C.ar   84  TRP84       0.0012
     73  CZ2      182.8470  177.1750  116.6020 C.ar   84  TRP84       0.0191
     74  CZ3      184.4900  175.4360  116.9630 C.ar   84  TRP84       0.0001
     75  CH2      183.8480  176.3720  116.1330 C.ar   84  TRP84       0.0015
     76  N        192.6210  168.8510  117.4070 N.3   129  ASP129     -0.1225
     77  CA       191.5690  169.7710  117.8700 C.3   129  ASP129      0.1805
     78  C        191.0690  169.5980  119.3130 C.2   129  ASP129      0.2598
     79  O        191.5470  168.7280  120.0470 O.2   129  ASP129     -0.2718
     80  CB       190.3700  169.7230  116.9170 C.3   129  ASP129      0.1424
     81  CG       189.7970  171.1110  116.6610 C.2   129  ASP129      0.3668
     82  OD1      188.7250  171.2310  116.0230 O.co2 129  ASP129     -0.2456
     83  OD2      190.4380  172.0860  117.1100 O.co2 129  ASP129     -0.2456
     84  N        190.0790  170.4250  119.7060 N.am  130  TYR130     -0.1962
     85  CA       189.7620  170.7000  121.1090 C.3   130  TYR130      0.1771
     86  C        189.0750  169.5410  121.8360 C.2   130  TYR130      0.2619
     87  O        189.0470  169.5350  123.0730 O.2   130  TYR130     -0.2715
     88  CB       188.8960  171.9820  121.2130 C.3   130  TYR130      0.0574
     89  CG       187.5350  171.9530  120.4940 C.ar  130  TYR130     -0.0198
     90  CD1      187.4540  172.1100  119.1210 C.ar  130  TYR130     -0.0009
     91  CD2      186.3340  171.7900  121.1980 C.ar  130  TYR130     -0.0009
     92  CE1      186.2380  172.0820  118.4660 C.ar  130  TYR130      0.0417
     93  CE2      185.1010  171.7460  120.5370 C.ar  130  TYR130      0.0417
     94  CZ       185.0660  171.8950  119.1710 C.ar  130  TYR130      0.1957
     95  OH       183.8790  171.8780  118.4640 O.3   130  TYR130     -0.2866
     96  N        188.5120  168.5670  121.1250 N.am  131  GLN131     -0.1977
     97  CA       187.8290  167.4840  121.8140 C.3   131  GLN131      0.1601
     98  C        188.7850  166.4650  122.4170 C.2   131  GLN131      0.2287
     99  O        188.3810  165.6840  123.2950 O.2   131  GLN131     -0.2864
    100  CB       186.8610  166.7710  120.8660 C.3   131  GLN131      0.0394
    101  CG       185.9440  167.7030  120.0690 C.3   131  GLN131      0.0908
    102  CD       186.5290  168.2200  118.7660 C.2   131  GLN131      0.2608
    103  OE1      187.7160  168.3840  118.6380 O.2   131  GLN131     -0.2717
    104  NE2      185.6740  168.5660  117.8430 N.am  131  GLN131     -0.0878
    105  N        192.5700  173.6460  116.1450 N.3   153  HIS153     -0.1226
    106  CA       191.9390  174.2720  114.9930 C.3   153  HIS153      0.1752
    107  C        191.1070  175.4910  115.3540 C.2   153  HIS153      0.2595
    108  O        190.6640  176.2130  114.4540 O.2   153  HIS153     -0.2718
    109  CB       191.0450  173.2580  114.2790 C.3   153  HIS153      0.0759
    110  CG       191.7920  172.2700  113.4420 C.ar  153  HIS153      0.0818
    111  ND1      192.2100  172.5540  112.1610 N.ar  153  HIS153     -0.2268
    112  CD2      192.2060  171.0060  113.7020 C.ar  153  HIS153      0.1154
    113  CE1      192.8220  171.4950  111.6560 C.ar  153  HIS153      0.1986
    114  NE2      192.8250  170.5390  112.5680 N.ar  153  HIS153     -0.2212
    115  N        190.8760  175.7360  116.6350 N.am  154  ILE154     -0.1980
    116  CA       190.1120  176.9050  117.0550 C.3   154  ILE154      0.1595
    117  C        191.1050  177.8430  117.7300 C.2   154  ILE154      0.2287
    118  O        192.2850  177.4760  117.8470 O.2   154  ILE154     -0.2864
    119  CB       188.9320  176.4990  117.9540 C.3   154  ILE154      0.0276
    120  CG1      189.4100  175.9870  119.3000 C.3   154  ILE154      0.0022
    121  CG2      188.0920  175.4220  117.2740 C.3   154  ILE154      0.0022
    122  CD1      188.2550  175.7370  120.2410 C.3   154  ILE154      0.0001
    123  N        178.3980  177.2970  108.7510 N.3   270  ARG270     -0.1245
    124  CA       177.5750  176.5980  109.7320 C.3   270  ARG270      0.1563
    125  C        176.8230  177.5950  110.6030 C.2   270  ARG270      0.2260
    126  O        177.3230  178.6750  110.9310 O.2   270  ARG270     -0.2867
    127  CB       178.4120  175.6860  110.6320 C.3   270  ARG270      0.0307
    128  CG       179.1330  174.5360  109.9340 C.3   270  ARG270      0.0489
    129  CD       180.0180  173.7400  110.9310 C.3   270  ARG270      0.2205
    130  NE       181.0170  174.5750  111.5720 N.pl3 270  ARG270     -0.0865
    131  CZ       180.9340  175.0410  112.8190 C.cat 270  ARG270      0.5346
    132  NH1      179.8940  174.7730  113.6020 N.pl3 270  ARG270      0.1354
    133  NH2      181.9040  175.8050  113.2780 N.pl3 270  ARG270      0.1354
    134  N        173.9590  172.7970  112.5870 N.3   307  SER307     -0.1202
    135  CA       175.1380  172.3880  113.3360 C.3   307  SER307      0.2020
    136  C        174.7800  172.3490  114.8160 C.2   307  SER307      0.2618
    137  O        174.2460  173.3290  115.3460 O.2   307  SER307     -0.2717
    138  CB       176.3080  173.3510  113.0590 C.3   307  SER307      0.2103
    139  OG       177.4680  173.0260  113.8010 O.3   307  SER307     -0.2182
    140  N        175.0240  171.1940  115.4530 N.am  308  ARG308     -0.1979
    141  CA       174.8430  171.0080  116.8940 C.3   308  ARG308      0.1597
    142  C        173.4820  171.4870  117.3840 C.2   308  ARG308      0.2287
    143  O        173.3730  172.1290  118.4290 O.2   308  ARG308     -0.2864
    144  CB       175.9550  171.7080  117.6640 C.3   308  ARG308      0.0334
    145  CG       177.2980  171.1730  117.3030 C.3   308  ARG308      0.0492
    146  CD       178.3620  172.2530  117.4540 C.3   308  ARG308      0.2205
    147  NE       179.5730  171.9020  116.7580 N.pl3 308  ARG308     -0.0865
    148  CZ       180.6170  172.7190  116.6300 C.cat 308  ARG308      0.5346
    149  NH1      180.6060  173.9160  117.1490 N.pl3 308  ARG308      0.1354
    150  NH2      181.6820  172.3230  115.9790 N.pl3 308  ARG308      0.1354
@<TRIPOS>BOND
     1    46    45    2
     2    45    44    1
     3    48    47    1
     4    44    47    1
     5    44    43    1
     6    47    49    1
     7    30    29    2
     8    34    33    2
     9    32    33    1
    10    32    31    1
    11    43    37   am
    12    33    35   am
    13    29    31   am
    14    29    28    1
    15    21    20    1
    16    21    22    1
    17    21    24    1
    18    20    26    1
    19    38    37    2
    20    27    22   am
    21    27    28    1
    22    37    36    1
    23   123   124    1
    24    22    23    2
    25    24    25    1
    26    35    36    1
    27    26    25    1
    28    36    39    1
    29   124   125    1
    30   124   127    1
    31   128   127    1
    32   128   129    1
    33   125   126    2
    34   129   130    1
    35    39    40    1
    36    42    40    1
    37   130   131    2
    38   113   111   ar
    39   113   114   ar
    40    40    41    1
    41    12    11    2
    42    11    10    1
    43   111   110   ar
    44    13    14    1
    45    13    10    1
    46    15    16    1
    47    15    14    1
    48    18    17    1
    49   114   112   ar
    50   134   135    1
    51    16    17    2
    52    17    19    1
    53   131   133    1
    54   131   132    1
    55    10     9    1
    56   138   135    1
    57   138   139    1
    58   135   136    1
    59   110   112   ar
    60   110   109    1
    61   109   106    1
    62     9     3   am
    63   108   107    2
    64   136   137    2
    65   136   140   am
    66   106   107    1
    67   106   105    1
    68   107   115   am
    69     3     4    2
    70     3     2    1
    71   140   141    1
    72   150   148    1
    73    82    81   ar
    74    75    73   ar
    75    75    74   ar
    76     1     2    1
    77    61    60    1
    78    73    71   ar
    79   148   147    2
    80   148   149    1
    81   115   116    1
    82     2     5    1
    83    81    80    1
    84    81    83   ar
    85   147   146    1
    86   141   142    1
    87   141   144    1
    88    80    77    1
    89    74    72   ar
    90   116   117    1
    91   116   119    1
    92   121   119    1
    93   145   146    1
    94   145   144    1
    95     8     6   am
    96   142   143    2
    97    76    77    1
    98     5     6    1
    99    60    58   ar
   100    60    59   ar
   101   117   118    2
   102   104   102   am
   103    77    78    1
   104     6     7    2
   105    71    70   ar
   106    71    69   ar
   107   119   120    1
   108    58    56   ar
   109    72    69   ar
   110    59    57   ar
   111    95    94    1
   112    92    90   ar
   113    92    94   ar
   114   103   102    2
   115    70    68   ar
   116   102   101    1
   117    69    67   ar
   118    90    89   ar
   119    94    93   ar
   120   120   122    1
   121    78    84   am
   122    78    79    2
   123    56    55   ar
   124    57    55   ar
   125    84    85    1
   126    68    67   ar
   127   101   100    1
   128    67    66    1
   129    55    54    1
   130    89    91   ar
   131    89    88    1
   132    93    91   ar
   133   100    97    1
   134    85    88    1
   135    85    86    1
   136    96    97    1
   137    96    86   am
   138    66    63    1
   139    54    51    1
   140    97    98    1
   141    86    87    2
   142    65    64    2
   143    63    64    1
   144    63    62    1
   145    98    99    2
   146    51    52    1
   147    51    50    1
   148    53    52    2
