@<TRIPOS>MOLECULE
tmp/5l3qD02.pdb
 157 146 0 0 0
SMALL
GASTEIGER

@<TRIPOS>ATOM
      1  N        102.1090   92.4450   46.0090 N.3    96  ASN96      -0.1225
      2  CA       103.5360   92.2100   46.2770 C.3    96  ASN96       0.1785
      3  C        103.9680   92.1310   47.7340 C.2    96  ASN96       0.2598
      4  O        103.6370   93.0080   48.5370 O.2    96  ASN96      -0.2718
      5  CB       104.3780   93.2870   45.6030 C.3    96  ASN96       0.1169
      6  CG       104.1570   93.3510   44.1250 C.2    96  ASN96       0.2627
      7  OD1      103.2550   94.0450   43.6480 O.2    96  ASN96      -0.2716
      8  ND2      104.9930   92.6440   43.3780 N.am   96  ASN96      -0.0877
      9  N        104.7410   91.1000   48.0640 N.am   97  GLY97      -0.1942
     10  CA       105.3470   91.0320   49.3790 C.3    97  GLY97       0.2014
     11  C        104.3780   90.7800   50.5210 C.2    97  GLY97       0.2639
     12  O        104.6950   91.0690   51.6780 O.2    97  GLY97      -0.2714
     13  N        103.1870   90.2700   50.2040 N.am   98  VAL98      -0.1963
     14  CA       102.1980   89.9620   51.2310 C.3    98  VAL98       0.1727
     15  C        102.5510   88.6780   51.9670 C.2    98  VAL98       0.2617
     16  O        102.1390   88.4820   53.0990 O.2    98  VAL98      -0.2715
     17  CB       100.7780   89.8200   50.6620 C.3    98  VAL98       0.0290
     18  CG1      100.2810   91.1350   50.1860 C.3    98  VAL98       0.0023
     19  CG2      100.7550   88.8250   49.5380 C.3    98  VAL98       0.0023
     20  N        103.3180   87.8050   51.3310 N.am   99  GLY99      -0.1940
     21  CA       103.6990   86.5640   51.9670 C.3    99  GLY99       0.2014
     22  C        103.2730   85.3240   51.2080 C.2    99  GLY99       0.2639
     23  O        103.1940   84.2410   51.7890 O.2    99  GLY99      -0.2714
     24  N        103.0250   85.4770   49.9080 N.am  100  LYS100     -0.1963
     25  CA       102.6620   84.3540   49.0510 C.3   100  LYS100      0.1728
     26  C        103.6680   83.2150   49.1780 C.2   100  LYS100      0.2617
     27  O        103.3220   82.1460   49.6510 O.2   100  LYS100     -0.2715
     28  CB       102.5540   84.7930   47.5910 C.3   100  LYS100      0.0311
     29  CG       101.4040   85.7400   47.3090 C.3   100  LYS100      0.0038
     30  CD       101.3470   86.1680   45.8460 C.3   100  LYS100      0.0206
     31  CE       102.5840   86.9370   45.4390 C.3   100  LYS100      0.1093
     32  NZ       102.7610   88.1080   46.3170 N.3   100  LYS100     -0.1314
     33  N        104.9130   83.4550   48.7690 N.am  101  SER101     -0.1936
     34  CA       105.9530   82.4200   48.7720 C.3   101  SER101      0.2055
     35  C        106.2100   81.7500   50.1200 C.2   101  SER101      0.2644
     36  O        106.2180   80.5150   50.2100 O.2   101  SER101     -0.2714
     37  CB       107.2620   82.9630   48.2010 C.3   101  SER101      0.2130
     38  OG       107.1460   83.1970   46.8100 O.3   101  SER101     -0.2179
     39  N        106.3990   82.5540   51.1630 N.am  102  THR102     -0.1936
     40  CA       106.7040   82.0130   52.4940 C.3   102  THR102      0.2028
     41  C        105.5530   81.2060   53.1010 C.2   102  THR102      0.2642
     42  O        105.7700   80.2140   53.7990 O.2   102  THR102     -0.2714
     43  CB       107.0900   83.1110   53.4850 C.3   102  THR102      0.1808
     44  OG1      108.2600   83.7840   53.0150 O.3   102  THR102     -0.2208
     45  CG2      107.3700   82.5130   54.8320 C.3   102  THR102      0.0379
     46  N        104.3220   81.6190   52.8310 N.am  103  ASN103     -0.1971
     47  CA       103.1860   80.8980   53.3760 C.3   103  ASN103      0.1688
     48  C        102.8390   79.6600   52.5670 C.2   103  ASN103      0.2292
     49  O        102.2790   78.7100   53.0930 O.2   103  ASN103     -0.2864
     50  CB       102.0060   81.8360   53.5910 C.3   103  ASN103      0.1181
     51  CG       102.2300   82.7410   54.7830 C.2   103  ASN103      0.2629
     52  OD1      101.9140   82.3740   55.9090 O.2   103  ASN103     -0.2716
     53  ND2      102.8310   83.9110   54.5490 N.am  103  ASN103     -0.0877
     54  N        104.9060   77.1720   54.3680 N.3   106  LYS106     -0.1245
     55  CA       104.2950   76.7720   55.6350 C.3   106  LYS106      0.1561
     56  C        103.1960   75.7540   55.4190 C.2   106  LYS106      0.2260
     57  O        103.0340   74.8160   56.1910 O.2   106  LYS106     -0.2867
     58  CB       103.6720   77.9630   56.3400 C.3   106  LYS106      0.0271
     59  CG       104.5880   79.1090   56.6940 C.3   106  LYS106      0.0035
     60  CD       103.7260   80.2040   57.3200 C.3   106  LYS106      0.0206
     61  CE       104.4930   81.4550   57.6590 C.3   106  LYS106      0.1093
     62  NZ       103.5820   82.4830   58.2240 N.3   106  LYS106     -0.1314
     63  N        106.3680   82.1800   39.8000 N.3   124  ASP124     -0.1239
     64  CA       106.8930   83.5340   39.7570 C.3   124  ASP124      0.1674
     65  C        108.1650   83.3660   38.9590 C.2   124  ASP124      0.2266
     66  O        109.1340   82.8150   39.4800 O.2   124  ASP124     -0.2867
     67  CB       107.2250   84.0500   41.1600 C.3   124  ASP124      0.1410
     68  CG       107.8650   85.4460   41.1520 C.2   124  ASP124      0.3668
     69  OD1      108.3530   85.9080   40.0990 O.co2 124  ASP124     -0.2456
     70  OD2      107.8720   86.1010   42.2140 O.co2 124  ASP124     -0.2456
     71  N        110.4000   87.9720   39.5540 N.3   127  ARG127     -0.1245
     72  CA       111.1690   88.6470   40.5840 C.3   127  ARG127      0.1563
     73  C        112.5100   87.9800   40.8910 C.2   127  ARG127      0.2260
     74  O        112.5980   86.7630   40.9840 O.2   127  ARG127     -0.2867
     75  CB       110.3690   88.7590   41.8630 C.3   127  ARG127      0.0307
     76  CG       110.8520   89.8920   42.6900 C.3   127  ARG127      0.0489
     77  CD       110.6460   89.6040   44.1050 C.3   127  ARG127      0.2205
     78  NE       111.4940   88.5280   44.5490 N.pl3 127  ARG127     -0.0865
     79  CZ       111.0210   87.5170   45.2520 C.cat 127  ARG127      0.5346
     80  NH1      109.7220   87.4820   45.5230 N.pl3 127  ARG127      0.1354
     81  NH2      111.8190   86.5410   45.6640 N.pl3 127  ARG127      0.1354
     82  N        114.5320   81.2570   46.1340 N.3   133  GLN133     -0.1245
     83  CA       113.7550   81.2940   47.3500 C.3   133  GLN133      0.1566
     84  C        113.0380   79.9650   47.5620 C.2   133  GLN133      0.2260
     85  O        113.1520   79.3470   48.6200 O.2   133  GLN133     -0.2867
     86  CB       112.7500   82.4220   47.2720 C.3   133  GLN133      0.0367
     87  CG       112.1000   82.7030   48.5860 C.3   133  GLN133      0.0905
     88  CD       111.1230   83.8190   48.4820 C.2   133  GLN133      0.2608
     89  OE1      110.8400   84.3140   47.3840 O.2   133  GLN133     -0.2717
     90  NE2      110.5960   84.2390   49.6200 N.am  133  GLN133     -0.0878
     91  N        102.9460   78.7490   43.1480 N.3   189  ASP189     -0.1225
     92  CA       103.2880   80.0950   43.5840 C.3   189  ASP189      0.1805
     93  C        103.1950   81.0120   42.3810 C.2   189  ASP189      0.2598
     94  O        103.6810   80.6520   41.3240 O.2   189  ASP189     -0.2718
     95  CB       104.7250   80.0880   44.1040 C.3   189  ASP189      0.1424
     96  CG       105.0820   81.3420   44.8760 C.2   189  ASP189      0.3668
     97  OD1      104.4290   82.3820   44.6750 O.co2 189  ASP189     -0.2456
     98  OD2      105.9990   81.2850   45.7210 O.co2 189  ASP189     -0.2456
     99  N        102.5890   82.1880   42.5290 N.am  190  THR190     -0.1953
    100  CA       102.5930   83.1810   41.4470 C.3   190  THR190      0.1897
    101  C        103.2530   84.4890   41.8830 C.2   190  THR190      0.2313
    102  O        103.3260   84.7790   43.0790 O.2   190  THR190     -0.2863
    103  CB       101.1810   83.5200   40.9490 C.3   190  THR190      0.1794
    104  OG1      100.4590   84.2340   41.9650 O.3   190  THR190     -0.2208
    105  CG2      100.4340   82.2540   40.5360 C.3   190  THR190      0.0378
    106  N        103.9400   88.5170   42.5180 N.3   192  GLY192     -0.1225
    107  CA       103.1270   89.6160   43.0020 C.3   192  GLY192      0.1811
    108  C        102.7670   90.5840   41.8900 C.2   192  GLY192      0.2280
    109  O        103.5930   90.9090   41.0470 O.2   192  GLY192     -0.2866
    110  N         98.1030   87.0350   56.4020 N.3   257  THR257     -0.1203
    111  CA        99.4420   86.9060   56.9310 C.3   257  THR257      0.1994
    112  C         99.8340   88.1020   57.7830 C.2   257  THR257      0.2617
    113  O         99.1860   89.1520   57.7470 O.2   257  THR257     -0.2717
    114  CB       100.4820   86.7780   55.7890 C.3   257  THR257      0.1784
    115  OG1      100.5870   88.0210   55.0880 O.3   257  THR257     -0.2211
    116  CG2      100.0760   85.7060   54.8110 C.3   257  THR257      0.0376
    117  N        100.9420   87.9390   58.5020 N.am  258  LYS258     -0.1979
    118  CA       101.5460   89.0040   59.2930 C.3   258  LYS258      0.1596
    119  C        100.6270   89.4750   60.3970 C.2   258  LYS258      0.2287
    120  O        100.6080   90.6450   60.7610 O.2   258  LYS258     -0.2864
    121  CB       101.9770   90.1630   58.4020 C.3   258  LYS258      0.0298
    122  CG       102.9430   89.7350   57.3110 C.3   258  LYS258      0.0038
    123  CD       103.3890   90.9260   56.5250 C.3   258  LYS258      0.0206
    124  CE       104.0280   90.5160   55.2450 C.3   258  LYS258      0.1093
    125  NZ       104.4720   91.7640   54.5970 N.3   258  LYS258     -0.1314
    126  N        100.9900   88.6210   63.2950 N.3   260  ASP260     -0.1225
    127  CA       101.8220   88.7960   64.4720 C.3   260  ASP260      0.1805
    128  C        102.3020   90.2300   64.6140 C.2   260  ASP260      0.2598
    129  O        102.8700   90.6020   65.6420 O.2   260  ASP260     -0.2718
    130  CB       103.0160   87.8370   64.4520 C.3   260  ASP260      0.1424
    131  CG       103.8200   87.9120   63.1650 C.2   260  ASP260      0.3668
    132  OD1      103.2080   88.0990   62.0980 O.co2 260  ASP260     -0.2456
    133  OD2      105.0570   87.7380   63.2230 O.co2 260  ASP260     -0.2456
    134  N        102.0490   91.0310   63.5840 N.am  261  THR261     -0.1953
    135  CA       102.5410   92.4060   63.5370 C.3   261  THR261      0.1897
    136  C        101.4950   93.4870   63.8210 C.2   261  THR261      0.2313
    137  O        101.8510   94.6530   63.9180 O.2   261  THR261     -0.2863
    138  CB       103.2230   92.7330   62.1840 C.3   261  THR261      0.1794
    139  OG1      102.2550   92.7220   61.1350 O.3   261  THR261     -0.2208
    140  CG2      104.3140   91.7290   61.8620 C.3   261  THR261      0.0378
    141  N         98.6790   83.6370   59.1480 N.3   284  GLY284     -0.1225
    142  CA       100.1210   83.5520   59.2710 C.3   284  GLY284      0.1811
    143  C        100.5790   84.4060   60.4260 C.2   284  GLY284      0.2280
    144  O        100.2420   85.5920   60.4790 O.2   284  GLY284     -0.2866
    145  N        104.0570   84.6120   61.6840 N.3   286  GLY286     -0.1210
    146  CA       105.4940   84.6580   61.8240 C.3   286  GLY286      0.1956
    147  C        106.1820   84.1600   60.5780 C.2   286  GLY286      0.2611
    148  O        105.5500   84.0590   59.5270 O.2   286  GLY286     -0.2717
    149  N        107.4670   83.8410   60.6890 N.am  287  GLN287     -0.1979
    150  CA       108.2560   83.5490   59.5040 C.3   287  GLN287      0.1601
    151  C        108.7320   82.0880   59.3780 C.2   287  GLN287      0.2287
    152  O        109.4500   81.7440   58.4330 O.2   287  GLN287     -0.2864
    153  CB       109.4170   84.5380   59.4270 C.3   287  GLN287      0.0394
    154  CG       108.9440   85.9870   59.2780 C.3   287  GLN287      0.0908
    155  CD       110.0710   86.9990   59.3060 C.2   287  GLN287      0.2608
    156  OE1      110.5850   87.4010   58.2630 O.2   287  GLN287     -0.2717
    157  NE2      110.4570   87.4240   60.5020 N.am  287  GLN287     -0.0878
@<TRIPOS>BOND
     1    65    66    2
     2    65    64    1
     3    71    72    1
     4    64    63    1
     5    64    67    1
     6    69    68   ar
     7   105   103    1
     8    72    73    1
     9    72    75    1
    10    73    74    2
    11   103   100    1
    12   103   104    1
    13   109   108    2
    14    68    67    1
    15    68    70   ar
    16    94    93    2
    17   100   101    1
    18   100    99    1
    19    75    76    1
    20   101   102    2
    21   108   107    1
    22    93    99   am
    23    93    92    1
    24   106   107    1
    25    76    77    1
    26    91    92    1
    27     8     6   am
    28    92    95    1
    29     7     6    2
    30    95    96    1
    31    77    78    1
    32     6     5    1
    33    78    79    2
    34    97    96   ar
    35    96    98   ar
    36    79    80    1
    37    79    81    1
    38    31    30    1
    39    31    32    1
    40     5     2    1
    41    30    29    1
    42     1     2    1
    43    82    83    1
    44     2     3    1
    45    38    37    1
    46    86    83    1
    47    86    87    1
    48    29    28    1
    49    83    84    1
    50    89    88    2
    51    84    85    2
    52    28    25    1
    53     3     9   am
    54     3     4    2
    55     9    10    1
    56    37    34    1
    57    88    87    1
    58    88    90   am
    59    33    34    1
    60    33    26   am
    61    34    35    1
    62    25    26    1
    63    25    24    1
    64    26    27    2
    65    10    11    1
    66    19    17    1
    67    24    22   am
    68    35    36    2
    69    35    39   am
    70    18    17    1
    71    13    11   am
    72    13    14    1
    73    11    12    2
    74    17    14    1
    75    39    40    1
    76    22    23    2
    77    22    21    1
    78    14    15    1
    79    20    15   am
    80    20    21    1
    81    15    16    2
    82    40    41    1
    83    40    43    1
    84    48    49    2
    85    48    47    1
    86    46    41   am
    87    46    47    1
    88    44    43    1
    89    41    42    2
    90    47    50    1
    91    43    45    1
    92    50    51    1
    93    54    55    1
    94    53    51   am
    95   125   124    1
    96    51    52    2
    97   116   114    1
    98   115   114    1
    99   124   123    1
   100    56    55    1
   101    56    57    2
   102    55    58    1
   103   114   111    1
   104    58    59    1
   105   110   111    1
   106   123   122    1
   107    59    60    1
   108   111   112    1
   109   122   121    1
   110    60    61    1
   111    61    62    1
   112   113   112    2
   113   112   117   am
   114   156   155    2
   115   121   118    1
   116   152   151    2
   117   117   118    1
   118   141   142    1
   119   142   143    1
   120   154   155    1
   121   154   153    1
   122   118   119    1
   123   155   157   am
   124   151   150    1
   125   153   150    1
   126   150   149    1
   127   148   147    2
   128   119   120    2
   129   143   144    2
   130   147   149   am
   131   147   146    1
   132   139   138    1
   133   145   146    1
   134   140   138    1
   135   132   131   ar
   136   138   135    1
   137   131   133   ar
   138   131   130    1
   139   126   127    1
   140   135   134    1
   141   135   136    1
   142   134   128   am
   143   136   137    2
   144   130   127    1
   145   127   128    1
   146   128   129    2
