@<TRIPOS>MOLECULE
tmp/5l3qC00.pdb
 142 131 0 0 0
SMALL
GASTEIGER

@<TRIPOS>ATOM
      1  N        108.5890   93.6270   57.0940 N.3    79  GLN79      -0.1231
      2  CA       108.6510   92.5470   56.1200 C.3    79  GLN79       0.1698
      3  C        107.8940   92.8980   54.8480 C.2    79  GLN79       0.2593
      4  O        106.7520   93.3520   54.8980 O.2    79  GLN79      -0.2718
      5  CB       108.0510   91.2710   56.7070 C.3    79  GLN79       0.0381
      6  CG       108.8660   90.6120   57.8050 C.3    79  GLN79       0.0905
      7  CD       108.5840   91.1820   59.1710 C.2    79  GLN79       0.2608
      8  OE1      108.2740   92.3550   59.2950 O.2    79  GLN79      -0.2717
      9  NE2      108.6690   90.3510   60.2040 N.am   79  GLN79      -0.0878
     10  N        108.5430   92.7030   53.7110 N.am   80  GLY80      -0.1942
     11  CA       107.8870   92.8390   52.4260 C.3    80  GLY80       0.2014
     12  C        107.5650   94.2630   52.0070 C.2    80  GLY80       0.2640
     13  O        106.9040   94.4810   50.9870 O.2    80  GLY80      -0.2714
     14  N        108.0510   95.2440   52.7590 N.am   81  SER81      -0.1935
     15  CA       107.7360   96.6260   52.4380 C.3    81  SER81       0.2055
     16  C        108.4500   97.0820   51.1770 C.2    81  SER81       0.2644
     17  O        108.0370   98.0410   50.5500 O.2    81  SER81      -0.2714
     18  CB       108.0660   97.5490   53.6040 C.3    81  SER81       0.2130
     19  OG       109.3950   97.3730   54.0260 O.3    81  SER81      -0.2179
     20  N        109.5290   96.4030   50.8090 N.am   82  GLY82      -0.1939
     21  CA       110.1940   96.6870   49.5490 C.3    82  GLY82       0.2014
     22  C        111.6060   97.2210   49.6810 C.2    82  GLY82       0.2639
     23  O        112.0820   97.9220   48.7970 O.2    82  GLY82      -0.2714
     24  N        112.2670   96.9030   50.7900 N.am   83  LYS83      -0.1963
     25  CA       113.6270   97.3640   51.0530 C.3    83  LYS83       0.1728
     26  C        114.5950   96.9490   49.9410 C.2    83  LYS83       0.2617
     27  O        115.1390   97.8000   49.2310 O.2    83  LYS83      -0.2715
     28  CB       114.0960   96.8530   52.4170 C.3    83  LYS83       0.0311
     29  CG       113.2020   97.3150   53.5440 C.3    83  LYS83       0.0038
     30  CD       113.5280   96.6480   54.8560 C.3    83  LYS83       0.0206
     31  CE       113.3630   95.1440   54.7810 C.3    83  LYS83       0.1093
     32  NZ       112.0030   94.7150   54.3890 N.3    83  LYS83      -0.1314
     33  N        114.7930   95.6420   49.7960 N.am   84  THR84      -0.1937
     34  CA       115.7010   95.0710   48.8030 C.3    84  THR84       0.2028
     35  C        115.5230   95.6220   47.3870 C.2    84  THR84       0.2643
     36  O        116.5050   95.9670   46.7330 O.2    84  THR84      -0.2714
     37  CB       115.6020   93.5350   48.7890 C.3    84  THR84       0.1808
     38  OG1      115.9410   93.0390   50.0850 O.3    84  THR84      -0.2208
     39  CG2      116.5610   92.9350   47.7910 C.3    84  THR84       0.0379
     40  N        114.2900   95.7060   46.9060 N.am   85  THR85      -0.1936
     41  CA       114.0590   96.2170   45.5600 C.3    85  THR85       0.2028
     42  C        114.4570   97.6880   45.5060 C.2    85  THR85       0.2642
     43  O        115.0670   98.1510   44.5400 O.2    85  THR85      -0.2714
     44  CB       112.5850   96.0870   45.1300 C.3    85  THR85       0.1808
     45  OG1      112.1500   94.7260   45.2650 O.3    85  THR85      -0.2208
     46  CG2      112.4140   96.5490   43.6870 C.3    85  THR85       0.0379
     47  N        114.1030   98.4180   46.5580 N.am   86  THR86      -0.1950
     48  CA       114.3960   99.8370   46.6550 C.3    86  THR86       0.1897
     49  C        115.8940  100.1070   46.8260 C.2    86  THR86       0.2313
     50  O        116.3970  101.1300   46.3730 O.2    86  THR86      -0.2863
     51  CB       113.5830  100.4870   47.7790 C.3    86  THR86       0.1794
     52  OG1      112.1980  100.2360   47.5490 O.3    86  THR86      -0.2208
     53  CG2      113.7860  101.9710   47.8020 C.3    86  THR86       0.0378
     54  N        117.1800  100.1960   43.4270 N.3    89  LYS89      -0.1245
     55  CA       116.5920  101.3860   42.8160 C.3    89  LYS89       0.1561
     56  C        117.3730  102.6620   43.1410 C.2    89  LYS89       0.2260
     57  O        117.5670  103.5180   42.2700 O.2    89  LYS89      -0.2867
     58  CB       115.1440  101.5520   43.2570 C.3    89  LYS89       0.0271
     59  CG       114.1380  100.8030   42.4330 C.3    89  LYS89       0.0035
     60  CD       112.7740  101.1410   42.9570 C.3    89  LYS89       0.0206
     61  CE       111.7090  100.2920   42.3230 C.3    89  LYS89       0.1093
     62  NZ       110.3720  100.5730   42.9060 N.3    89  LYS89      -0.1314
     63  N        120.9580   90.6740   54.9780 N.3   107  ASP107     -0.1239
     64  CA       119.8120   89.8650   55.3380 C.3   107  ASP107      0.1674
     65  C        120.3160   88.4340   55.4350 C.2   107  ASP107      0.2266
     66  O        120.7160   87.8410   54.4310 O.2   107  ASP107     -0.2867
     67  CB       118.7430   89.9780   54.2520 C.3   107  ASP107      0.1410
     68  CG       117.4240   89.3510   54.6570 C.2   107  ASP107      0.3668
     69  OD1      117.4360   88.4820   55.5480 O.co2 107  ASP107     -0.2456
     70  OD2      116.3720   89.7200   54.0890 O.co2 107  ASP107     -0.2456
     71  N        116.0070   85.7010   55.2550 N.3   110  ARG110     -0.1245
     72  CA       115.0300   85.4190   54.1990 C.3   110  ARG110      0.1563
     73  C        115.5550   84.4390   53.1580 C.2   110  ARG110      0.2260
     74  O        116.5980   84.6730   52.5850 O.2   110  ARG110     -0.2867
     75  CB       114.6030   86.7220   53.5100 C.3   110  ARG110      0.0307
     76  CG       113.5930   86.5370   52.3970 C.3   110  ARG110      0.0489
     77  CD       113.5760   87.7430   51.4910 C.3   110  ARG110      0.2205
     78  NE       112.9750   87.4500   50.1930 N.pl3 110  ARG110     -0.0865
     79  CZ       111.8100   87.9420   49.7800 C.cat 110  ARG110      0.5346
     80  NH1      111.1260   88.7840   50.5520 N.pl3 110  ARG110      0.1354
     81  NH2      111.3410   87.6150   48.5830 N.pl3 110  ARG110      0.1354
     82  N        118.5290   87.3050   45.6320 N.3   116  GLN116     -0.1245
     83  CA       117.6860   88.3620   45.1100 C.3   116  GLN116      0.1566
     84  C        118.5090   89.6040   44.8010 C.2   116  GLN116      0.2260
     85  O        118.4180   90.1500   43.7040 O.2   116  GLN116     -0.2867
     86  CB       116.5660   88.7080   46.0840 C.3   116  GLN116      0.0367
     87  CG       115.6950   89.8310   45.5990 C.3   116  GLN116      0.0905
     88  CD       114.6470   90.2290   46.6070 C.2   116  GLN116      0.2608
     89  OE1      114.5330   89.6170   47.6630 O.2   116  GLN116     -0.2717
     90  NE2      113.8720   91.2600   46.2880 N.am  116  GLN116     -0.0878
     91  N        118.8420   95.2670   54.8170 N.3   160  THR160     -0.1218
     92  CA       118.6610   94.4370   56.0150 C.3   160  THR160      0.1862
     93  C        117.3570   93.6210   55.9280 C.2   160  THR160      0.2287
     94  O        116.5300   93.8570   55.0370 O.2   160  THR160     -0.2866
     95  CB       118.6540   95.2970   57.3040 C.3   160  THR160      0.1770
     96  OG1      117.4360   96.0570   57.3740 O.3   160  THR160     -0.2211
     97  CG2      119.8700   96.2360   57.3470 C.3   160  THR160      0.0375
     98  N        113.5640   92.2060   56.8020 N.3   162  GLY162     -0.1225
     99  CA       112.3250   92.7470   57.3250 C.3   162  GLY162      0.1811
    100  C        112.2040   92.3980   58.7980 C.2   162  GLY162      0.2280
    101  O        112.6190   91.3200   59.2270 O.2   162  GLY162     -0.2866
    102  N        106.9090  103.0010   48.9620 N.3   217  THR217     -0.1203
    103  CA       106.9550  102.1630   47.7750 C.3   217  THR217      0.1994
    104  C        105.5590  101.7440   47.3700 C.2   217  THR217      0.2617
    105  O        104.6320  101.8590   48.1490 O.2   217  THR217     -0.2717
    106  CB       107.7830  100.8880   47.9980 C.3   217  THR217      0.1784
    107  OG1      107.0690  100.0130   48.8750 O.3   217  THR217     -0.2211
    108  CG2      109.1500  101.2180   48.5810 C.3   217  THR217      0.0376
    109  N        105.4410  101.2180   46.1580 N.am  218  LYS218     -0.1979
    110  CA       104.1970  100.6870   45.6330 C.3   218  LYS218      0.1596
    111  C        103.1270  101.7610   45.5270 C.2   218  LYS218      0.2287
    112  O        101.9450  101.4950   45.7680 O.2   218  LYS218     -0.2864
    113  CB       103.7110   99.5070   46.4710 C.3   218  LYS218      0.0298
    114  CG       104.7710   98.4480   46.7130 C.3   218  LYS218      0.0038
    115  CD       104.2440   97.3390   47.6080 C.3   218  LYS218      0.0206
    116  CE       105.3430   96.5690   48.3240 C.3   218  LYS218      0.1093
    117  NZ       104.7410   95.6220   49.3120 N.3   218  LYS218     -0.1314
    118  N        102.3880  102.9970   42.7380 N.3   220  ASP220     -0.1239
    119  CA       101.9320  102.9020   41.3560 C.3   220  ASP220      0.1674
    120  C        100.5360  102.3210   41.2260 C.2   220  ASP220      0.2266
    121  O         99.9900  102.2720   40.1320 O.2   220  ASP220     -0.2867
    122  CB       102.9180  102.1190   40.4950 C.3   220  ASP220      0.1410
    123  CG       103.3100  100.8050   41.1120 C.2   220  ASP220      0.3668
    124  OD1      104.0920  100.8380   42.0820 O.co2 220  ASP220     -0.2456
    125  OD2      102.8540   99.7450   40.6290 O.co2 220  ASP220     -0.2456
    126  N        108.5080  104.8050   45.2830 N.3   243  GLY243     -0.1225
    127  CA       108.6870  103.7220   44.3340 C.3   243  GLY243      0.1811
    128  C        107.4570  103.5910   43.4680 C.2   243  GLY243      0.2280
    129  O        106.3620  103.6240   43.9850 O.2   243  GLY243     -0.2866
    130  N        106.7880  101.0210   40.8280 N.3   245  GLY245     -0.1210
    131  CA       106.7740   99.8100   40.0190 C.3   245  GLY245      0.1956
    132  C        107.8450   98.8000   40.3860 C.2   245  GLY245      0.2611
    133  O        108.5960   98.9910   41.3400 O.2   245  GLY245     -0.2717
    134  N        107.9270   97.7170   39.6260 N.am  246  GLU246     -0.1979
    135  CA       108.8060   96.6250   40.0270 C.3   246  GLU246      0.1602
    136  C        110.2300   96.7620   39.4970 C.2   246  GLU246      0.2287
    137  O        111.1600   96.1400   40.0170 O.2   246  GLU246     -0.2864
    138  CB       108.2140   95.2640   39.6280 C.3   246  GLU246      0.0415
    139  CG       106.8520   94.9440   40.2570 C.3   246  GLU246      0.1163
    140  CD       106.7300   93.4970   40.6690 C.2   246  GLU246      0.3649
    141  OE1      107.5960   93.0220   41.4270 O.co2 246  GLU246     -0.2457
    142  OE2      105.7850   92.8240   40.2200 O.co2 246  GLU246     -0.2457
@<TRIPOS>BOND
     1   136   137    2
     2   136   135    1
     3   134   135    1
     4   134   132   am
     5   138   135    1
     6   138   139    1
     7   131   132    1
     8   131   130    1
     9   121   120    2
    10   142   140   ar
    11   139   140    1
    12   132   133    2
    13   122   123    1
    14   122   119    1
    15   125   123   ar
    16   140   141   ar
    17   123   124   ar
    18   120   119    1
    19   119   118    1
    20    57    56    2
    21    61    62    1
    22    61    60    1
    23    59    60    1
    24    59    58    1
    25    55    56    1
    26    55    58    1
    27    55    54    1
    28   128   129    2
    29   128   127    1
    30    46    44    1
    31    85    84    2
    32   127   126    1
    33    43    42    2
    34    84    83    1
    35    83    82    1
    36    83    86    1
    37    44    45    1
    38    44    41    1
    39    42    41    1
    40    42    47   am
    41   111   110    1
    42   111   112    2
    43    41    40    1
    44    87    86    1
    45    87    88    1
    46   110   109    1
    47   110   113    1
    48   109   104   am
    49    90    88   am
    50    50    49    2
    51   113   114    1
    52    47    48    1
    53    88    89    2
    54    48    49    1
    55    48    51    1
    56   114   115    1
    57    36    35    2
    58    40    35   am
    59   104   103    1
    60   104   105    2
    61    35    34    1
    62    52    51    1
    63   115   116    1
    64   103   106    1
    65   103   102    1
    66    51    53    1
    67    39    37    1
    68   106   108    1
    69   106   107    1
    70   116   117    1
    71    81    79    1
    72    37    34    1
    73    37    38    1
    74    23    22    2
    75    34    33    1
    76    27    26    2
    77    21    22    1
    78    21    20    1
    79    22    24   am
    80    79    78    2
    81    79    80    1
    82    33    26   am
    83    26    25    1
    84    78    77    1
    85    17    16    2
    86    24    25    1
    87    20    16   am
    88    13    12    2
    89    25    28    1
    90    16    15    1
    91    77    76    1
    92    12    11    1
    93    12    14   am
    94    76    75    1
    95    28    29    1
    96    11    10    1
    97    15    14    1
    98    15    18    1
    99    74    73    2
   100    73    72    1
   101    75    72    1
   102    29    30    1
   103    18    19    1
   104    10     3   am
   105    70    68   ar
   106    72    71    1
   107    67    68    1
   108    67    64    1
   109    32    31    1
   110    66    65    2
   111    68    69   ar
   112    31    30    1
   113    91    92    1
   114     3     4    2
   115     3     2    1
   116    63    64    1
   117    94    93    2
   118    64    65    1
   119    93    92    1
   120    92    95    1
   121     2     5    1
   122     2     1    1
   123     5     6    1
   124    98    99    1
   125    95    97    1
   126    95    96    1
   127    99   100    1
   128     6     7    1
   129   100   101    2
   130     7     8    2
   131     7     9   am
