@<TRIPOS>MOLECULE
tmp/5l3rB01.pdb
 138 127 0 0 0
SMALL
GASTEIGER

@<TRIPOS>ATOM
      1  N          6.0010   -4.9300   16.3980 N.3    97  ASN97      -0.1225
      2  CA         5.4250   -6.2520   16.6020 C.3    97  ASN97       0.1785
      3  C          4.0780   -6.1810   17.3030 C.2    97  ASN97       0.2598
      4  O          3.9540   -5.5440   18.3470 O.2    97  ASN97      -0.2718
      5  CB         6.3910   -7.0950   17.4380 C.3    97  ASN97       0.1169
      6  CG         7.7340   -7.2520   16.7680 C.2    97  ASN97       0.2627
      7  OD1        8.5320   -6.3210   16.7610 O.2    97  ASN97      -0.2716
      8  ND2        7.9750   -8.4220   16.1630 N.am   97  ASN97      -0.0877
      9  N          3.0800   -6.8810   16.7480 N.am   98  GLY98      -0.1942
     10  CA         1.8400   -7.1430   17.4420 C.3    98  GLY98       0.2014
     11  C          0.7330   -6.1370   17.1900 C.2    98  GLY98       0.2639
     12  O         -0.4050   -6.3880   17.6140 O.2    98  GLY98      -0.2714
     13  N          1.0300   -5.0200   16.4970 N.am   99  GLY99      -0.1939
     14  CA         0.0780   -3.9360   16.3070 C.3    99  GLY99       0.2014
     15  C         -1.0870   -4.2240   15.3860 C.2    99  GLY99       0.2639
     16  O         -2.1310   -3.5880   15.5250 O.2    99  GLY99      -0.2714
     17  N         -0.9390   -5.1540   14.4550 N.am  100  GLY100     -0.1939
     18  CA        -2.0380   -5.4910   13.5790 C.3   100  GLY100      0.2014
     19  C         -1.7790   -5.3400   12.0880 C.2   100  GLY100      0.2639
     20  O         -2.7090   -5.0840   11.3180 O.2   100  GLY100     -0.2714
     21  N         -0.5220   -5.5020   11.6710 N.am  101  LYS101     -0.1963
     22  CA        -0.1330   -5.2360   10.2830 C.3   101  LYS101      0.1728
     23  C         -0.8300   -6.1900    9.3090 C.2   101  LYS101      0.2617
     24  O         -1.4900   -5.7580    8.3490 O.2   101  LYS101     -0.2715
     25  CB         1.4040   -5.3490   10.1390 C.3   101  LYS101      0.0311
     26  CG         2.2050   -4.2980   10.9380 C.3   101  LYS101      0.0038
     27  CD         3.7270   -4.4380   10.8190 C.3   101  LYS101      0.0206
     28  CE         4.2540   -5.7690   11.4120 C.3   101  LYS101      0.1093
     29  NZ         3.8630   -5.9350   12.8430 N.3   101  LYS101     -0.1314
     30  N         -0.6720   -7.4990    9.5420 N.am  102  THR102     -0.1937
     31  CA        -1.1470   -8.5120    8.6020 C.3   102  THR102      0.2028
     32  C         -2.6690   -8.5360    8.5230 C.2   102  THR102      0.2643
     33  O         -3.2350   -8.7040    7.4470 O.2   102  THR102     -0.2714
     34  CB        -0.6030   -9.8660    9.0320 C.3   102  THR102      0.1808
     35  OG1        0.8300   -9.7980    9.0610 O.3   102  THR102     -0.2208
     36  CG2       -1.0430  -10.9650    8.0840 C.3   102  THR102      0.0379
     37  N         -3.3420   -8.3540    9.6600 N.am  103  THR103     -0.1936
     38  CA        -4.8000   -8.3000    9.6800 C.3   103  THR103      0.2028
     39  C         -5.3090   -7.0780    8.9460 C.2   103  THR103      0.2642
     40  O         -6.2840   -7.1580    8.1870 O.2   103  THR103     -0.2714
     41  CB        -5.2990   -8.2730   11.1240 C.3   103  THR103      0.1808
     42  OG1       -4.8080   -9.4340   11.7970 O.3   103  THR103     -0.2208
     43  CG2       -6.8350   -8.2460   11.1780 C.3   103  THR103      0.0379
     44  N         -4.6610   -5.9320    9.1630 N.am  104  SER104     -0.1949
     45  CA        -5.1040   -4.7080    8.5070 C.3   104  SER104      0.1924
     46  C         -4.9150   -4.8120    7.0040 C.2   104  SER104      0.2314
     47  O         -5.7680   -4.3550    6.2370 O.2   104  SER104     -0.2863
     48  CB        -4.3620   -3.4900    9.0660 C.3   104  SER104      0.2116
     49  OG        -4.6820   -3.2940   10.4400 O.3   104  SER104     -0.2180
     50  N         -7.7360   -6.7950    5.6050 N.3   107  LYS107     -0.1245
     51  CA        -8.9760   -6.0210    5.6080 C.3   107  LYS107      0.1561
     52  C         -8.9510   -4.9280    4.5390 C.2   107  LYS107      0.2260
     53  O         -9.9800   -4.6270    3.9150 O.2   107  LYS107     -0.2867
     54  CB        -9.2160   -5.4360    7.0050 C.3   107  LYS107      0.0271
     55  CG        -9.5070   -6.5230    8.0670 C.3   107  LYS107      0.0035
     56  CD        -9.9700   -5.9340    9.4000 C.3   107  LYS107      0.0206
     57  CE        -8.8490   -5.2540   10.1780 C.3   107  LYS107      0.1093
     58  NZ        -9.1620   -5.0980   11.6530 N.3   107  LYS107     -0.1314
     59  N          6.9830  -10.5930    5.3570 N.3   125  ASP125     -0.1239
     60  CA         7.4780  -11.1080    6.6420 C.3   125  ASP125      0.1674
     61  C          8.0330  -12.5010    6.3950 C.2   125  ASP125      0.2266
     62  O          7.2810  -13.4730    6.3030 O.2   125  ASP125     -0.2867
     63  CB         6.3880  -11.1540    7.7090 C.3   125  ASP125      0.1410
     64  CG         6.9180  -11.6290    9.1040 C.2   125  ASP125      0.3668
     65  OD1        8.0880  -12.0810    9.2530 O.co2 125  ASP125     -0.2456
     66  OD2        6.1460  -11.5300   10.0860 O.co2 125  ASP125     -0.2456
     67  N          8.9470  -14.3530   11.0340 N.3   128  ARG128     -0.1245
     68  CA         8.1800  -14.9190   12.1330 C.3   128  ARG128      0.1563
     69  C          7.4950  -16.2210   11.7360 C.2   128  ARG128      0.2260
     70  O          7.0800  -16.4100   10.5880 O.2   128  ARG128     -0.2867
     71  CB         7.1410  -13.9170   12.6270 C.3   128  ARG128      0.0307
     72  CG         6.7870  -14.1030   14.1000 C.3   128  ARG128      0.0489
     73  CD         5.3140  -13.8380   14.3260 C.3   128  ARG128      0.2205
     74  NE         4.5120  -14.7430   13.5230 N.pl3 128  ARG128     -0.0865
     75  CZ         3.3820  -14.4040   12.9200 C.cat 128  ARG128      0.5346
     76  NH1        2.9320  -13.1630   13.0340 N.pl3 128  ARG128      0.1354
     77  NH2        2.7190  -15.3020   12.1890 N.pl3 128  ARG128      0.1354
     78  N         -0.2550  -17.3470    7.4510 N.3   134  GLN134     -0.1245
     79  CA        -1.2780  -16.4230    7.9050 C.3   134  GLN134      0.1566
     80  C         -1.7030  -15.4740    6.7910 C.2   134  GLN134      0.2260
     81  O         -2.8970  -15.2130    6.6100 O.2   134  GLN134     -0.2867
     82  CB        -0.7620  -15.6530    9.1080 C.3   134  GLN134      0.0367
     83  CG        -1.7190  -14.6390    9.6820 C.3   134  GLN134      0.0905
     84  CD        -1.0600  -13.8970   10.8170 C.2   134  GLN134      0.2608
     85  OE1        0.1690  -13.9410   10.9560 O.2   134  GLN134     -0.2717
     86  NE2       -1.8540  -13.2080   11.6310 N.am  134  GLN134     -0.0878
     87  N          5.1710   -6.7790    6.0660 N.3   179  THR179     -0.1218
     88  CA         6.5480   -6.7840    6.5750 C.3   179  THR179      0.1862
     89  C          6.5440   -7.2370    8.0270 C.2   179  THR179      0.2287
     90  O          5.5890   -6.9870    8.7620 O.2   179  THR179     -0.2866
     91  CB         7.2590   -5.4040    6.5390 C.3   179  THR179      0.1770
     92  OG1        6.6100   -4.5100    7.4530 O.3   179  THR179     -0.2211
     93  CG2        7.2670   -4.7830    5.1340 C.3   179  THR179      0.0375
     94  N          7.2430   -7.5470   12.0130 N.3   181  GLY181     -0.1225
     95  CA         7.2700   -6.5410   13.0630 C.3   181  GLY181      0.1811
     96  C          8.6950   -6.1740   13.4410 C.2   181  GLY181      0.2280
     97  O          9.5950   -7.0220   13.4690 O.2   181  GLY181     -0.2866
     98  N         -5.2610    0.7940   15.2190 N.3   242  THR242     -0.1203
     99  CA        -5.9420   -0.4900   15.3730 C.3   242  THR242      0.1994
    100  C         -6.4850   -0.6700   16.7920 C.2   242  THR242      0.2617
    101  O         -6.0690    0.0100   17.7330 O.2   242  THR242     -0.2717
    102  CB        -4.9980   -1.6630   15.0500 C.3   242  THR242      0.1784
    103  OG1       -3.9240   -1.6990   16.0060 O.3   242  THR242     -0.2211
    104  CG2       -4.4090   -1.5330   13.6660 C.3   242  THR242      0.0376
    105  N         -7.4320   -1.6070   16.9240 N.am  243  LYS243     -0.1979
    106  CA        -7.9230   -2.1070   18.2150 C.3   243  LYS243      0.1596
    107  C         -8.6740   -1.0420   19.0200 C.2   243  LYS243      0.2287
    108  O         -8.6330   -1.0390   20.2510 O.2   243  LYS243     -0.2864
    109  CB        -6.7890   -2.7160   19.0380 C.3   243  LYS243      0.0298
    110  CG        -6.1840   -3.9560   18.3820 C.3   243  LYS243      0.0038
    111  CD        -4.8890   -4.3500   19.0710 C.3   243  LYS243      0.0206
    112  CE        -4.0520   -5.2120   18.1380 C.3   243  LYS243      0.1093
    113  NZ        -2.7920   -5.5880   18.8000 N.3   243  LYS243     -0.1314
    114  N        -11.9530   -0.9090   19.1040 N.3   245  ASP245     -0.1239
    115  CA       -13.1170   -1.6010   19.6430 C.3   245  ASP245      0.1674
    116  C        -12.9020   -2.0860   21.0690 C.2   245  ASP245      0.2266
    117  O        -13.8450   -2.5850   21.6900 O.2   245  ASP245     -0.2867
    118  CB       -13.4780   -2.7930   18.7540 C.3   245  ASP245      0.1410
    119  CG       -12.2900   -3.7500   18.5290 C.2   245  ASP245      0.3668
    120  OD1      -11.2040   -3.2960   18.0650 O.co2 245  ASP245     -0.2456
    121  OD2      -12.4470   -4.9510   18.8280 O.co2 245  ASP245     -0.2456
    122  N         -8.7260    0.3300   12.8870 N.3   268  GLY268     -0.1225
    123  CA        -9.1660   -1.0420   13.0800 C.3   268  GLY268      0.1811
    124  C        -10.1610   -1.1470   14.2210 C.2   268  GLY268      0.2280
    125  O         -9.9260   -0.6180   15.3060 O.2   268  GLY268     -0.2866
    126  N        -11.8890   -4.2850   15.0140 N.3   270  GLY270     -0.1210
    127  CA       -12.1760   -5.6790   15.2800 C.3   270  GLY270      0.1956
    128  C        -11.3300   -6.5790   14.3970 C.2   270  GLY270      0.2611
    129  O        -10.4330   -6.1220   13.6990 O.2   270  GLY270     -0.2717
    130  N        -11.6680   -7.8740   14.4210 N.am  271  GLU271     -0.1979
    131  CA       -10.8740   -8.9120   13.7820 C.3   271  GLU271      0.1602
    132  C        -11.5110   -9.5070   12.5270 C.2   271  GLU271      0.2287
    133  O        -10.8250  -10.2240   11.7900 O.2   271  GLU271     -0.2864
    134  CB       -10.5630  -10.0230   14.8040 C.3   271  GLU271      0.0415
    135  CG        -9.9390   -9.4510   16.0830 C.3   271  GLU271      0.1163
    136  CD        -9.4140  -10.5090   17.0650 C.2   271  GLU271      0.3649
    137  OE1       -8.3510  -11.1270   16.7950 O.co2 271  GLU271     -0.2457
    138  OE2      -10.0530  -10.7080   18.1210 O.co2 271  GLU271     -0.2457
@<TRIPOS>BOND
     1    53    52    2
     2    52    51    1
     3    93    91    1
     4    59    60    1
     5    50    51    1
     6    51    54    1
     7    87    88    1
     8    47    46    2
     9    62    61    2
    10    61    60    1
    11    91    88    1
    12    91    92    1
    13    88    89    1
    14    81    80    2
    15    60    63    1
    16    80    79    1
    17    46    45    1
    18    54    55    1
    19    33    32    2
    20    78    79    1
    21    63    64    1
    22    79    82    1
    23    89    90    2
    24    55    56    1
    25    36    34    1
    26    40    39    2
    27    24    23    2
    28    45    48    1
    29    45    44    1
    30    32    31    1
    31    32    37   am
    32    31    34    1
    33    31    30    1
    34    39    44   am
    35    39    38    1
    36    34    35    1
    37    48    49    1
    38    64    65   ar
    39    64    66   ar
    40    82    83    1
    41    23    30   am
    42    23    22    1
    43    56    57    1
    44    37    38    1
    45    38    41    1
    46    83    84    1
    47    25    22    1
    48    25    26    1
    49    57    58    1
    50    22    21    1
    51    70    69    2
    52    84    85    2
    53    84    86   am
    54    27    26    1
    55    27    28    1
    56    67    68    1
    57    41    43    1
    58    41    42    1
    59    20    19    2
    60    28    29    1
    61    21    19   am
    62    69    68    1
    63   133   132    2
    64    94    95    1
    65    19    18    1
    66    68    71    1
    67    77    75    1
    68   132   131    1
    69    71    72    1
    70   122   123    1
    71    75    76    1
    72    75    74    2
    73    95    96    1
    74   123   124    1
    75    96    97    2
    76    74    73    1
    77    18    17    1
    78   104   102    1
    79   129   128    2
    80   131   130    1
    81   131   134    1
    82    72    73    1
    83   124   125    2
    84   128   130   am
    85   128   127    1
    86    17    15   am
    87   134   135    1
    88   126   127    1
    89   102    99    1
    90   102   103    1
    91    98    99    1
    92    99   100    1
    93    15    16    2
    94    15    14    1
    95   135   136    1
    96     8     6   am
    97    14    13    1
    98     1     2    1
    99    13    11   am
   100     2     3    1
   101     2     5    1
   102     9     3   am
   103     9    10    1
   104     7     6    2
   105     6     5    1
   106   100   105   am
   107   100   101    2
   108   137   136   ar
   109   105   106    1
   110   136   138   ar
   111    11    10    1
   112    11    12    2
   113     3     4    2
   114   120   119   ar
   115   112   113    1
   116   112   111    1
   117   106   107    1
   118   106   109    1
   119   110   109    1
   120   110   111    1
   121   119   118    1
   122   119   121   ar
   123   118   115    1
   124   107   108    2
   125   114   115    1
   126   115   116    1
   127   116   117    2
