@<TRIPOS>MOLECULE
tmp/5l3rC00.pdb
 151 140 0 0 0
SMALL
GASTEIGER

@<TRIPOS>ATOM
      1  N         45.8490   -9.1100   22.6300 N.3    84  GLN84      -0.1231
      2  CA        45.2940  -10.1650   23.4770 C.3    84  GLN84       0.1698
      3  C         43.9500   -9.7320   24.0370 C.2    84  GLN84       0.2593
      4  O         43.8350   -8.6440   24.6060 O.2    84  GLN84      -0.2718
      5  CB        46.2360  -10.5120   24.6380 C.3    84  GLN84       0.0381
      6  CG        47.5970  -11.0840   24.2310 C.3    84  GLN84       0.0905
      7  CD        48.6040   -9.9970   23.9110 C.2    84  GLN84       0.2608
      8  OE1       48.2300   -8.8590   23.6450 O.2    84  GLN84      -0.2717
      9  NE2       49.8900  -10.3350   23.9570 N.am   84  GLN84      -0.0878
     10  N         42.9310  -10.5840   23.8610 N.am   85  GLY85      -0.1942
     11  CA        41.6720  -10.4690   24.5660 C.3    85  GLY85       0.2014
     12  C         40.5460   -9.8000   23.8070 C.2    85  GLY85       0.2639
     13  O         39.4170   -9.7700   24.3170 O.2    85  GLY85      -0.2714
     14  N         40.8040   -9.3010   22.5930 N.am   86  VAL86      -0.1963
     15  CA        39.8370   -8.4850   21.8680 C.3    86  VAL86       0.1727
     16  C         38.7120   -9.2800   21.2320 C.2    86  VAL86       0.2617
     17  O         37.7080   -8.6850   20.8260 O.2    86  VAL86      -0.2715
     18  CB        40.5910   -7.6690   20.8100 C.3    86  VAL86       0.0290
     19  CG1       41.6440   -6.8130   21.4910 C.3    86  VAL86       0.0023
     20  CG2       41.2440   -8.6070   19.8200 C.3    86  VAL86       0.0023
     21  N         38.8390  -10.6000   21.1320 N.am   87  GLY87      -0.1940
     22  CA        37.7270  -11.4180   20.6790 C.3    87  GLY87       0.2014
     23  C         37.9930  -12.2290   19.4210 C.2    87  GLY87       0.2639
     24  O         37.0460  -12.6610   18.7610 O.2    87  GLY87      -0.2714
     25  N         39.2670  -12.4600   19.0830 N.am   88  LYS88      -0.1963
     26  CA        39.6020  -12.9950   17.7650 C.3    88  LYS88       0.1728
     27  C         39.0280  -14.3930   17.5640 C.2    88  LYS88       0.2617
     28  O         38.3940  -14.6720   16.5440 O.2    88  LYS88      -0.2715
     29  CB        41.1160  -13.0010   17.5700 C.3    88  LYS88       0.0311
     30  CG        41.7280  -11.6340   17.7190 C.3    88  LYS88       0.0038
     31  CD        43.2320  -11.6890   17.5340 C.3    88  LYS88       0.0206
     32  CE        43.9140  -12.5950   18.5420 C.3    88  LYS88       0.1093
     33  NZ        43.6880  -12.1180   19.9340 N.3    88  LYS88      -0.1314
     34  N         39.2210  -15.2800   18.5400 N.am   89  THR89      -0.1937
     35  CA        38.7120  -16.6390   18.4070 C.3    89  THR89       0.2028
     36  C         37.1930  -16.6540   18.2630 C.2    89  THR89       0.2643
     37  O         36.6500  -17.3640   17.4120 O.2    89  THR89      -0.2714
     38  CB        39.1550  -17.4610   19.6120 C.3    89  THR89       0.1808
     39  OG1       40.5790  -17.5560   19.6000 O.3    89  THR89      -0.2208
     40  CG2       38.5700  -18.8460   19.5760 C.3    89  THR89       0.0379
     41  N         36.4940  -15.8680   19.0890 N.am   90  THR90      -0.1936
     42  CA        35.0390  -15.7890   19.0190 C.3    90  THR90       0.2028
     43  C         34.5770  -15.2510   17.6690 C.2    90  THR90       0.2642
     44  O         33.5340  -15.6620   17.1480 O.2    90  THR90      -0.2714
     45  CB        34.5190  -14.9120   20.1660 C.3    90  THR90       0.1808
     46  OG1       34.7510  -15.5820   21.4080 O.3    90  THR90      -0.2208
     47  CG2       33.0320  -14.6360   20.0400 C.3    90  THR90       0.0379
     48  N         35.3520  -14.3470   17.0770 N.am   91  VAL91      -0.1977
     49  CA        34.9240  -13.7310   15.8290 C.3    91  VAL91       0.1596
     50  C         35.1100  -14.6940   14.6560 C.2    91  VAL91       0.2287
     51  O         34.2700  -14.7500   13.7510 O.2    91  VAL91      -0.2864
     52  CB        35.6600  -12.3890   15.6370 C.3    91  VAL91       0.0276
     53  CG1       35.7210  -11.9920   14.1890 C.3    91  VAL91       0.0022
     54  CG2       34.9520  -11.3010   16.4430 C.3    91  VAL91       0.0022
     55  N         32.0570  -16.6760   14.5990 N.3    94  LYS94      -0.1245
     56  CA        30.9790  -15.7870   14.1830 C.3    94  LYS94       0.1561
     57  C         31.0300  -15.5630   12.6840 C.2    94  LYS94       0.2260
     58  O         29.9980  -15.6100   11.9940 O.2    94  LYS94      -0.2867
     59  CB        31.0750  -14.4420   14.8970 C.3    94  LYS94       0.0271
     60  CG        30.5170  -14.3820   16.3150 C.3    94  LYS94       0.0035
     61  CD        30.5570  -12.9430   16.7970 C.3    94  LYS94       0.0206
     62  CE        29.9740  -12.7560   18.1790 C.3    94  LYS94       0.1093
     63  NZ        30.0000  -11.3150   18.5880 N.3    94  LYS94      -0.1314
     64  N         46.4760  -20.7080   16.9300 N.3   112  ASP112     -0.1239
     65  CA        46.9610  -20.2500   18.2320 C.3   112  ASP112      0.1674
     66  C         47.4660  -21.4830   18.9720 C.2   112  ASP112      0.2266
     67  O         46.6760  -22.2740   19.4960 O.2   112  ASP112     -0.2867
     68  CB        45.8560  -19.5260   19.0040 C.3   112  ASP112      0.1410
     69  CG        46.3200  -18.9870   20.3690 C.2   112  ASP112      0.3668
     70  OD1       47.4440  -19.3120   20.8200 O.co2 112  ASP112     -0.2456
     71  OD2       45.5380  -18.2340   21.0000 O.co2 112  ASP112     -0.2456
     72  N         48.4380  -20.0710   23.6380 N.3   115  ARG115     -0.1245
     73  CA        47.4940  -19.9460   24.7410 C.3   115  ARG115      0.1563
     74  C         46.9650  -21.3230   25.1630 C.2   115  ARG115      0.2260
     75  O         46.7060  -22.1820   24.3040 O.2   115  ARG115     -0.2867
     76  CB        46.3450  -19.0250   24.3210 C.3   115  ARG115      0.0307
     77  CG        45.1290  -19.0080   25.2430 C.3   115  ARG115      0.0489
     78  CD        43.9210  -18.4350   24.5080 C.3   115  ARG115      0.2205
     79  NE        42.6910  -18.5790   25.2830 N.pl3 115  ARG115     -0.0865
     80  CZ        42.0340  -17.5610   25.8280 C.cat 115  ARG115      0.5346
     81  NH1       42.4850  -16.3260   25.6670 N.pl3 115  ARG115      0.1354
     82  NH2       40.9260  -17.7740   26.5260 N.pl3 115  ARG115      0.1354
     83  N         39.2230  -24.4580   22.3920 N.3   121  GLN121     -0.1245
     84  CA        38.1530  -23.4620   22.3190 C.3   121  GLN121      0.1566
     85  C         37.5960  -23.3300   20.9040 C.2   121  GLN121      0.2260
     86  O         36.3790  -23.2550   20.7100 O.2   121  GLN121     -0.2867
     87  CB        38.6720  -22.1050   22.8110 C.3   121  GLN121      0.0367
     88  CG        37.6360  -20.9780   22.7690 C.3   121  GLN121      0.0905
     89  CD        38.2240  -19.6010   23.0200 C.2   121  GLN121      0.2608
     90  OE1       39.4240  -19.4490   23.2720 O.2   121  GLN121     -0.2717
     91  NE2       37.3780  -18.5830   22.9290 N.am  121  GLN121     -0.0878
     92  N         42.5370  -18.3590   12.7260 N.3   164  ASP164     -0.1225
     93  CA        42.6980  -17.7700   14.0530 C.3   164  ASP164      0.1805
     94  C         44.1830  -17.7220   14.4090 C.2   164  ASP164      0.2598
     95  O         44.9330  -18.6540   14.0980 O.2   164  ASP164     -0.2718
     96  CB        41.9270  -18.6150   15.0780 C.3   164  ASP164      0.1424
     97  CG        41.7390  -17.9170   16.4120 C.2   164  ASP164      0.3668
     98  OD1       41.8640  -16.6740   16.4600 O.co2 164  ASP164     -0.2456
     99  OD2       41.4440  -18.6180   17.4110 O.co2 164  ASP164     -0.2456
    100  N         44.6080  -16.6260   15.0500 N.am  165  THR165     -0.1953
    101  CA        45.9910  -16.4320   15.4820 C.3   165  THR165      0.1897
    102  C         46.0220  -15.9820   16.9370 C.2   165  THR165      0.2313
    103  O         45.0870  -15.3360   17.4220 O.2   165  THR165     -0.2863
    104  CB        46.7390  -15.3780   14.6190 C.3   165  THR165      0.1794
    105  OG1       46.2280  -14.0650   14.8870 O.3   165  THR165     -0.2208
    106  CG2       46.5910  -15.6720   13.1370 C.3   165  THR165      0.0378
    107  N         46.8210  -13.8000   20.1790 N.3   167  GLY167     -0.1225
    108  CA        46.9630  -12.3750   20.4100 C.3   167  GLY167      0.1811
    109  C         48.4190  -11.9850   20.5810 C.2   167  GLY167      0.2280
    110  O         49.2430  -12.7590   21.0680 O.2   167  GLY167     -0.2866
    111  N         34.7270   -5.2180   18.0980 N.3   222  THR222     -0.1203
    112  CA        34.0490   -6.0950   19.0500 C.3   222  THR222      0.1994
    113  C         33.5100   -5.3360   20.2640 C.2   222  THR222      0.2617
    114  O         33.8810   -4.1940   20.5330 O.2   222  THR222     -0.2717
    115  CB        34.9750   -7.2150   19.5550 C.3   222  THR222      0.1784
    116  OG1       36.0600   -6.6420   20.3030 O.3   222  THR222     -0.2211
    117  CG2       35.5190   -8.0340   18.4060 C.3   222  THR222      0.0376
    118  N         32.5960   -6.0040   20.9800 N.am  223  LYS223     -0.1979
    119  CA        32.0900   -5.6030   22.2970 C.3   223  LYS223      0.1596
    120  C         31.3280   -4.2790   22.2770 C.2   223  LYS223      0.2287
    121  O         31.3480   -3.5330   23.2570 O.2   223  LYS223     -0.2864
    122  CB        33.2130   -5.5620   23.3320 C.3   223  LYS223      0.0298
    123  CG        33.9010   -6.8810   23.5050 C.3   223  LYS223      0.0038
    124  CD        35.2200   -6.7340   24.2640 C.3   223  LYS223      0.0206
    125  CE        36.0700   -8.0030   24.1500 C.3   223  LYS223      0.1093
    126  NZ        37.3350   -7.8780   24.8750 N.3   223  LYS223     -0.1314
    127  N         28.2190   -3.9950   22.5000 N.3   225  ASP225     -0.1239
    128  CA        27.1480   -4.0710   23.4900 C.3   225  ASP225      0.1674
    129  C         27.5360   -3.4430   24.8190 C.2   225  ASP225      0.2266
    130  O         26.6970   -3.3850   25.7160 O.2   225  ASP225     -0.2867
    131  CB        26.7030   -5.5230   23.7140 C.3   225  ASP225      0.1410
    132  CG        27.8750   -6.5160   23.7830 C.2   225  ASP225      0.3668
    133  OD1       28.8340   -6.4110   22.9760 O.co2 225  ASP225     -0.2456
    134  OD2       27.8150   -7.4210   24.6490 O.co2 225  ASP225     -0.2456
    135  N         30.7300   -6.7270   16.2920 N.3   248  GLY248     -0.1225
    136  CA        30.1360   -7.7320   17.1630 C.3   248  GLY248      0.1811
    137  C         29.5170   -7.0290   18.3560 C.2   248  GLY248      0.2280
    138  O         30.0990   -6.0820   18.8930 O.2   248  GLY248     -0.2866
    139  N         27.9370   -8.9710   21.2050 N.3   250  GLY250     -0.1210
    140  CA        27.5320  -10.0050   22.1310 C.3   250  GLY250      0.1956
    141  C         28.3870  -11.2400   21.9630 C.2   250  GLY250      0.2611
    142  O         29.3660  -11.2520   21.2100 O.2   250  GLY250     -0.2717
    143  N         27.9880  -12.2920   22.6880 N.am  251  GLU251     -0.1979
    144  CA        28.7150  -13.5570   22.7310 C.3   251  GLU251      0.1602
    145  C         28.0130  -14.6670   21.9570 C.2   251  GLU251      0.2287
    146  O         28.6030  -15.7320   21.7440 O.2   251  GLU251     -0.2864
    147  CB        28.9450  -13.9990   24.1910 C.3   251  GLU251      0.0415
    148  CG        29.9520  -13.1390   24.9940 C.3   251  GLU251      0.1163
    149  CD        30.2020  -13.6350   26.4430 C.2   251  GLU251      0.3649
    150  OE1       31.0870  -14.5040   26.6470 O.co2 251  GLU251     -0.2457
    151  OE2       29.5240  -13.1420   27.3830 O.co2 251  GLU251     -0.2457
@<TRIPOS>BOND
     1    58    57    2
     2    57    56    1
     3    92    93    1
     4   106   104    1
     5    51    50    2
     6    93    94    1
     7    93    96    1
     8    95    94    2
     9    56    55    1
    10    56    59    1
    11    53    52    1
    12    94   100   am
    13   104   105    1
    14   104   101    1
    15    50    49    1
    16    59    60    1
    17   100   101    1
    18    96    97    1
    19   101   102    1
    20    52    49    1
    21    52    54    1
    22    49    48    1
    23   135   136    1
    24    60    61    1
    25    97    98   ar
    26    97    99   ar
    27    28    27    2
    28    61    62    1
    29    64    65    1
    30   102   103    2
    31    48    43   am
    32    44    43    2
    33   136   137    1
    34    37    36    2
    35    31    30    1
    36    31    32    1
    37    27    26    1
    38    27    34   am
    39    29    30    1
    40    29    26    1
    41    43    42    1
    42    26    25    1
    43   111   112    1
    44    62    63    1
    45    65    66    1
    46    65    68    1
    47    36    35    1
    48    36    41   am
    49   137   138    2
    50   117   115    1
    51    35    34    1
    52    35    38    1
    53    32    33    1
    54    24    23    2
    55    66    67    2
    56    68    69    1
    57    42    41    1
    58    42    45    1
    59   112   115    1
    60   112   113    1
    61    25    23   am
    62    23    22    1
    63   115   116    1
    64    40    38    1
    65    39    38    1
    66    20    18    1
    67    47    45    1
    68    45    46    1
    69   107   108    1
    70   113   114    2
    71   113   118   am
    72    69    70   ar
    73    69    71   ar
    74   108   109    1
    75   109   110    2
    76    22    21    1
    77    86    85    2
    78    18    19    1
    79    18    15    1
    80    17    16    2
    81    85    84    1
    82   118   119    1
    83    21    16   am
    84   139   140    1
    85   142   141    2
    86    16    15    1
    87   146   145    2
    88    15    14    1
    89   145   144    1
    90   141   140    1
    91   141   143   am
    92   120   119    1
    93   120   121    2
    94   119   122    1
    95    84    83    1
    96    84    87    1
    97   127   128    1
    98    14    12   am
    99     1     2    1
   100   143   144    1
   101   144   147    1
   102    88    87    1
   103    88    89    1
   104    91    89   am
   105   133   132   ar
   106    89    90    2
   107   122   123    1
   108     2     3    1
   109     2     5    1
   110   128   131    1
   111   128   129    1
   112   123   124    1
   113    72    73    1
   114     8     7    2
   115   131   132    1
   116   132   134   ar
   117    12    13    2
   118    12    11    1
   119    10     3   am
   120    10    11    1
   121     7     9   am
   122     7     6    1
   123     3     4    2
   124   125   124    1
   125   125   126    1
   126   147   148    1
   127     6     5    1
   128    75    74    2
   129    76    73    1
   130    76    77    1
   131    78    77    1
   132    78    79    1
   133    73    74    1
   134   129   130    2
   135   148   149    1
   136    79    80    2
   137    81    80    1
   138    80    82    1
   139   149   150   ar
   140   149   151   ar
