@<TRIPOS>MOLECULE
tmp/5l3sB01.pdb
 147 136 0 0 0
SMALL
GASTEIGER

@<TRIPOS>ATOM
      1  N         -5.3710    7.1490   42.5120 N.3    97  ASN97      -0.1225
      2  CA        -4.2420    7.9090   43.0290 C.3    97  ASN97       0.1785
      3  C         -2.9880    7.1100   43.2860 C.2    97  ASN97       0.2598
      4  O         -3.0360    6.0500   43.9180 O.2    97  ASN97      -0.2718
      5  CB        -4.6570    8.5890   44.3410 C.3    97  ASN97       0.1169
      6  CG        -5.8970    9.3880   44.1720 C.2    97  ASN97       0.2627
      7  OD1       -7.0080    8.8420   44.2040 O.2    97  ASN97      -0.2716
      8  ND2       -5.7330   10.6960   43.9590 N.am   97  ASN97      -0.0877
      9  N         -1.8670    7.6390   42.8120 N.am   98  GLY98      -0.1942
     10  CA        -0.5550    7.1080   43.1480 C.3    98  GLY98       0.2014
     11  C         -0.0890    5.8910   42.3370 C.2    98  GLY98       0.2639
     12  O          1.0370    5.4210   42.5450 O.2    98  GLY98      -0.2714
     13  N         -0.9190    5.3790   41.4270 N.am   99  VAL99      -0.1963
     14  CA        -0.5520    4.1520   40.6710 C.3    99  VAL99       0.1727
     15  C          0.6280    4.2980   39.7090 C.2    99  VAL99       0.2617
     16  O          1.3100    3.3130   39.3910 O.2    99  VAL99      -0.2715
     17  CB        -1.7420    3.5480   39.8570 C.3    99  VAL99       0.0290
     18  CG1       -2.7900    2.9790   40.7950 C.3    99  VAL99       0.0023
     19  CG2       -2.3460    4.5790   38.8520 C.3    99  VAL99       0.0023
     20  N          0.8560    5.5110   39.2170 N.am  100  GLY100     -0.1940
     21  CA         2.0180    5.7440   38.3850 C.3   100  GLY100      0.2014
     22  C          1.7790    6.4170   37.0410 C.2   100  GLY100      0.2639
     23  O          2.6240    6.3050   36.1680 O.2   100  GLY100     -0.2714
     24  N          0.6620    7.1310   36.8910 N.am  101  LYS101     -0.1963
     25  CA         0.3050    7.7760   35.6250 C.3   101  LYS101      0.1728
     26  C          1.3680    8.7340   35.0780 C.2   101  LYS101      0.2617
     27  O          1.7810    8.6180   33.9160 O.2   101  LYS101     -0.2715
     28  CB        -1.0320    8.5260   35.7830 C.3   101  LYS101      0.0311
     29  CG        -2.1580    7.6770   36.3880 C.3   101  LYS101      0.0038
     30  CD        -3.4290    8.4920   36.6260 C.3   101  LYS101      0.0206
     31  CE        -3.3110    9.3980   37.8870 C.3   101  LYS101      0.1093
     32  NZ        -3.0160    8.5850   39.1170 N.3   101  LYS101     -0.1314
     33  N          1.7670    9.6960   35.9060 N.am  102  THR102     -0.1937
     34  CA         2.6880   10.7700   35.5270 C.3   102  THR102      0.2028
     35  C          4.0530   10.2320   35.1130 C.2   102  THR102      0.2643
     36  O          4.6020   10.6020   34.0730 O.2   102  THR102     -0.2714
     37  CB         2.7990   11.8010   36.6810 C.3   102  THR102      0.1808
     38  OG1        1.5120   12.4070   36.8960 O.3   102  THR102     -0.2208
     39  CG2        3.8480   12.8560   36.3850 C.3   102  THR102      0.0379
     40  N          4.5850    9.3120   35.9030 N.am  103  THR103     -0.1936
     41  CA         5.8730    8.7000   35.5760 C.3   103  THR103      0.2028
     42  C          5.7850    7.8160   34.3130 C.2   103  THR103      0.2642
     43  O          6.7150    7.7720   33.5070 O.2   103  THR103     -0.2714
     44  CB         6.3920    7.8780   36.7830 C.3   103  THR103      0.1808
     45  OG1        6.3770    8.7160   37.9560 O.3   103  THR103     -0.2208
     46  CG2        7.8170    7.3830   36.5340 C.3   103  THR103      0.0379
     47  N          4.6610    7.1250   34.1410 N.am  104  THR104     -0.1950
     48  CA         4.4680    6.2680   32.9660 C.3   104  THR104      0.1897
     49  C          4.3950    7.1130   31.6910 C.2   104  THR104      0.2313
     50  O          4.8930    6.7290   30.6340 O.2   104  THR104     -0.2863
     51  CB         3.2030    5.3910   33.1230 C.3   104  THR104      0.1794
     52  OG1        3.3600    4.5420   34.2730 O.3   104  THR104     -0.2208
     53  CG2        2.9870    4.5110   31.8650 C.3   104  THR104      0.0378
     54  N          7.8930    7.7320   30.5880 N.3   107  LYS107     -0.1245
     55  CA         8.4660    6.5620   29.9370 C.3   107  LYS107      0.1561
     56  C          7.9290    6.4120   28.5160 C.2   107  LYS107      0.2260
     57  O          8.6610    6.0140   27.6060 O.2   107  LYS107     -0.2867
     58  CB         8.1230    5.2810   30.7230 C.3   107  LYS107      0.0271
     59  CG         8.6290    5.2590   32.1630 C.3   107  LYS107      0.0035
     60  CD         8.1920    3.9650   32.8440 C.3   107  LYS107      0.0206
     61  CE         8.5860    3.9450   34.3200 C.3   107  LYS107      0.1093
     62  NZ         8.2650    2.6090   34.9310 N.3   107  LYS107     -0.1314
     63  N         -3.5920   17.3010   35.0500 N.3   125  ASP125     -0.1239
     64  CA        -3.8110   17.2580   36.5080 C.3   125  ASP125      0.1674
     65  C         -3.6140   18.6670   37.0310 C.2   125  ASP125      0.2266
     66  O         -2.4830   19.1080   37.2340 O.2   125  ASP125     -0.2867
     67  CB        -2.8190   16.3300   37.2050 C.3   125  ASP125      0.1410
     68  CG        -2.9920   16.2970   38.7340 C.2   125  ASP125      0.3668
     69  OD1       -3.7500   17.1120   39.3060 O.co2 125  ASP125     -0.2456
     70  OD2       -2.3390   15.4430   39.3700 O.co2 125  ASP125     -0.2456
     71  N         -3.5830   18.3780   42.0380 N.3   128  ARG128     -0.1245
     72  CA        -2.7200   17.9080   43.1190 C.3   128  ARG128      0.1563
     73  C         -1.4770   18.7680   43.2620 C.2   128  ARG128      0.2260
     74  O         -0.9320   19.2520   42.2740 O.2   128  ARG128     -0.2867
     75  CB        -2.3350   16.4420   42.9310 C.3   128  ARG128      0.0307
     76  CG        -1.9600   15.7540   44.2550 C.3   128  ARG128      0.0489
     77  CD        -0.8050   14.7920   44.0660 C.3   128  ARG128      0.2205
     78  NE         0.3820   15.4680   43.5430 N.pl3 128  ARG128     -0.0865
     79  CZ         1.0640   15.0460   42.4860 C.cat 128  ARG128      0.5346
     80  NH1        0.6750   13.9430   41.8610 N.pl3 128  ARG128      0.1354
     81  NH2        2.1350   15.7090   42.0590 N.pl3 128  ARG128      0.1354
     82  N          6.0620   18.6070   38.6550 N.3   134  GLN134     -0.1245
     83  CA         6.5520   17.2490   38.4920 C.3   134  GLN134      0.1566
     84  C          6.6950   16.9320   36.9890 C.2   134  GLN134      0.2260
     85  O          7.7320   16.4390   36.5350 O.2   134  GLN134     -0.2867
     86  CB         5.5670   16.2620   39.1500 C.3   134  GLN134      0.0367
     87  CG         6.0660   14.8000   39.2060 C.3   134  GLN134      0.0905
     88  CD         4.9960   13.8070   39.6590 C.2   134  GLN134      0.2608
     89  OE1        3.8450   14.1760   39.9230 O.2   134  GLN134     -0.2717
     90  NE2        5.3800   12.5350   39.7620 N.am  134  GLN134     -0.0878
     91  N         -3.6980   13.0050   33.8230 N.3   178  THR178     -0.1218
     92  CA        -4.8860   13.3890   34.5710 C.3   178  THR178      0.1862
     93  C         -4.6530   13.1320   36.0500 C.2   178  THR178      0.2287
     94  O         -3.8080   12.3070   36.4240 O.2   178  THR178     -0.2866
     95  CB        -6.1690   12.6050   34.1170 C.3   178  THR178      0.1770
     96  OG1       -6.0450   11.2150   34.4540 O.3   178  THR178     -0.2211
     97  CG2       -6.4150   12.7490   32.6270 C.3   178  THR178      0.0375
     98  N         -5.1750   11.6950   39.8190 N.3   180  GLY180     -0.1225
     99  CA        -5.6700   10.4580   40.4030 C.3   180  GLY180      0.1811
    100  C         -7.1140   10.6610   40.8140 C.2   180  GLY180      0.2280
    101  O         -7.5150   11.7560   41.2110 O.2   180  GLY180     -0.2866
    102  N          2.1530   -1.0690   36.5570 N.3   235  THR235     -0.1203
    103  CA         3.3810   -0.4680   37.0800 C.3   235  THR235      0.1994
    104  C          3.9780   -1.2320   38.2670 C.2   235  THR235      0.2617
    105  O          3.3200   -2.0840   38.8650 O.2   235  THR235     -0.2717
    106  CB         3.1030    0.9600   37.5900 C.3   235  THR235      0.1784
    107  OG1        2.1430    0.8850   38.6470 O.3   235  THR235     -0.2211
    108  CG2        2.5500    1.8530   36.4510 C.3   235  THR235      0.0376
    109  N          5.2270   -0.9010   38.6000 N.am  236  LYS236     -0.1979
    110  CA         5.8730   -1.3590   39.8220 C.3   236  LYS236      0.1596
    111  C          6.0570   -2.8660   39.8570 C.2   236  LYS236      0.2287
    112  O          6.0810   -3.4670   40.9180 O.2   236  LYS236     -0.2864
    113  CB         5.1040   -0.8740   41.0660 C.3   236  LYS236      0.0298
    114  CG         4.8990    0.6410   41.1030 C.3   236  LYS236      0.0038
    115  CD         4.0150    1.0720   42.3030 C.3   236  LYS236      0.0206
    116  CE         3.4840    2.5160   42.0770 C.3   236  LYS236      0.1093
    117  NZ         2.4880    2.9320   43.1210 N.3   236  LYS236     -0.1314
    118  N          8.6290   -4.3020   39.2310 N.3   238  ASP238     -0.1225
    119  CA         9.9480   -4.5360   39.8340 C.3   238  ASP238      0.1805
    120  C          9.9000   -4.7550   41.3610 C.2   238  ASP238      0.2597
    121  O         10.9020   -5.1400   41.9580 O.2   238  ASP238     -0.2718
    122  CB        10.9330   -3.4090   39.4900 C.3   238  ASP238      0.1424
    123  CG        10.3810   -2.0210   39.8170 C.2   238  ASP238      0.3668
    124  OD1        9.2610   -1.6640   39.3780 O.co2 238  ASP238     -0.2456
    125  OD2       11.0700   -1.2800   40.5410 O.co2 238  ASP238     -0.2456
    126  N          8.7470   -4.5240   41.9820 N.am  239  ALA239     -0.1979
    127  CA         8.5840   -4.8440   43.4130 C.3   239  ALA239      0.1597
    128  C          8.3090   -6.3390   43.6640 C.2   239  ALA239      0.2287
    129  O          7.5630   -6.6850   44.5850 O.2   239  ALA239     -0.2864
    130  CB         7.4790   -4.0320   44.0010 C.3   239  ALA239      0.0319
    131  N          5.6560   -1.3030   33.6670 N.3   261  GLY261     -0.1225
    132  CA         6.6690   -0.4770   34.2940 C.3   261  GLY261      0.1811
    133  C          7.5020   -1.2970   35.2510 C.2   261  GLY261      0.2280
    134  O          6.9740   -2.0530   36.0540 O.2   261  GLY261     -0.2866
    135  N         10.4310    0.0990   37.0070 N.3   263  GLY263     -0.1210
    136  CA        11.3550    0.9260   37.7590 C.3   263  GLY263      0.1956
    137  C         10.9850    2.3930   37.5980 C.2   263  GLY263      0.2611
    138  O          9.9150    2.7200   37.0700 O.2   263  GLY263     -0.2717
    139  N         11.8780    3.2810   38.0190 N.am  264  GLN264     -0.1979
    140  CA        11.5500    4.7130   38.0220 C.3   264  GLN264      0.1601
    141  C         12.2620    5.5260   36.9350 C.2   264  GLN264      0.2287
    142  O         12.0310    6.7240   36.8130 O.2   264  GLN264     -0.2864
    143  CB        11.7950    5.3260   39.4120 C.3   264  GLN264      0.0394
    144  CG        11.0770    4.5760   40.5410 C.3   264  GLN264      0.0908
    145  CD        11.2210    5.2490   41.8950 C.2   264  GLN264      0.2608
    146  OE1       12.1210    4.9220   42.6700 O.2   264  GLN264     -0.2717
    147  NE2       10.3430    6.2080   42.1790 N.am  264  GLN264     -0.0878
@<TRIPOS>BOND
     1    57    56    2
     2    56    55    1
     3    55    54    1
     4    55    58    1
     5    50    49    2
     6    58    59    1
     7    49    48    1
     8    53    51    1
     9    59    60    1
    10    97    95    1
    11    60    61    1
    12    48    51    1
    13    48    47    1
    14    51    52    1
    15    43    42    2
    16   131   132    1
    17    91    92    1
    18    27    26    2
    19    36    35    2
    20    95    96    1
    21    95    92    1
    22    47    42   am
    23   132   133    1
    24    42    41    1
    25    61    62    1
    26    92    93    1
    27    63    64    1
    28    26    25    1
    29    26    33   am
    30    35    34    1
    31    35    40   am
    32   133   134    2
    33    34    33    1
    34    34    37    1
    35    41    40    1
    36    41    44    1
    37    25    28    1
    38    25    24    1
    39    28    29    1
    40    93    94    2
    41    23    22    2
    42    39    37    1
    43    29    30    1
    44   108   106    1
    45    64    65    1
    46    64    67    1
    47    46    44    1
    48    85    84    2
    49   102   103    1
    50    30    31    1
    51    37    38    1
    52    44    45    1
    53   142   141    2
    54    24    22   am
    55   141   140    1
    56    84    83    1
    57   135   136    1
    58    65    66    2
    59    22    21    1
    60   138   137    2
    61   103   106    1
    62   103   104    1
    63    67    68    1
    64   106   107    1
    65   137   136    1
    66   137   139   am
    67    31    32    1
    68   139   140    1
    69   140   143    1
    70   104   109   am
    71   104   105    2
    72    21    20    1
    73    83    82    1
    74    83    86    1
    75   109   110    1
    76    68    69   ar
    77    68    70   ar
    78    19    17    1
    79    86    87    1
    80    87    88    1
    81    20    15   am
    82   118   119    1
    83   124   123   ar
    84    16    15    2
    85   143   144    1
    86   122   123    1
    87   122   119    1
    88    88    90   am
    89    88    89    2
    90    15    14    1
    91   123   125   ar
    92    98    99    1
    93   110   111    1
    94   110   113    1
    95   119   120    1
    96   111   112    2
    97    17    14    1
    98    17    18    1
    99    99   100    1
   100   144   145    1
   101    14    13    1
   102   100   101    2
   103   113   114    1
   104   114   115    1
   105   120   121    2
   106   120   126   am
   107    13    11   am
   108    80    79    1
   109   145   147   am
   110   145   146    2
   111   126   127    1
   112    71    72    1
   113    81    79    1
   114   116   115    1
   115   116   117    1
   116    74    73    2
   117    11    12    2
   118    11    10    1
   119    79    78    2
   120     1     2    1
   121     9    10    1
   122     9     3   am
   123    75    72    1
   124    75    76    1
   125     2     3    1
   126     2     5    1
   127    72    73    1
   128     3     4    2
   129   127   128    1
   130   127   130    1
   131    78    77    1
   132   128   129    2
   133     8     6   am
   134    77    76    1
   135     6     7    2
   136     6     5    1
