@<TRIPOS>MOLECULE
tmp/5l3sE00.pdb
 142 131 0 0 0
SMALL
GASTEIGER

@<TRIPOS>ATOM
      1  N         11.3460   53.0560  108.9080 N.3    84  GLN84      -0.1231
      2  CA        11.7130   51.9700  108.0080 C.3    84  GLN84       0.1698
      3  C         13.2240   51.7510  107.9530 C.2    84  GLN84       0.2593
      4  O         13.9830   52.6770  107.6680 O.2    84  GLN84      -0.2718
      5  CB        11.1990   52.2750  106.6010 C.3    84  GLN84       0.0381
      6  CG         9.6770   52.1670  106.4550 C.3    84  GLN84       0.0905
      7  CD         8.9790   53.5120  106.6260 C.2    84  GLN84       0.2608
      8  OE1        9.4930   54.4060  107.2980 O.2    84  GLN84      -0.2717
      9  NE2        7.8080   53.6620  106.0010 N.am   84  GLN84      -0.0878
     10  N         13.6550   50.5260  108.2400 N.am   85  GLY85      -0.1942
     11  CA        15.0600   50.1680  108.1310 C.3    85  GLY85       0.2014
     12  C         15.9670   50.5030  109.3060 C.2    85  GLY85       0.2640
     13  O         17.1700   50.2210  109.2590 O.2    85  GLY85      -0.2714
     14  N         15.4070   51.0980  110.3590 N.am   86  SER86      -0.1935
     15  CA        16.2270   51.6250  111.4600 C.3    86  SER86       0.2055
     16  C         16.9450   50.5350  112.2410 C.2    86  SER86       0.2644
     17  O         17.9700   50.7910  112.8800 O.2    86  SER86      -0.2714
     18  CB        15.3930   52.4810  112.4260 C.3    86  SER86       0.2130
     19  OG        14.4570   51.6880  113.1410 O.3    86  SER86      -0.2179
     20  N         16.4000   49.3260  112.2080 N.am   87  GLY87      -0.1939
     21  CA        17.0060   48.2190  112.9240 C.3    87  GLY87       0.2014
     22  C         16.1310   47.5000  113.9410 C.2    87  GLY87       0.2639
     23  O         16.6600   46.7380  114.7320 O.2    87  GLY87      -0.2714
     24  N         14.8120   47.7270  113.9130 N.am   88  LYS88      -0.1963
     25  CA        13.8810   47.2040  114.9280 C.3    88  LYS88       0.1728
     26  C         13.9210   45.6890  115.1380 C.2    88  LYS88       0.2617
     27  O         13.9860   45.1900  116.2830 O.2    88  LYS88      -0.2715
     28  CB        12.4350   47.5900  114.5690 C.3    88  LYS88       0.0311
     29  CG        12.1610   49.1170  114.5600 C.3    88  LYS88       0.0038
     30  CD        10.7510   49.4330  114.0490 C.3    88  LYS88       0.0206
     31  CE        10.5930   49.0870  112.5550 C.3    88  LYS88       0.1093
     32  NZ        11.5430   49.8360  111.6540 N.3    88  LYS88      -0.1314
     33  N         13.8120   44.9660  114.0310 N.am   89  THR89      -0.1937
     34  CA        13.6670   43.5230  114.0410 C.3    89  THR89       0.2028
     35  C         14.9420   42.8900  114.5700 C.2    89  THR89       0.2643
     36  O         14.8890   42.0240  115.4470 O.2    89  THR89      -0.2714
     37  CB        13.3070   42.9810  112.6420 C.3    89  THR89       0.1808
     38  OG1       12.0190   43.4860  112.2500 O.3    89  THR89      -0.2208
     39  CG2       13.2720   41.4110  112.6190 C.3    89  THR89       0.0379
     40  N         16.0840   43.3330  114.0470 N.am   90  THR90      -0.1936
     41  CA        17.3840   42.8220  114.4980 C.3    90  THR90       0.2028
     42  C         17.5880   43.1420  115.9890 C.2    90  THR90       0.2642
     43  O         18.0950   42.3220  116.7610 O.2    90  THR90      -0.2714
     44  CB        18.5370   43.4530  113.6840 C.3    90  THR90       0.1808
     45  OG1       18.3670   43.1600  112.2810 O.3    90  THR90      -0.2208
     46  CG2       19.8930   42.9000  114.1520 C.3    90  THR90       0.0379
     47  N         17.1900   44.3520  116.3790 N.am   91  THR91      -0.1950
     48  CA        17.2740   44.7900  117.7740 C.3    91  THR91       0.1897
     49  C         16.3510   44.0020  118.7170 C.2    91  THR91       0.2313
     50  O         16.7010   43.7600  119.8760 O.2    91  THR91      -0.2863
     51  CB        16.9960   46.3150  117.8660 C.3    91  THR91       0.1794
     52  OG1       17.9740   47.0210  117.0820 O.3    91  THR91      -0.2208
     53  CG2       17.0190   46.8170  119.3130 C.3    91  THR91       0.0378
     54  N         18.4720   41.0700  119.3870 N.3    94  LYS94      -0.1245
     55  CA        19.5780   41.4550  120.2710 C.3    94  LYS94       0.1561
     56  C         19.1200   41.6280  121.7170 C.2    94  LYS94       0.2260
     57  O         19.7940   41.1850  122.6410 O.2    94  LYS94      -0.2867
     58  CB        20.2220   42.7670  119.8220 C.3    94  LYS94       0.0271
     59  CG        20.9930   42.6960  118.5170 C.3    94  LYS94       0.0035
     60  CD        21.6490   44.0340  118.2500 C.3    94  LYS94       0.0206
     61  CE        22.4340   44.0530  116.9410 C.3    94  LYS94       0.1093
     62  NZ        22.9610   45.4420  116.7010 N.3    94  LYS94      -0.1314
     63  N          4.5440   42.9580  112.7680 N.3   112  ASP112     -0.1239
     64  CA         4.7000   43.7030  111.5110 C.3   112  ASP112      0.1674
     65  C          4.0110   42.8630  110.4410 C.2   112  ASP112      0.2266
     66  O          4.4470   41.7590  110.1590 O.2   112  ASP112     -0.2867
     67  CB         6.1930   43.8690  111.1940 C.3   112  ASP112      0.1410
     68  CG         6.4590   44.5200  109.8160 C.2   112  ASP112      0.3668
     69  OD1        5.5160   44.7390  109.0300 O.co2 112  ASP112     -0.2456
     70  OD2        7.6330   44.7970  109.5140 O.co2 112  ASP112     -0.2456
     71  N          5.8100   44.4380  105.9760 N.3   115  ARG115     -0.1245
     72  CA         7.0740   44.0970  105.3190 C.3   115  ARG115      0.1563
     73  C          7.1160   42.6190  104.9160 C.2   115  ARG115      0.2260
     74  O          6.8340   41.7540  105.7400 O.2   115  ARG115     -0.2867
     75  CB         8.2530   44.4040  106.2380 C.3   115  ARG115      0.0307
     76  CG         9.6000   43.9320  105.7000 C.3   115  ARG115      0.0489
     77  CD        10.7220   44.1790  106.6970 C.3   115  ARG115      0.2205
     78  NE        11.9370   43.4610  106.3240 N.pl3 115  ARG115     -0.0865
     79  CZ        13.1130   44.0260  106.0910 C.cat 115  ARG115      0.5346
     80  NH1       13.2610   45.3470  106.1950 N.pl3 115  ARG115      0.1354
     81  NH2       14.1510   43.2670  105.7510 N.pl3 115  ARG115      0.1354
     82  N         11.7650   36.7930  109.3240 N.3   121  GLN121     -0.1245
     83  CA        12.9930   37.3940  109.8340 C.3   121  GLN121      0.1566
     84  C         13.0550   37.1960  111.3590 C.2   121  GLN121      0.2260
     85  O         14.0830   36.8070  111.9200 O.2   121  GLN121     -0.2867
     86  CB        13.0120   38.9000  109.5330 C.3   121  GLN121      0.0367
     87  CG        14.3840   39.5420  109.5600 C.3   121  GLN121      0.0905
     88  CD        14.3130   41.0340  109.2250 C.2   121  GLN121      0.2608
     89  OE1       13.2820   41.5170  108.7440 O.2   121  GLN121     -0.2717
     90  NE2       15.4030   41.7540  109.4620 N.am  121  GLN121     -0.0878
     91  N          7.4030   45.9630  115.4670 N.3   165  THR165     -0.1218
     92  CA         6.3610   46.6570  114.7150 C.3   165  THR165      0.1862
     93  C          6.8830   47.1090  113.3480 C.2   165  THR165      0.2287
     94  O          8.0920   47.1420  113.1120 O.2   165  THR165     -0.2866
     95  CB         5.7770   47.8760  115.4860 C.3   165  THR165      0.1770
     96  OG1        6.7340   48.9350  115.5050 O.3   165  THR165     -0.2211
     97  CG2        5.4360   47.4950  116.9270 C.3   165  THR165      0.0375
     98  N          7.9500   49.3950  110.1780 N.3   167  GLY167     -0.1225
     99  CA         8.5850   50.7030  109.9970 C.3   167  GLY167      0.1811
    100  C          7.5720   51.7520  109.5850 C.2   167  GLY167      0.2280
    101  O          6.6190   51.4460  108.8710 O.2   167  GLY167     -0.2866
    102  N         21.0710   52.4760  116.7700 N.3   224  THR224     -0.1203
    103  CA        21.6450   51.3860  115.9880 C.3   224  THR224      0.1994
    104  C         22.8050   51.8460  115.1170 C.2   224  THR224      0.2617
    105  O         22.9910   53.0400  114.9130 O.2   224  THR224     -0.2717
    106  CB        20.5970   50.7460  115.0640 C.3   224  THR224      0.1784
    107  OG1       20.1620   51.7050  114.0810 O.3   224  THR224     -0.2211
    108  CG2       19.4090   50.2650  115.8850 C.3   224  THR224      0.0376
    109  N         23.5770   50.8830  114.6140 N.am  225  LYS225     -0.1979
    110  CA        24.6330   51.1450  113.6290 C.3   225  LYS225      0.1596
    111  C         25.7030   52.1310  114.0960 C.2   225  LYS225      0.2287
    112  O         26.1960   52.9540  113.3030 O.2   225  LYS225     -0.2864
    113  CB        24.0160   51.6060  112.3000 C.3   225  LYS225      0.0298
    114  CG        22.9540   50.6550  111.7850 C.3   225  LYS225      0.0038
    115  CD        22.0730   51.3020  110.7280 C.3   225  LYS225      0.0206
    116  CE        20.8520   50.4300  110.4750 C.3   225  LYS225      0.1093
    117  NZ        19.8050   51.0440  109.6060 N.3   225  LYS225     -0.1314
    118  N         28.5530   51.1490  115.0640 N.3   227  ASP227     -0.1239
    119  CA        29.8010   50.6420  114.5120 C.3   227  ASP227      0.1674
    120  C         30.1500   51.3870  113.2130 C.2   227  ASP227      0.2266
    121  O         31.2530   51.2570  112.6980 O.2   227  ASP227     -0.2867
    122  CB        29.7290   49.1290  114.2680 C.3   227  ASP227      0.1410
    123  CG        28.4900   48.7110  113.4860 C.2   227  ASP227      0.3668
    124  OD1       27.3720   49.1450  113.8280 O.co2 227  ASP227     -0.2456
    125  OD2       28.6260   47.9330  112.5240 O.co2 227  ASP227     -0.2456
    126  N         23.4650   49.6290  119.2690 N.3   250  GLY250     -0.1225
    127  CA        23.7970   48.4760  118.4400 C.3   250  GLY250      0.1811
    128  C         25.1480   48.7200  117.7960 C.2   250  GLY250      0.2280
    129  O         25.4370   49.8400  117.3450 O.2   250  GLY250     -0.2866
    130  N         26.6960   46.3020  115.5180 N.3   252  GLY252     -0.1210
    131  CA        26.9150   45.3110  114.4700 C.3   252  GLY252      0.1956
    132  C         25.6620   44.5540  114.0670 C.2   252  GLY252      0.2611
    133  O         24.6010   44.7460  114.6510 O.2   252  GLY252     -0.2717
    134  N         25.7860   43.6800  113.0690 N.am  253  GLU253     -0.1979
    135  CA        24.6520   42.8690  112.6280 C.3   253  GLU253      0.1602
    136  C         24.4180   41.6010  113.4560 C.2   253  GLU253      0.2287
    137  O         23.3150   41.0500  113.4360 O.2   253  GLU253     -0.2864
    138  CB        24.8030   42.4830  111.1510 C.3   253  GLU253      0.0415
    139  CG        25.0960   43.6540  110.2360 C.3   253  GLU253      0.1163
    140  CD        24.8720   43.2980  108.7820 C.2   253  GLU253      0.3649
    141  OE1       23.7540   42.8380  108.4480 O.co2 253  GLU253     -0.2457
    142  OE2       25.8110   43.4710  107.9800 O.co2 253  GLU253     -0.2457
@<TRIPOS>BOND
     1    73    72    1
     2    73    74    2
     3    72    71    1
     4    72    75    1
     5    76    75    1
     6    76    77    1
     7    81    79    1
     8     9     7   am
     9    79    80    1
    10    79    78    2
    11    78    77    1
    12     6     5    1
    13     6     7    1
    14     5     2    1
    15     7     8    2
    16     4     3    2
    17     3     2    1
    18     3    10   am
    19   142   140   ar
    20     2     1    1
    21    11    10    1
    22    11    12    1
    23   141   140   ar
    24    89    88    2
    25   140   139    1
    26   101   100    2
    27    69    68   ar
    28    88    90   am
    29    88    87    1
    30    13    12    2
    31    12    14   am
    32    82    83    1
    33    70    68   ar
    34    86    87    1
    35    86    83    1
    36   100    99    1
    37   117   116    1
    38    68    67    1
    39    83    84    1
    40    99    98    1
    41    66    65    2
    42   139   138    1
    43    14    15    1
    44    65    64    1
    45   116   115    1
    46   115   114    1
    47   138   135    1
    48    67    64    1
    49    84    85    2
    50    15    16    1
    51    15    18    1
    52    64    63    1
    53    32    31    1
    54   114   113    1
    55    20    16   am
    56    20    21    1
    57    16    17    2
    58    38    37    1
    59    45    44    1
    60   113   110    1
    61    18    19    1
    62   125   123   ar
    63    31    30    1
    64    39    37    1
    65   135   134    1
    66   135   136    1
    67    37    34    1
    68   121   120    2
    69    21    22    1
    70   134   132   am
    71    94    93    2
    72   120   119    1
    73   112   111    2
    74    93    92    1
    75   137   136    2
    76   123   124   ar
    77   123   122    1
    78   110   111    1
    79   110   109    1
    80    44    46    1
    81    44    41    1
    82    24    22   am
    83    24    25    1
    84    22    23    2
    85    33    34    1
    86    33    26   am
    87    34    35    1
    88    40    41    1
    89    40    35   am
    90    30    29    1
    91   132   131    1
    92   132   133    2
    93   107   106    1
    94   122   119    1
    95   131   130    1
    96    41    42    1
    97   119   118    1
    98    29    28    1
    99    28    25    1
   100    35    36    2
   101   109   104   am
   102    92    91    1
   103    92    95    1
   104   105   104    2
   105    25    26    1
   106   106   108    1
   107   106   103    1
   108   104   103    1
   109    26    27    2
   110    95    96    1
   111    95    97    1
   112   103   102    1
   113    42    47   am
   114    42    43    2
   115    47    48    1
   116    62    61    1
   117    61    60    1
   118    52    51    1
   119   129   128    2
   120    48    51    1
   121    48    49    1
   122   128   127    1
   123    51    53    1
   124    60    59    1
   125   127   126    1
   126    59    58    1
   127    49    50    2
   128    54    55    1
   129    58    55    1
   130    55    56    1
   131    56    57    2
