@<TRIPOS>MOLECULE
tmp/5l3sE01.pdb
 99 100 0 0 0
SMALL
GASTEIGER

@<TRIPOS>ATOM
      1  N          4.5440   42.9580  112.7680 N.3   112  ASP112     -0.1225
      2  CA         4.7000   43.7030  111.5110 C.3   112  ASP112      0.1805
      3  C          4.0110   42.8630  110.4410 C.2   112  ASP112      0.2598
      4  O          4.4470   41.7590  110.1590 O.2   112  ASP112     -0.2718
      5  CB         6.1930   43.8690  111.1940 C.3   112  ASP112      0.1424
      6  CG         6.4590   44.5200  109.8160 C.2   112  ASP112      0.3668
      7  OD1        5.5160   44.7390  109.0300 O.co2 112  ASP112     -0.2456
      8  OD2        7.6330   44.7970  109.5140 O.co2 112  ASP112     -0.2456
      9  N          2.9060   43.3570  109.8840 N.am  113  VAL113     -0.1966
     10  CA         2.2010   42.6070  108.8510 C.3   113  VAL113      0.1727
     11  C          2.4080   43.2020  107.4550 C.2   113  VAL113      0.2616
     12  O          1.8000   42.7400  106.4950 O.2   113  VAL113     -0.2715
     13  CB         0.6780   42.5480  109.1020 C.3   113  VAL113      0.0290
     14  CG1        0.3590   41.9670  110.4820 C.3   113  VAL113      0.0023
     15  CG2        0.0480   43.9370  108.9240 C.3   113  VAL113      0.0023
     16  N          3.2440   44.2290  107.3380 N.am  114  TYR114     -0.1960
     17  CA         3.4300   44.9310  106.0650 C.3   114  TYR114      0.1771
     18  C          4.6670   44.4810  105.2930 C.2   114  TYR114      0.2619
     19  O          4.5970   44.2040  104.0990 O.2   114  TYR114     -0.2715
     20  CB         3.4990   46.4450  106.3050 C.3   114  TYR114      0.0574
     21  CG         2.2400   47.0140  106.9150 C.ar  114  TYR114     -0.0198
     22  CD1        0.9960   46.7690  106.3410 C.ar  114  TYR114     -0.0009
     23  CD2        2.2890   47.7760  108.0730 C.ar  114  TYR114     -0.0009
     24  CE1       -0.1660   47.2820  106.9020 C.ar  114  TYR114      0.0417
     25  CE2        1.1280   48.3010  108.6460 C.ar  114  TYR114      0.0417
     26  CZ        -0.0930   48.0490  108.0540 C.ar  114  TYR114      0.1957
     27  OH        -1.2440   48.5640  108.6120 O.3   114  TYR114     -0.2866
     28  N          5.8100   44.4380  105.9760 N.am  115  ARG115     -0.1964
     29  CA         7.0740   44.0970  105.3190 C.3   115  ARG115      0.1714
     30  C          7.1160   42.6190  104.9160 C.2   115  ARG115      0.2458
     31  O          6.8340   41.7540  105.7400 O.2   115  ARG115     -0.2730
     32  CB         8.2530   44.4040  106.2380 C.3   115  ARG115      0.0347
     33  CG         9.6000   43.9320  105.7000 C.3   115  ARG115      0.0492
     34  CD        10.7220   44.1790  106.6970 C.3   115  ARG115      0.2205
     35  NE        11.9370   43.4610  106.3240 N.pl3 115  ARG115     -0.0865
     36  CZ        13.1130   44.0260  106.0910 C.cat 115  ARG115      0.5346
     37  NH1       13.2610   45.3470  106.1950 N.pl3 115  ARG115      0.1354
     38  NH2       14.1510   43.2670  105.7510 N.pl3 115  ARG115      0.1354
     39  N          7.4590   42.3270  103.6480 N.am  116  PRO116     -0.2716
     40  CA         7.5120   40.9230  103.2090 C.3   116  PRO116      0.1536
     41  C          8.5520   40.1250  103.9890 C.2   116  PRO116      0.2598
     42  O          9.6790   40.5970  104.1920 O.2   116  PRO116     -0.2715
     43  CB         7.8890   41.0190  101.7150 C.3   116  PRO116      0.0310
     44  CG         7.4830   42.4290  101.3050 C.3   116  PRO116      0.0237
     45  CD         7.7360   43.2720  102.5450 C.3   116  PRO116      0.0939
     46  N          8.1610   38.9330  104.4400 N.am  117  ALA117     -0.1964
     47  CA         9.0250   38.0720  105.2570 C.3   117  ALA117      0.1728
     48  C          9.4080   38.6640  106.6260 C.2   117  ALA117      0.2616
     49  O         10.4260   38.2700  107.2150 O.2   117  ALA117     -0.2715
     50  CB        10.2740   37.6560  104.4800 C.3   117  ALA117      0.0334
     51  N          8.5960   39.5980  107.1260 N.am  118  ALA118     -0.1963
     52  CA         8.8070   40.1800  108.4670 C.3   118  ALA118      0.1728
     53  C          8.7060   39.1120  109.5330 C.2   118  ALA118      0.2616
     54  O          9.5160   39.0600  110.4660 O.2   118  ALA118     -0.2715
     55  CB         7.7810   41.2690  108.7560 C.3   118  ALA118      0.0334
     56  N          7.6930   38.2640  109.4070 N.am  119  TYR119     -0.1960
     57  CA         7.5480   37.1680  110.3490 C.3   119  TYR119      0.1771
     58  C          8.7270   36.2010  110.2450 C.2   119  TYR119      0.2619
     59  O          9.2900   35.8110  111.2690 O.2   119  TYR119     -0.2715
     60  CB         6.2290   36.4230  110.1450 C.3   119  TYR119      0.0574
     61  CG         6.1460   35.1660  110.9750 C.ar  119  TYR119     -0.0198
     62  CD1        5.9570   35.2340  112.3550 C.ar  119  TYR119     -0.0009
     63  CD2        6.2820   33.9110  110.3840 C.ar  119  TYR119     -0.0009
     64  CE1        5.8900   34.0880  113.1140 C.ar  119  TYR119      0.0417
     65  CE2        6.2180   32.7600  111.1400 C.ar  119  TYR119      0.0417
     66  CZ         6.0240   32.8520  112.5010 C.ar  119  TYR119      0.1957
     67  OH         5.9520   31.6960  113.2500 O.3   119  TYR119     -0.2866
     68  N          9.1070   35.8340  109.0160 N.am  120  ASP120     -0.1971
     69  CA        10.2530   34.9510  108.7920 C.3   120  ASP120      0.1709
     70  C         11.5540   35.4780  109.4020 C.2   120  ASP120      0.2293
     71  O         12.3720   34.6990  109.9110 O.2   120  ASP120     -0.2864
     72  CB        10.4920   34.7180  107.2920 C.3   120  ASP120      0.1436
     73  CG         9.2140   34.4030  106.5290 C.2   120  ASP120      0.3671
     74  OD1        8.2450   35.1910  106.5960 O.co2 120  ASP120     -0.2456
     75  OD2        9.1810   33.3570  105.8690 O.co2 120  ASP120     -0.2456
     76  N          1.5300   34.9870  110.2780 N.3   137  PRO137     -0.2116
     77  CA         1.8570   35.4680  108.9320 C.3   137  PRO137      0.1372
     78  C          0.6270   35.6480  108.0350 C.2   137  PRO137      0.2244
     79  O          0.6550   36.5160  107.1710 O.2   137  PRO137     -0.2868
     80  CB         2.8020   34.3840  108.3800 C.3   137  PRO137      0.0268
     81  CG         2.6960   33.2290  109.3240 C.3   137  PRO137      0.0207
     82  CD         2.3430   33.8180  110.6520 C.3   137  PRO137      0.0892
     83  N         -2.2850   36.7830  108.9610 N.3   139  ASN139     -0.1225
     84  CA        -3.1640   37.7850  109.5640 C.3   139  ASN139      0.1785
     85  C         -2.7000   39.1990  109.1890 C.2   139  ASN139      0.2597
     86  O         -1.5020   39.5170  109.2450 O.2   139  ASN139     -0.2718
     87  CB        -3.1820   37.6090  111.0950 C.3   139  ASN139      0.1169
     88  CG        -4.3130   38.3750  111.7880 C.2   139  ASN139      0.2627
     89  OD1       -4.9060   39.2970  111.2330 O.2   139  ASN139     -0.2716
     90  ND2       -4.5940   37.9970  113.0340 N.am  139  ASN139     -0.0877
     91  N         -3.6460   40.0380  108.7900 N.am  140  GLN140     -0.1979
     92  CA        -3.3260   41.3990  108.3640 C.3   140  GLN140      0.1601
     93  C         -3.6830   42.4560  109.4040 C.2   140  GLN140      0.2287
     94  O         -3.6930   43.6450  109.1040 O.2   140  GLN140     -0.2864
     95  CB        -4.0040   41.7180  107.0320 C.3   140  GLN140      0.0394
     96  CG        -3.2930   41.1110  105.8290 C.3   140  GLN140      0.0908
     97  CD        -1.8580   41.6020  105.7060 C.2   140  GLN140      0.2608
     98  OE1       -1.6130   42.7900  105.4810 O.2   140  GLN140     -0.2717
     99  NE2       -0.9020   40.6920  105.8680 N.am  140  GLN140     -0.0878
@<TRIPOS>BOND
     1    44    43    1
     2    44    45    1
     3    43    40    1
     4    45    39    1
     5    40    39    1
     6    40    41    1
     7    39    30   am
     8    41    42    2
     9    41    46   am
    10    19    18    2
    11    46    47    1
    12    50    47    1
    13    30    29    1
    14    30    31    2
    15    47    48    1
    16    18    28   am
    17    18    17    1
    18    29    28    1
    19    29    32    1
    20    98    97    2
    21    33    32    1
    22    33    34    1
    23    97    96    1
    24    97    99   am
    25    38    36    1
    26    96    95    1
    27    75    73   ar
    28    17    20    1
    29    17    16    1
    30    36    37    1
    31    36    35    2
    32    20    21    1
    33    35    34    1
    34    22    24   ar
    35    22    21   ar
    36    12    11    2
    37    73    74   ar
    38    73    72    1
    39    48    51   am
    40    48    49    2
    41    24    26   ar
    42    21    23   ar
    43    95    92    1
    44    51    52    1
    45    79    78    2
    46    72    69    1
    47    16    11   am
    48    11    10    1
    49    78    77    1
    50    26    27    1
    51    26    25   ar
    52    23    25   ar
    53    92    91    1
    54    92    93    1
    55    80    77    1
    56    80    81    1
    57    52    55    1
    58    52    53    1
    59    91    85   am
    60    69    68    1
    61    69    70    1
    62    10    13    1
    63    10     9    1
    64    15    13    1
    65    77    76    1
    66    83    84    1
    67    68    58   am
    68     7     6   ar
    69    13    14    1
    70    94    93    2
    71    85    86    2
    72    85    84    1
    73    81    82    1
    74    70    71    2
    75    56    53   am
    76    56    57    1
    77     8     6   ar
    78    53    54    2
    79    84    87    1
    80     6     5    1
    81     9     3   am
    82    60    57    1
    83    60    61    1
    84     4     3    2
    85    58    57    1
    86    58    59    2
    87    76    82    1
    88    63    61   ar
    89    63    65   ar
    90     3     2    1
    91    61    62   ar
    92    87    88    1
    93    65    66   ar
    94     5     2    1
    95    89    88    2
    96     2     1    1
    97    88    90   am
    98    62    64   ar
    99    66    64   ar
   100    66    67    1
