@<TRIPOS>MOLECULE
tmp/5l3uA00.pdb
 191 187 0 0 0
SMALL
GASTEIGER

@<TRIPOS>ATOM
      1  N         13.9550   46.7670    1.1030 N.3   111  ASN111     -0.1225
      2  CA        12.7480   45.9790    1.3570 C.3   111  ASN111      0.1785
      3  C         12.4840   44.9650    0.2350 C.2   111  ASN111      0.2597
      4  O         11.4040   44.9320   -0.3590 O.2   111  ASN111     -0.2718
      5  CB        11.5560   46.9240    1.5280 C.3   111  ASN111      0.1169
      6  CG        11.5530   47.6320    2.8680 C.2   111  ASN111      0.2627
      7  OD1       11.8970   47.0670    3.9030 O.2   111  ASN111     -0.2716
      8  ND2       11.1130   48.8750    2.8550 N.am  111  ASN111     -0.0877
      9  N         13.4630   44.1040   -0.0330 N.am  112  ASN112     -0.1960
     10  CA        13.2870   43.1160   -1.0940 C.3   112  ASN112      0.1819
     11  C         14.4180   42.1000   -1.0070 C.2   112  ASN112      0.2621
     12  O         15.3790   42.2490   -0.2390 O.2   112  ASN112     -0.2715
     13  CB        13.2580   43.7870   -2.4710 C.3   112  ASN112      0.1195
     14  CG        12.3130   43.1070   -3.4620 C.2   112  ASN112      0.2630
     15  OD1       11.8610   41.9790   -3.2690 O.2   112  ASN112     -0.2716
     16  ND2       12.0060   43.8080   -4.5390 N.am  112  ASN112     -0.0877
     17  N         14.2760   41.0640   -1.8250 N.am  113  ALA113     -0.1963
     18  CA        15.2790   40.0320   -2.0480 C.3   113  ALA113      0.1728
     19  C         15.1330   39.6010   -3.4950 C.2   113  ALA113      0.2616
     20  O         14.0480   39.7330   -4.0680 O.2   113  ALA113     -0.2715
     21  CB        15.0870   38.8390   -1.1070 C.3   113  ALA113      0.0334
     22  N         16.2040   39.0780   -4.0980 N.am  114  PHE114     -0.1960
     23  CA        16.1240   38.7250   -5.5140 C.3   114  PHE114      0.1771
     24  C         17.2420   37.7690   -5.8930 C.2   114  PHE114      0.2620
     25  O         18.2700   37.6860   -5.2280 O.2   114  PHE114     -0.2715
     26  CB        16.1360   39.9630   -6.4270 C.3   114  PHE114      0.0574
     27  CG        17.3460   40.8690   -6.2930 C.ar  114  PHE114     -0.0200
     28  CD1       17.3910   41.8310   -5.2950 C.ar  114  PHE114     -0.0042
     29  CD2       18.3970   40.8180   -7.2010 C.ar  114  PHE114     -0.0042
     30  CE1       18.4630   42.7120   -5.2040 C.ar  114  PHE114     -0.0003
     31  CE2       19.4720   41.7010   -7.0970 C.ar  114  PHE114     -0.0003
     32  CZ        19.4990   42.6350   -6.1050 C.ar  114  PHE114     -0.0000
     33  N         17.0270   37.0810   -7.0100 N.am  115  TRP115     -0.1960
     34  CA        18.0590   36.3630   -7.7450 C.3   115  TRP115      0.1771
     35  C         18.5030   37.2810   -8.8750 C.2   115  TRP115      0.2620
     36  O         17.6640   37.7920   -9.6130 O.2   115  TRP115     -0.2715
     37  CB        17.4680   35.0610   -8.2930 C.3   115  TRP115      0.0590
     38  CG        18.3770   34.2960   -9.2180 C.ar  115  TRP115      0.0006
     39  CD1       18.3520   34.3160  -10.5670 C.ar  115  TRP115      0.0946
     40  CD2       19.4550   33.4240   -8.8490 C.ar  115  TRP115      0.0152
     41  NE1       19.3530   33.5020  -11.0750 N.ar  115  TRP115     -0.2442
     42  CE2       20.0400   32.9410  -10.0330 C.ar  115  TRP115      0.0810
     43  CE3       19.9600   32.9730   -7.6280 C.ar  115  TRP115      0.0012
     44  CZ2       21.1110   32.0260  -10.0210 C.ar  115  TRP115      0.0191
     45  CZ3       21.0010   32.0690   -7.6170 C.ar  115  TRP115      0.0001
     46  CH2       21.5710   31.6220   -8.8000 C.ar  115  TRP115      0.0015
     47  N         19.8100   37.5390   -8.9940 N.am  116  ASN116     -0.1958
     48  CA        20.2990   38.5430   -9.9450 C.3   116  ASN116      0.1819
     49  C         20.7760   37.9460  -11.2630 C.2   116  ASN116      0.2621
     50  O         21.4210   38.6570  -12.0470 O.2   116  ASN116     -0.2715
     51  CB        21.3970   39.4130   -9.3360 C.3   116  ASN116      0.1195
     52  CG        22.7380   38.7390   -9.3410 C.2   116  ASN116      0.2630
     53  OD1       22.8330   37.5080   -9.4320 O.2   116  ASN116     -0.2716
     54  ND2       23.7850   39.5390   -9.2050 N.am  116  ASN116     -0.0877
     55  N         20.4430   36.6800  -11.5280 N.am  117  GLY117     -0.1954
     56  CA        20.9440   35.9290  -12.6630 C.3   117  GLY117      0.1869
     57  C         22.0510   34.9620  -12.3020 C.2   117  GLY117      0.2309
     58  O         22.3260   34.0340  -13.0730 O.2   117  GLY117     -0.2863
     59  N          9.8590   45.3020    6.3510 N.3   130  PHE130     -0.1241
     60  CA        10.5410   44.0220    6.5060 C.3   130  PHE130      0.1605
     61  C         11.6340   44.1420    7.5540 C.2   130  PHE130      0.2264
     62  O         12.2240   45.2110    7.7370 O.2   130  PHE130     -0.2867
     63  CB        11.2470   43.5660    5.2130 C.3   130  PHE130      0.0534
     64  CG        10.3330   43.0510    4.1270 C.ar  130  PHE130     -0.0203
     65  CD1        9.7810   41.8010    4.2200 C.ar  130  PHE130     -0.0042
     66  CD2       10.0900   43.7910    2.9770 C.ar  130  PHE130     -0.0042
     67  CE1        8.9630   41.3010    3.2140 C.ar  130  PHE130     -0.0003
     68  CE2        9.2790   43.3050    1.9790 C.ar  130  PHE130     -0.0003
     69  CZ         8.7220   42.0500    2.0950 C.ar  130  PHE130     -0.0000
     70  N         15.4660   39.7780    5.2190 N.3   133  LEU133     -0.1245
     71  CA        14.5050   38.9340    4.5170 C.3   133  LEU133      0.1561
     72  C         14.9000   37.4640    4.5030 C.2   133  LEU133      0.2260
     73  O         14.0310   36.6030    4.3110 O.2   133  LEU133     -0.2867
     74  CB        14.2170   39.4610    3.1060 C.3   133  LEU133      0.0270
     75  CG        13.2920   40.6980    3.0430 C.3   133  LEU133      0.0019
     76  CD1       14.0240   41.9980    3.2820 C.3   133  LEU133      0.0001
     77  CD2       12.5460   40.7290    1.7540 C.3   133  LEU133      0.0001
     78  N         10.9030   32.7030    1.8700 N.3   139  VAL139     -0.1245
     79  CA        11.5880   33.7190    1.0650 C.3   139  VAL139      0.1561
     80  C         12.8520   33.1480    0.4340 C.2   139  VAL139      0.2260
     81  O         13.0850   33.3070   -0.7740 O.2   139  VAL139     -0.2867
     82  CB        11.9060   34.9670    1.9100 C.3   139  VAL139      0.0252
     83  CG1       12.7140   35.9850    1.0840 C.3   139  VAL139      0.0019
     84  CG2       10.6230   35.6020    2.4630 C.3   139  VAL139      0.0019
     85  N         11.9010   30.7600   -2.1820 N.3   142  HIS142     -0.1226
     86  CA        11.3740   31.5290   -3.3110 C.3   142  HIS142      0.1752
     87  C         12.5110   32.0300   -4.1990 C.2   142  HIS142      0.2595
     88  O         12.4590   31.9130   -5.4330 O.2   142  HIS142     -0.2718
     89  CB        10.5350   32.6960   -2.7430 C.3   142  HIS142      0.0759
     90  CG         9.9550   33.6380   -3.7750 C.ar  142  HIS142      0.0818
     91  ND1        8.6030   33.7320   -4.0410 N.ar  142  HIS142     -0.2268
     92  CD2       10.5510   34.5420   -4.5960 C.ar  142  HIS142      0.1154
     93  CE1        8.4000   34.6240   -4.9980 C.ar  142  HIS142      0.1986
     94  NE2        9.5630   35.1410   -5.3520 N.ar  142  HIS142     -0.2212
     95  N         13.5550   32.5920   -3.5820 N.am  143  GLU143     -0.1979
     96  CA        14.6700   33.1250   -4.3630 C.3   143  GLU143      0.1602
     97  C         15.4310   32.0300   -5.0960 C.2   143  GLU143      0.2287
     98  O         15.7370   32.1810   -6.2840 O.2   143  GLU143     -0.2864
     99  CB        15.6160   33.9440   -3.4950 C.3   143  GLU143      0.0415
    100  CG        14.9770   35.0810   -2.6930 C.3   143  GLU143      0.1163
    101  CD        14.0370   35.9590   -3.4740 C.2   143  GLU143      0.3649
    102  OE1       14.2690   36.1120   -4.6910 O.co2 143  GLU143     -0.2457
    103  OE2       13.0240   36.4480   -2.8930 O.co2 143  GLU143     -0.2457
    104  N         13.7290   30.8320   -8.2070 N.3   146  HIS146     -0.1241
    105  CA        13.9190   31.6100   -9.4330 C.3   146  HIS146      0.1621
    106  C         15.0820   31.0620  -10.2590 C.2   146  HIS146      0.2264
    107  O         15.0070   31.0260  -11.4940 O.2   146  HIS146     -0.2867
    108  CB        14.1310   33.0960   -9.1120 C.3   146  HIS146      0.0745
    109  CG        12.8670   33.8540   -8.8300 C.ar  146  HIS146      0.0817
    110  ND1       11.8380   33.9220   -9.7390 N.ar  146  HIS146     -0.2268
    111  CD2       12.4810   34.6170   -7.7710 C.ar  146  HIS146      0.1154
    112  CE1       10.8680   34.6780   -9.2430 C.ar  146  HIS146      0.1986
    113  NE2       11.2280   35.1220   -8.0480 N.ar  146  HIS146     -0.2212
    114  N         10.1210   37.1830  -17.4580 N.3   157  TYR157     -0.1241
    115  CA         9.6300   37.8290  -16.2350 C.3   157  TYR157      0.1605
    116  C          8.7040   39.0120  -16.5310 C.2   157  TYR157      0.2264
    117  O          8.9320   40.1390  -16.1000 O.2   157  TYR157     -0.2867
    118  CB        10.7910   38.2280  -15.3400 C.3   157  TYR157      0.0534
    119  CG        10.4360   38.3930  -13.8750 C.ar  157  TYR157     -0.0201
    120  CD1        9.9580   37.3160  -13.1310 C.ar  157  TYR157     -0.0009
    121  CD2       10.5890   39.6020  -13.2310 C.ar  157  TYR157     -0.0009
    122  CE1        9.6630   37.4440  -11.7940 C.ar  157  TYR157      0.0417
    123  CE2       10.3100   39.7410  -11.8830 C.ar  157  TYR157      0.0417
    124  CZ         9.8460   38.6580  -11.1670 C.ar  157  TYR157      0.1957
    125  OH         9.5800   38.8360   -9.8270 O.3   157  TYR157     -0.2866
    126  N          6.5660   33.7380  -10.8590 N.3   166  GLU166     -0.1245
    127  CA         6.3430   34.1120   -9.4630 C.3   166  GLU166      0.1567
    128  C          5.6280   33.0190   -8.6790 C.2   166  GLU166      0.2260
    129  O          6.0230   32.6940   -7.5510 O.2   166  GLU166     -0.2867
    130  CB         5.5620   35.4280   -9.3940 C.3   166  GLU166      0.0388
    131  CG         6.4460   36.6460   -9.3720 C.3   166  GLU166      0.1160
    132  CD         7.4230   36.5550   -8.2190 C.2   166  GLU166      0.3649
    133  OE1        6.9670   36.3960   -7.0590 O.co2 166  GLU166     -0.2457
    134  OE2        8.6590   36.6090   -8.4750 O.co2 166  GLU166     -0.2457
    135  N          2.9540   33.8570    2.3900 N.3   188  ILE188     -0.1231
    136  CA         4.3030   34.1690    1.9040 C.3   188  ILE188      0.1692
    137  C          4.9010   35.2990    2.7260 C.2   188  ILE188      0.2592
    138  O          4.3710   36.4150    2.7480 O.2   188  ILE188     -0.2718
    139  CB         4.3210   34.5400    0.4140 C.3   188  ILE188      0.0266
    140  CG1        3.6500   33.4550   -0.4300 C.3   188  ILE188      0.0019
    141  CG2        5.7570   34.8390   -0.0210 C.3   188  ILE188      0.0020
    142  CD1        4.3110   32.0990   -0.3850 C.3   188  ILE188      0.0001
    143  N          6.0420   35.0190    3.3570 N.am  189  GLY189     -0.1957
    144  CA         6.8530   36.0570    3.9740 C.3   189  GLY189      0.1869
    145  C          6.4450   36.4870    5.3630 C.2   189  GLY189      0.2309
    146  O          7.0120   37.4500    5.8930 O.2   189  GLY189     -0.2863
    147  N          2.9410   38.9950    3.1540 N.3   202  LEU202     -0.1231
    148  CA         3.0870   39.7090    1.8970 C.3   202  LEU202      0.1693
    149  C          2.0540   39.2450    0.8720 C.2   202  LEU202      0.2591
    150  O          1.4640   40.0630    0.1520 O.2   202  LEU202     -0.2718
    151  CB         4.5100   39.5020    1.3810 C.3   202  LEU202      0.0284
    152  CG         4.8330   40.1430    0.0410 C.3   202  LEU202      0.0019
    153  CD1        4.7610   41.6630    0.1670 C.3   202  LEU202      0.0001
    154  CD2        6.2150   39.7360   -0.3940 C.3   202  LEU202      0.0001
    155  N          1.8730   37.9300    0.7570 N.am  203  ARG203     -0.1980
    156  CA         0.8510   37.3190   -0.0810 C.3   203  ARG203      0.1597
    157  C          0.2470   36.1520    0.6820 C.2   203  ARG203      0.2287
    158  O          0.8450   35.6230    1.6240 O.2   203  ARG203     -0.2864
    159  CB         1.4110   36.7500   -1.3970 C.3   203  ARG203      0.0334
    160  CG         1.8550   37.8010   -2.3890 C.3   203  ARG203      0.0492
    161  CD         2.4870   37.1820   -3.6300 C.3   203  ARG203      0.2205
    162  NE         3.7970   36.5930   -3.4130 N.pl3 203  ARG203     -0.0865
    163  CZ         4.9350   37.2680   -3.4680 C.cat 203  ARG203      0.5346
    164  NH1        6.0850   36.6240   -3.4150 N.pl3 203  ARG203      0.1354
    165  NH2        4.9340   38.5940   -3.5730 N.pl3 203  ARG203      0.1354
    166  N          4.7630   46.6250  -12.1580 N.3   226  ASP226     -0.1225
    167  CA         5.2280   45.3390  -11.6360 C.3   226  ASP226      0.1805
    168  C          5.4350   44.3360  -12.7680 C.2   226  ASP226      0.2597
    169  O          5.0600   43.1660  -12.6790 O.2   226  ASP226     -0.2718
    170  CB         4.2550   44.8150  -10.5710 C.3   226  ASP226      0.1424
    171  CG         4.7160   43.5320   -9.8830 C.2   226  ASP226      0.3668
    172  OD1        5.9470   43.3380   -9.6530 O.co2 226  ASP226     -0.2456
    173  OD2        3.8220   42.7270   -9.5400 O.co2 226  ASP226     -0.2456
    174  N          6.0120   44.7990  -13.8780 N.am  227  ASN227     -0.1974
    175  CA         6.2830   43.9280  -15.0280 C.3   227  ASN227      0.1688
    176  C          5.0030   43.2720  -15.5520 C.2   227  ASN227      0.2292
    177  O          4.9960   42.1070  -15.9610 O.2   227  ASN227     -0.2864
    178  CB         7.3480   42.8730  -14.7060 C.3   227  ASN227      0.1181
    179  CG         8.7220   43.4690  -14.5610 C.2   227  ASN227      0.2629
    180  OD1        9.3830   43.3450  -13.5270 O.2   227  ASN227     -0.2716
    181  ND2        9.1650   44.1190  -15.6120 N.am  227  ASN227     -0.0877
    182  N          3.7390   39.9090   -9.4820 N.3   231  HIS231     -0.1241
    183  CA         3.4920   39.6110   -8.0690 C.3   231  HIS231      0.1621
    184  C          2.0210   39.7540   -7.6850 C.2   231  HIS231      0.2264
    185  O          1.6790   39.5900   -6.5070 O.2   231  HIS231     -0.2867
    186  CB         4.3430   40.5120   -7.1570 C.3   231  HIS231      0.0745
    187  CG         5.8220   40.3510   -7.3380 C.ar  231  HIS231      0.0817
    188  ND1        6.5750   41.1780   -8.1450 N.ar  231  HIS231     -0.2268
    189  CD2        6.6920   39.4770   -6.7860 C.ar  231  HIS231      0.1154
    190  CE1        7.8400   40.8030   -8.1060 C.ar  231  HIS231      0.1986
    191  NE2        7.9350   39.7680   -7.2910 N.ar  231  HIS231     -0.2212
@<TRIPOS>BOND
     1   114   115    1
     2   116   115    1
     3   116   117    2
     4   115   118    1
     5   177   176    2
     6   181   179   am
     7   176   175    1
     8   118   119    1
     9   175   178    1
    10   175   174    1
    11   178   179    1
    12   179   180    2
    13   174   168   am
    14   119   121   ar
    15   119   120   ar
    16   121   123   ar
    17   120   122   ar
    18    58    57    2
    19   168   169    2
    20   168   167    1
    21    56    57    1
    22    56    55    1
    23   166   167    1
    24    50    49    2
    25   123   124   ar
    26   122   124   ar
    27   167   170    1
    28    55    49   am
    29   107   106    2
    30    49    48    1
    31   124   125    1
    32    41    39   ar
    33    41    42   ar
    34   126   127    1
    35   170   171    1
    36    39    38   ar
    37   106   105    1
    38    42    44   ar
    39    42    40   ar
    40    44    46   ar
    41    48    51    1
    42    48    47    1
    43   171   172   ar
    44   171   173   ar
    45   110   112   ar
    46   110   109   ar
    47    36    35    2
    48   182   183    1
    49   127   130    1
    50   127   128    1
    51   105   108    1
    52   105   104    1
    53    53    52    2
    54   130   131    1
    55   131   132    1
    56    52    51    1
    57    52    54   am
    58   112   113   ar
    59    38    40   ar
    60    38    37    1
    61   108   109    1
    62    47    35   am
    63    35    34    1
    64    40    43   ar
    65   109   111   ar
    66    46    45   ar
    67   128   129    2
    68   134   132   ar
    69    37    34    1
    70   132   133   ar
    71   188   190   ar
    72   188   187   ar
    73   190   191   ar
    74   183   184    1
    75   183   186    1
    76   113   111   ar
    77    34    33    1
    78   184   185    2
    79    43    45   ar
    80   187   186    1
    81   187   189   ar
    82   191   189   ar
    83    29    31   ar
    84    29    27   ar
    85    31    32   ar
    86    33    24   am
    87    26    27    1
    88    26    23    1
    89    27    28   ar
    90    98    97    2
    91    32    30   ar
    92    24    23    1
    93    24    25    2
    94    23    22    1
    95    88    87    2
    96    94    93   ar
    97    94    92   ar
    98    28    30   ar
    99    97    96    1
   100    93    91   ar
   101   102   101   ar
   102    92    90   ar
   103    16    14   am
   104    96    95    1
   105    96    99    1
   106    87    95   am
   107    87    86    1
   108    22    19   am
   109    20    19    2
   110    91    90   ar
   111    90    89    1
   112   161   162    1
   113   161   160    1
   114   165   163    1
   115    19    18    1
   116    99   100    1
   117   101   103   ar
   118   101   100    1
   119   163   164    1
   120   163   162    2
   121    14    15    2
   122    14    13    1
   123    86    89    1
   124    86    85    1
   125    13    10    1
   126   160   159    1
   127    18    17    1
   128    18    21    1
   129    17    11   am
   130   159   156    1
   131    10    11    1
   132    10     9    1
   133    11    12    2
   134    81    80    2
   135   140   142    1
   136   140   139    1
   137   154   152    1
   138     4     3    2
   139   156   157    1
   140   156   155    1
   141     9     3   am
   142   141   139    1
   143   152   153    1
   144   152   151    1
   145   150   149    2
   146     3     2    1
   147   139   136    1
   148    80    79    1
   149   157   158    2
   150   155   149   am
   151   149   148    1
   152    79    78    1
   153    79    82    1
   154    83    82    1
   155     1     2    1
   156     2     5    1
   157   151   148    1
   158     5     6    1
   159    77    75    1
   160   148   147    1
   161   136   135    1
   162   136   137    1
   163    82    84    1
   164    68    69   ar
   165    68    66   ar
   166    69    67   ar
   167   137   138    2
   168   137   143   am
   169     8     6   am
   170     6     7    2
   171    66    64   ar
   172    75    74    1
   173    75    76    1
   174    74    71    1
   175    67    65   ar
   176   143   144    1
   177   144   145    1
   178    64    65   ar
   179    64    63    1
   180    73    72    2
   181    72    71    1
   182    71    70    1
   183    63    60    1
   184   145   146    2
   185    59    60    1
   186    60    61    1
   187    61    62    2
