@<TRIPOS>MOLECULE
tmp/5l3vB00.pdb
 135 126 0 0 0
SMALL
GASTEIGER

@<TRIPOS>ATOM
      1  N         -1.3040  109.6250   62.9040 N.3   104  GLN104     -0.1231
      2  CA        -1.6940  110.6050   63.9010 C.3   104  GLN104      0.1698
      3  C         -1.0040  110.3840   65.2390 C.2   104  GLN104      0.2593
      4  O         -0.9560  109.2700   65.7600 O.2   104  GLN104     -0.2718
      5  CB        -3.2050  110.5950   64.0520 C.3   104  GLN104      0.0381
      6  CG        -3.8750  111.2240   62.8380 C.3   104  GLN104      0.0905
      7  CD        -3.6230  112.7270   62.7360 C.2   104  GLN104      0.2608
      8  OE1       -2.8280  113.1870   61.9110 O.2   104  GLN104     -0.2717
      9  NE2       -4.3100  113.4970   63.5750 N.am  104  GLN104     -0.0878
     10  N         -0.4440  111.4660   65.7690 N.am  105  GLY105     -0.1942
     11  CA         0.1660  111.4530   67.0830 C.3   105  GLY105      0.2014
     12  C          1.6460  111.1480   67.0480 C.2   105  GLY105      0.2640
     13  O          2.2910  111.0390   68.0960 O.2   105  GLY105     -0.2714
     14  N          2.1990  111.0410   65.8460 N.am  106  SER106     -0.1935
     15  CA         3.6220  110.7620   65.7090 C.3   106  SER106      0.2055
     16  C          4.4490  112.0420   65.8500 C.2   106  SER106      0.2644
     17  O          5.6800  111.9900   65.9630 O.2   106  SER106     -0.2714
     18  CB         3.9160  110.0440   64.3900 C.3   106  SER106      0.2130
     19  OG         3.3320  110.7230   63.2980 O.3   106  SER106     -0.2179
     20  N          3.7590  113.1820   65.8840 N.am  107  GLY107     -0.1939
     21  CA         4.3960  114.4780   66.0680 C.3   107  GLY107      0.2014
     22  C          4.5400  115.3660   64.8380 C.2   107  GLY107      0.2639
     23  O          5.4410  116.2050   64.7940 O.2   107  GLY107     -0.2714
     24  N          3.6660  115.1880   63.8470 N.am  108  LYS108     -0.1963
     25  CA         3.7180  115.9690   62.6090 C.3   108  LYS108      0.1728
     26  C          3.5530  117.4970   62.8120 C.2   108  LYS108      0.2617
     27  O          4.3070  118.2990   62.2590 O.2   108  LYS108     -0.2715
     28  CB         2.6280  115.5030   61.6450 C.3   108  LYS108      0.0311
     29  CG         2.8770  114.1890   60.9580 C.3   108  LYS108      0.0038
     30  CD         1.8670  114.0050   59.8360 C.3   108  LYS108      0.0206
     31  CE         0.4530  114.2000   60.3530 C.3   108  LYS108      0.1093
     32  NZ        -0.0470  113.1030   61.2170 N.3   108  LYS108     -0.1314
     33  N          2.5470  117.9020   63.5690 N.am  109  THR109     -0.1937
     34  CA         2.2730  119.3350   63.7280 C.3   109  THR109      0.2028
     35  C          3.4500  120.0300   64.4120 C.2   109  THR109      0.2643
     36  O          3.9160  121.0710   63.9540 O.2   109  THR109     -0.2714
     37  CB         0.9650  119.5730   64.5190 C.3   109  THR109      0.1808
     38  OG1       -0.1260  118.9650   63.8120 O.3   109  THR109     -0.2208
     39  CG2        0.6880  121.0800   64.7040 C.3   109  THR109      0.0379
     40  N          3.9530  119.4200   65.4790 N.am  110  THR110     -0.1936
     41  CA         5.0880  119.9510   66.2120 C.3   110  THR110      0.2028
     42  C          6.2900  120.0900   65.3130 C.2   110  THR110      0.2642
     43  O          6.9540  121.1270   65.2930 O.2   110  THR110     -0.2714
     44  CB         5.4520  119.0030   67.3600 C.3   110  THR110      0.1808
     45  OG1        4.3390  118.9050   68.2550 O.3   110  THR110     -0.2208
     46  CG2        6.6600  119.5140   68.1140 C.3   110  THR110      0.0379
     47  N          6.5470  119.0360   64.5460 N.am  111  THR111     -0.1950
     48  CA         7.6950  118.9840   63.6430 C.3   111  THR111      0.1897
     49  C          7.5630  120.0090   62.4980 C.2   111  THR111      0.2313
     50  O          8.5630  120.5740   62.0370 O.2   111  THR111     -0.2863
     51  CB         7.8560  117.5590   63.0800 C.3   111  THR111      0.1794
     52  OG1        8.1370  116.6630   64.1640 O.3   111  THR111     -0.2208
     53  CG2        8.9770  117.4900   62.0570 C.3   111  THR111      0.0378
     54  N          8.8080  123.1150   64.0930 N.3   114  LYS114     -0.1245
     55  CA        10.2490  123.0200   64.2700 C.3   114  LYS114      0.1561
     56  C         10.9960  123.2210   62.9560 C.2   114  LYS114      0.2260
     57  O         12.0280  123.8890   62.9170 O.2   114  LYS114     -0.2867
     58  CB        10.6050  121.6530   64.8400 C.3   114  LYS114      0.0271
     59  CG        10.1360  121.4330   66.2680 C.3   114  LYS114      0.0035
     60  CD        10.4400  120.0060   66.6700 C.3   114  LYS114      0.0206
     61  CE        10.4640  119.7830   68.1710 C.3   114  LYS114      0.1093
     62  NZ        11.0750  118.4330   68.4240 N.3   114  LYS114     -0.1314
     63  N         -4.2890  119.2020   57.9420 N.3   132  ASP132     -0.1239
     64  CA        -4.6920  118.0330   58.7090 C.3   132  ASP132      0.1674
     65  C         -6.1290  118.2470   59.1720 C.2   132  ASP132      0.2266
     66  O         -6.3640  118.8610   60.2050 O.2   132  ASP132     -0.2867
     67  CB        -3.7440  117.8300   59.9070 C.3   132  ASP132      0.1410
     68  CG        -4.0910  116.5840   60.7540 C.2   132  ASP132      0.3668
     69  OD1       -5.2480  116.1210   60.7280 O.co2 132  ASP132     -0.2456
     70  OD2       -3.1890  116.0420   61.4340 O.co2 132  ASP132     -0.2456
     71  N         -7.5970  115.7680   62.6750 N.3   135  ARG135     -0.1245
     72  CA        -7.4750  116.1940   64.0580 C.3   135  ARG135      0.1563
     73  C         -7.9870  117.6130   64.1740 C.2   135  ARG135      0.2260
     74  O         -7.4300  118.5230   63.5700 O.2   135  ARG135     -0.2867
     75  CB        -6.0370  116.1180   64.5490 C.3   135  ARG135      0.0307
     76  CG        -5.8950  116.6150   65.9730 C.3   135  ARG135      0.0489
     77  CD        -4.8040  115.8610   66.6920 C.3   135  ARG135      0.2205
     78  NE        -3.4760  116.2260   66.2260 N.pl3 135  ARG135     -0.0865
     79  CZ        -2.8540  117.3430   66.5840 C.cat 135  ARG135      0.5346
     80  NH1       -3.4500  118.1950   67.4140 N.pl3 135  ARG135      0.1354
     81  NH2       -1.6380  117.6040   66.1200 N.pl3 135  ARG135      0.1354
     82  N         -3.4710  124.6020   66.7710 N.3   141  GLN141     -0.1245
     83  CA        -2.1890  124.1890   67.3170 C.3   141  GLN141      0.1566
     84  C         -1.0160  124.6730   66.4380 C.2   141  GLN141      0.2260
     85  O         -0.0290  125.2210   66.9310 O.2   141  GLN141     -0.2867
     86  CB        -2.1740  122.6640   67.4460 C.3   141  GLN141      0.0367
     87  CG        -0.9510  122.1030   68.1160 C.3   141  GLN141      0.0905
     88  CD        -0.8180  120.6060   67.8930 C.2   141  GLN141      0.2608
     89  OE1       -1.7120  119.9700   67.3170 O.2   141  GLN141     -0.2717
     90  NE2        0.2900  120.0280   68.3700 N.am  141  GLN141     -0.0878
     91  N         10.8910  111.4830   65.6600 N.3   244  THR244     -0.1203
     92  CA        10.6070  112.3720   66.7790 C.3   244  THR244      0.1994
     93  C         10.7020  111.6390   68.1050 C.2   244  THR244      0.2617
     94  O         10.6950  110.4030   68.1410 O.2   244  THR244     -0.2717
     95  CB         9.1970  112.9410   66.6710 C.3   244  THR244      0.1784
     96  OG1        8.2480  111.8760   66.7880 O.3   244  THR244     -0.2211
     97  CG2        9.0030  113.6600   65.3400 C.3   244  THR244      0.0376
     98  N         10.8040  112.4090   69.1870 N.am  245  LYS245     -0.1979
     99  CA        10.7840  111.8820   70.5450 C.3   245  LYS245      0.1596
    100  C         11.9700  110.9780   70.8010 C.2   245  LYS245      0.2287
    101  O         11.8410  109.9400   71.4360 O.2   245  LYS245     -0.2864
    102  CB         9.4810  111.1280   70.8310 C.3   245  LYS245      0.0298
    103  CG         8.2000  111.9060   70.5300 C.3   245  LYS245      0.0038
    104  CD         6.9980  111.1300   71.0560 C.3   245  LYS245      0.0206
    105  CE         5.7000  111.9170   70.9720 C.3   245  LYS245      0.1093
    106  NZ         5.0570  111.8260   69.6340 N.3   245  LYS245     -0.1314
    107  N         13.9960  111.6590   72.7650 N.3   247  ASP247     -0.1225
    108  CA        14.3100  111.9880   74.1560 C.3   247  ASP247      0.1805
    109  C         13.2790  111.4230   75.1280 C.2   247  ASP247      0.2598
    110  O         13.5080  111.4150   76.3380 O.2   247  ASP247     -0.2718
    111  CB        14.3120  113.5030   74.3280 C.3   247  ASP247      0.1424
    112  CG        12.9890  114.1160   73.9360 C.2   247  ASP247      0.3668
    113  OD1       12.6970  114.1630   72.7150 O.co2 247  ASP247     -0.2456
    114  OD2       12.2330  114.5230   74.8490 O.co2 247  ASP247     -0.2456
    115  N         12.1560  110.9360   74.6040 N.am  248  GLY248     -0.1957
    116  CA        11.0590  110.4800   75.4480 C.3   248  GLY248      0.1869
    117  C         10.7620  108.9840   75.4600 C.2   248  GLY248      0.2309
    118  O          9.6470  108.5830   75.8080 O.2   248  GLY248     -0.2863
    119  N         13.8930  114.8160   66.2070 N.3   270  GLY270     -0.1225
    120  CA        13.2750  115.6310   67.2270 C.3   270  GLY270      0.1811
    121  C         13.7620  115.2180   68.6060 C.2   270  GLY270      0.2280
    122  O         13.7780  114.0320   68.9550 O.2   270  GLY270     -0.2866
    123  N         12.7610  116.8660   71.6780 N.3   272  GLY272     -0.1210
    124  CA        11.9890  117.4750   72.7470 C.3   272  GLY272      0.1956
    125  C         10.7490  118.2300   72.2900 C.2   272  GLY272      0.2611
    126  O         10.4120  118.2540   71.1140 O.2   272  GLY272     -0.2717
    127  N         10.0700  118.8650   73.2320 N.am  273  GLU273     -0.1979
    128  CA         8.7780  119.4650   72.9500 C.3   273  GLU273      0.1602
    129  C          8.8730  120.9060   72.4520 C.2   273  GLU273      0.2287
    130  O          7.9120  121.4180   71.8990 O.2   273  GLU273     -0.2864
    131  CB         7.8830  119.4110   74.1940 C.3   273  GLU273      0.0415
    132  CG         7.4650  118.0170   74.6100 C.3   273  GLU273      0.1163
    133  CD         6.4470  118.0390   75.7360 C.2   273  GLU273      0.3649
    134  OE1        6.8440  118.3430   76.8810 O.co2 273  GLU273     -0.2457
    135  OE2        5.2530  117.7670   75.4770 O.co2 273  GLU273     -0.2457
@<TRIPOS>BOND
     1    63    64    1
     2    64    65    1
     3    64    67    1
     4    65    66    2
     5    30    31    1
     6    30    29    1
     7    67    68    1
     8    31    32    1
     9    69    68   ar
    10    68    70   ar
    11    29    28    1
    12    28    25    1
    13     8     7    2
    14    50    49    2
    15    53    51    1
    16    27    26    2
    17    49    48    1
    18    25    26    1
    19    25    24    1
    20    71    72    1
    21     7     6    1
    22     7     9   am
    23    26    33   am
    24     6     5    1
    25     1     2    1
    26    57    56    2
    27    56    55    1
    28    51    48    1
    29    51    52    1
    30    19    18    1
    31    33    34    1
    32    74    73    2
    33    48    47    1
    34    34    35    1
    35    34    37    1
    36    38    37    1
    37    24    22   am
    38     2     5    1
    39     2     3    1
    40    36    35    2
    41    72    73    1
    42    72    75    1
    43    54    55    1
    44    55    58    1
    45    18    15    1
    46    35    40   am
    47    37    39    1
    48    47    42   am
    49    75    76    1
    50    23    22    2
    51    22    21    1
    52    58    59    1
    53     3     4    2
    54     3    10   am
    55    43    42    2
    56    42    41    1
    57    97    95    1
    58    40    41    1
    59    91    92    1
    60    15    14    1
    61    15    16    1
    62    10    11    1
    63    14    12   am
    64    16    20   am
    65    16    17    2
    66    20    21    1
    67    76    77    1
    68    81    79    1
    69   119   120    1
    70    41    44    1
    71    78    79    2
    72    78    77    1
    73    59    60    1
    74    84    85    2
    75    84    83    1
    76    79    80    1
    77    60    61    1
    78    95    92    1
    79    95    96    1
    80    82    83    1
    81    92    93    1
    82    12    11    1
    83    12    13    2
    84   120   121    1
    85    83    86    1
    86    89    88    2
    87    44    46    1
    88    44    45    1
    89    86    87    1
    90    88    87    1
    91    88    90   am
    92    93    94    2
    93    93    98   am
    94    61    62    1
    95   121   122    2
    96    98    99    1
    97   106   105    1
    98   103   102    1
    99   103   104    1
   100    99   100    1
   101    99   102    1
   102   100   101    2
   103   105   104    1
   104   126   125    2
   105   123   124    1
   106   130   129    2
   107   125   124    1
   108   125   127   am
   109   129   128    1
   110   113   112   ar
   111   107   108    1
   112   128   127    1
   113   128   131    1
   114   112   111    1
   115   112   114   ar
   116   108   111    1
   117   108   109    1
   118   131   132    1
   119   115   109   am
   120   115   116    1
   121   132   133    1
   122   109   110    2
   123   116   117    1
   124   117   118    2
   125   135   133   ar
   126   133   134   ar
