@<TRIPOS>MOLECULE
tmp/5l3wA00.pdb
 135 127 0 0 0
SMALL
GASTEIGER

@<TRIPOS>ATOM
      1  N         84.1900   92.1840    5.1290 N.3   110  VAL110     -0.1231
      2  CA        83.5020   91.4170    6.1590 C.3   110  VAL110      0.1692
      3  C         82.7480   92.3720    7.0770 C.2   110  VAL110      0.2592
      4  O         82.7770   93.5900    6.8710 O.2   110  VAL110     -0.2718
      5  CB        84.5060   90.5330    6.9240 C.3   110  VAL110      0.0266
      6  CG1       85.2590   89.6260    5.9240 C.3   110  VAL110      0.0020
      7  CG2       85.4890   91.3900    7.7170 C.3   110  VAL110      0.0020
      8  N         82.0560   91.8240    8.0820 N.am  111  ASN111     -0.1960
      9  CA        81.2580   92.6130    9.0200 C.3   111  ASN111      0.1819
     10  C         82.1370   93.4460    9.9370 C.2   111  ASN111      0.2622
     11  O         83.2500   93.0480   10.2890 O.2   111  ASN111     -0.2715
     12  CB        80.3940   91.7060    9.9010 C.3   111  ASN111      0.1195
     13  CG        79.2350   91.1340    9.1670 C.2   111  ASN111      0.2630
     14  OD1       78.8640   91.6400    8.1110 O.2   111  ASN111     -0.2716
     15  ND2       78.6360   90.0770    9.7120 N.am  111  ASN111     -0.0877
     16  N         81.5970   94.5860   10.3770 N.am  112  GLY112     -0.1940
     17  CA        82.2650   95.4030   11.3780 C.3   112  GLY112      0.2014
     18  C         83.5500   96.0470   10.9060 C.2   112  GLY112      0.2639
     19  O         84.2930   96.6010   11.7130 O.2   112  GLY112     -0.2714
     20  N         83.8380   95.9710    9.6150 N.am  113  VAL113     -0.1963
     21  CA        85.0380   96.5600    9.0520 C.3   113  VAL113      0.1727
     22  C         84.8010   98.0060    8.6450 C.2   113  VAL113      0.2617
     23  O         85.7640   98.7280    8.3390 O.2   113  VAL113     -0.2715
     24  CB        85.4880   95.6450    7.8950 C.3   113  VAL113      0.0290
     25  CG1       85.2730   96.2920    6.5410 C.3   113  VAL113      0.0023
     26  CG2       86.8870   95.1840    8.1090 C.3   113  VAL113      0.0023
     27  N         83.5570   98.4630    8.6870 N.am  114  GLY114     -0.1940
     28  CA        83.1980   99.7890    8.2570 C.3   114  GLY114      0.2014
     29  C         82.6580   99.8980    6.8490 C.2   114  GLY114      0.2639
     30  O         82.7010  100.9860    6.2950 O.2   114  GLY114     -0.2714
     31  N         82.1190   98.8240    6.2620 N.am  115  LYS115     -0.1963
     32  CA        81.7960   98.8720    4.8340 C.3   115  LYS115      0.1728
     33  C         80.6120   99.7990    4.5470 C.2   115  LYS115      0.2617
     34  O         80.6780  100.6400    3.6430 O.2   115  LYS115     -0.2715
     35  CB        81.5490   97.4600    4.2940 C.3   115  LYS115      0.0311
     36  CG        80.8050   97.4090    2.9580 C.3   115  LYS115      0.0038
     37  CD        81.2930   96.2710    2.0430 C.3   115  LYS115      0.0206
     38  CE        81.0220   94.8870    2.6370 C.3   115  LYS115      0.1093
     39  NZ        79.6100   94.7240    3.0700 N.3   115  LYS115     -0.1314
     40  N         79.5210   99.6800    5.3060 N.am  116  THR116     -0.1937
     41  CA        78.3650  100.5180    4.9990 C.3   116  THR116      0.2028
     42  C         78.6460  101.9930    5.2950 C.2   116  THR116      0.2643
     43  O         78.0880  102.8780    4.6310 O.2   116  THR116     -0.2714
     44  CB        77.1260  100.0190    5.7540 C.3   116  THR116      0.1808
     45  OG1       77.4210   99.8660    7.1450 O.3   116  THR116     -0.2208
     46  CG2       76.6830   98.6800    5.2070 C.3   116  THR116      0.0379
     47  N         79.5310  102.2740    6.2590 N.am  117  THR117     -0.1936
     48  CA        79.8610  103.6550    6.5930 C.3   117  THR117      0.2028
     49  C         80.6950  104.3240    5.5010 C.2   117  THR117      0.2642
     50  O         80.4930  105.5080    5.2040 O.2   117  THR117     -0.2714
     51  CB        80.6100  103.7080    7.9300 C.3   117  THR117      0.1808
     52  OG1       79.8820  102.9690    8.9200 O.3   117  THR117     -0.2208
     53  CG2       80.7850  105.1460    8.3890 C.3   117  THR117      0.0379
     54  N         81.6700  103.6110    4.9150 N.am  118  THR118     -0.1950
     55  CA        82.4730  104.2930    3.9020 C.3   118  THR118      0.1897
     56  C         81.7810  104.3150    2.5480 C.2   118  THR118      0.2313
     57  O         82.1460  105.1370    1.7100 O.2   118  THR118     -0.2863
     58  CB        83.9150  103.7230    3.7930 C.3   118  THR118      0.1794
     59  OG1       84.2410  103.3090    2.4520 O.3   118  THR118     -0.2208
     60  CG2       84.1690  102.6100    4.7220 C.3   118  THR118      0.0378
     61  N         80.3460  107.5380    2.9910 N.3   121  LYS121     -0.1245
     62  CA        81.3910  108.5240    2.7420 C.3   121  LYS121      0.1561
     63  C         81.6500  108.6790    1.2450 C.2   121  LYS121      0.2260
     64  O         81.8360  109.7950    0.7510 O.2   121  LYS121     -0.2867
     65  CB        82.6720  108.1300    3.4770 C.3   121  LYS121      0.0271
     66  CG        82.6170  108.2420    4.9910 C.3   121  LYS121      0.0035
     67  CD        83.7550  107.4280    5.6250 C.3   121  LYS121      0.0206
     68  CE        84.0650  107.8870    7.0260 C.3   121  LYS121      0.1093
     69  NZ        85.3260  107.3030    7.5550 N.3   121  LYS121     -0.1314
     70  N         71.6380   90.1460    5.5380 N.3   142  ARG142     -0.1245
     71  CA        72.0060   90.8600    6.7630 C.3   142  ARG142      0.1563
     72  C         71.0650   92.0500    6.8860 C.2   142  ARG142      0.2260
     73  O         71.3530   93.1530    6.4170 O.2   142  ARG142     -0.2867
     74  CB        73.4680   91.2950    6.7400 C.3   142  ARG142      0.0307
     75  CG        73.9980   91.7210    8.1010 C.3   142  ARG142      0.0489
     76  CD        75.4700   92.1390    8.0600 C.3   142  ARG142      0.2205
     77  NE        75.6610   93.4900    7.5270 N.pl3 142  ARG142     -0.0865
     78  CZ        76.5620   94.3610    7.9820 C.cat 142  ARG142      0.5346
     79  NH1       77.3610   94.0370    8.9930 N.pl3 142  ARG142      0.1354
     80  NH2       76.6660   95.5640    7.4320 N.pl3 142  ARG142      0.1354
     81  N         71.1900  100.2630    8.1300 N.3   148  GLN148     -0.1245
     82  CA        72.2560  101.2650    8.1210 C.3   148  GLN148      0.1566
     83  C         72.2620  102.0690    6.8210 C.2   148  GLN148      0.2260
     84  O         72.2350  103.3070    6.8440 O.2   148  GLN148     -0.2867
     85  CB        73.6110  100.5910    8.3610 C.3   148  GLN148      0.0367
     86  CG        73.6990   99.8820    9.7110 C.3   148  GLN148      0.0905
     87  CD        75.1270   99.5890   10.1570 C.2   148  GLN148      0.2608
     88  OE1       76.0060   99.2580    9.3450 O.2   148  GLN148     -0.2717
     89  NE2       75.3630   99.7090   11.4580 N.am  148  GLN148     -0.0878
     90  N         89.8940  101.6860    6.6220 N.3   249  THR249     -0.1203
     91  CA        89.0780  102.4170    7.5740 C.3   249  THR249      0.1994
     92  C         89.8090  102.4680    8.9010 C.2   249  THR249      0.2617
     93  O         90.7590  101.7160    9.1310 O.2   249  THR249     -0.2717
     94  CB        87.7150  101.7540    7.7560 C.3   249  THR249      0.1784
     95  OG1       87.8970  100.5020    8.4280 O.3   249  THR249     -0.2211
     96  CG2       87.0880  101.4900    6.3950 C.3   249  THR249      0.0376
     97  N         89.3550  103.3800    9.7660 N.am  250  LYS250     -0.1979
     98  CA        89.8380  103.5350   11.1300 C.3   250  LYS250      0.1596
     99  C         91.3060  103.9400   11.1940 C.2   250  LYS250      0.2287
    100  O         91.9720  103.7100   12.2140 O.2   250  LYS250     -0.2864
    101  CB        89.5970  102.2530   11.9410 C.3   250  LYS250      0.0298
    102  CG        88.1250  101.9210   12.1060 C.3   250  LYS250      0.0038
    103  CD        87.9060  100.5210   12.6250 C.3   250  LYS250      0.0206
    104  CE        86.4290  100.1630   12.5350 C.3   250  LYS250      0.1093
    105  NZ        86.2260   98.7060   12.3230 N.3   250  LYS250     -0.1314
    106  N         92.3540  106.7980   11.6120 N.3   252  ASP252     -0.1225
    107  CA        92.4560  107.7620   12.7130 C.3   252  ASP252      0.1805
    108  C         92.7460  107.0970   14.0590 C.2   252  ASP252      0.2597
    109  O         93.2830  107.7500   14.9620 O.2   252  ASP252     -0.2718
    110  CB        91.1690  108.5720   12.8200 C.3   252  ASP252      0.1424
    111  CG        89.9420  107.6770   12.9740 C.2   252  ASP252      0.3668
    112  OD1       89.6460  106.9230   12.0150 O.co2 252  ASP252     -0.2456
    113  OD2       89.2940  107.7080   14.0490 O.co2 252  ASP252     -0.2456
    114  N         92.3980  105.8230   14.2260 N.am  253  ALA253     -0.1979
    115  CA        92.6750  105.1500   15.4870 C.3   253  ALA253      0.1597
    116  C         94.1090  104.6630   15.5940 C.2   253  ALA253      0.2287
    117  O         94.4610  104.0730   16.6170 O.2   253  ALA253     -0.2864
    118  CB        91.7270  103.9690   15.6820 C.3   253  ALA253      0.0319
    119  N         89.5220  106.0040    5.6070 N.3   275  GLY275     -0.1225
    120  CA        88.5640  106.5100    6.5760 C.3   275  GLY275      0.1811
    121  C         89.3080  106.9890    7.8110 C.2   275  GLY275      0.2280
    122  O         90.1870  106.2940    8.3320 O.2   275  GLY275     -0.2866
    123  N         87.5290  108.5940   10.5480 N.3   277  GLY277     -0.1210
    124  CA        86.5250  108.9810   11.5190 C.3   277  GLY277      0.1956
    125  C         85.1680  108.4030   11.1590 C.2   277  GLY277      0.2611
    126  O         85.0360  107.6060   10.2320 O.2   277  GLY277     -0.2717
    127  N         84.1570  108.8410   11.9120 N.am  278  GLN278     -0.1979
    128  CA        82.8100  108.3040   11.7770 C.3   278  GLN278      0.1601
    129  C         81.8770  109.1980   10.9820 C.2   278  GLN278      0.2287
    130  O         80.7320  108.8040   10.7370 O.2   278  GLN278     -0.2864
    131  CB        82.1800  108.0710   13.1560 C.3   278  GLN278      0.0394
    132  CG        82.9500  107.1440   14.0530 C.3   278  GLN278      0.0908
    133  CD        82.1900  106.8350   15.3110 C.2   278  GLN278      0.2608
    134  OE1       82.1750  107.6290   16.2560 O.2   278  GLN278     -0.2717
    135  NE2       81.5250  105.6880   15.3260 N.am  278  GLN278     -0.0878
@<TRIPOS>BOND
     1    64    63    2
     2    63    62    1
     3    57    56    2
     4    37    38    1
     5    37    36    1
     6    59    58    1
     7    56    55    1
     8    38    39    1
     9    62    61    1
    10    62    65    1
    11    36    35    1
    12    65    66    1
    13    34    33    2
    14    58    55    1
    15    58    60    1
    16    55    54    1
    17    35    32    1
    18    33    32    1
    19    33    40   am
    20    43    42    2
    21    32    31    1
    22    54    49   am
    23    66    67    1
    24    41    42    1
    25    41    40    1
    26    41    44    1
    27     1     2    1
    28    50    49    2
    29    46    44    1
    30    42    47   am
    31    49    48    1
    32    70    71    1
    33   119   120    1
    34    67    68    1
    35    44    45    1
    36     6     5    1
    37     2     5    1
    38     2     3    1
    39    47    48    1
    40    31    29   am
    41    30    29    2
    42    96    94    1
    43    73    72    2
    44    25    24    1
    45   120   121    1
    46    48    51    1
    47    90    91    1
    48    74    71    1
    49    74    75    1
    50    71    72    1
    51    83    84    2
    52    83    82    1
    53    29    28    1
    54     4     3    2
    55     5     7    1
    56    68    69    1
    57     3     8   am
    58    80    78    1
    59    77    78    2
    60    77    76    1
    61    91    94    1
    62    91    92    1
    63    94    95    1
    64   121   122    2
    65    24    26    1
    66    24    21    1
    67    51    53    1
    68    51    52    1
    69    78    79    1
    70    76    75    1
    71     8     9    1
    72    14    13    2
    73    82    81    1
    74    82    85    1
    75    28    27    1
    76    23    22    2
    77    85    86    1
    78    22    27   am
    79    22    21    1
    80    92    93    2
    81    92    97   am
    82     9    12    1
    83     9    10    1
    84    21    20    1
    85    13    15   am
    86    13    12    1
    87    88    87    2
    88    20    18   am
    89    86    87    1
    90    97    98    1
    91    10    11    2
    92    10    16   am
    93    87    89   am
    94   126   125    2
    95    16    17    1
    96   123   124    1
    97   130   129    2
    98    18    17    1
    99    18    19    2
   100   129   128    1
   101    98    99    1
   102    98   101    1
   103   125   124    1
   104   125   127   am
   105    99   100    2
   106   106   107    1
   107   128   127    1
   108   128   131    1
   109   101   102    1
   110   112   111   ar
   111   102   103    1
   112   105   104    1
   113   104   103    1
   114   107   110    1
   115   107   108    1
   116   110   111    1
   117   111   113   ar
   118   131   132    1
   119   132   133    1
   120   108   114   am
   121   108   109    2
   122   114   115    1
   123   133   135   am
   124   133   134    2
   125   115   116    1
   126   115   118    1
   127   116   117    2
