@<TRIPOS>MOLECULE
tmp/5l3zA00.pdb
 214 207 0 0 0
SMALL
GASTEIGER

@<TRIPOS>ATOM
      1  N         39.4850    3.8360    5.3480 N.3     6  THR6       -0.1203
      2  CA        40.7800    3.7740    4.6680 C.3     6  THR6        0.1994
      3  C         41.4770    2.4730    5.0590 C.2     6  THR6        0.2618
      4  O         41.2570    1.9150    6.1600 O.2     6  THR6       -0.2717
      5  CB        41.7000    4.9650    4.9840 C.3     6  THR6        0.1784
      6  OG1       42.0690    4.9420    6.3640 O.3     6  THR6       -0.2211
      7  CG2       41.0430    6.2660    4.6630 C.3     6  THR6        0.0376
      8  N         42.3090    1.9790    4.1490 N.am    7  GLY7       -0.1956
      9  CA        43.0440    0.7310    4.3830 C.3     7  GLY7        0.1869
     10  C         42.1250   -0.4420    4.6410 C.2     7  GLY7        0.2309
     11  O         42.3970   -1.2710    5.5110 O.2     7  GLY7       -0.2863
     12  N         41.6770   -3.1200    3.1020 N.3     9  ARG9       -0.1231
     13  CA        42.3360   -4.4210    2.9270 C.3     9  ARG9        0.1694
     14  C         43.3430   -4.7350    4.0330 C.2     9  ARG9        0.2593
     15  O         43.8910   -5.8240    4.0570 O.2     9  ARG9       -0.2718
     16  CB        43.0210   -4.4800    1.5510 C.3     9  ARG9        0.0321
     17  CG        42.0230   -4.3590    0.4110 C.3     9  ARG9        0.0489
     18  CD        42.6740   -4.1060   -0.9340 C.3     9  ARG9        0.2205
     19  NE        43.4360   -5.2480   -1.4280 N.pl3   9  ARG9       -0.0865
     20  CZ        44.7750   -5.3530   -1.4620 C.cat   9  ARG9        0.5346
     21  NH1       45.5610   -4.3800   -1.0030 N.pl3   9  ARG9        0.1354
     22  NH2       45.3400   -6.4600   -1.9650 N.pl3   9  ARG9        0.1354
     23  N         43.5960   -3.7830    4.9330 N.am   10  GLY10      -0.1942
     24  CA        44.5170   -3.9860    6.0430 C.3    10  GLY10       0.2014
     25  C         43.9170   -4.8840    7.1150 C.2    10  GLY10       0.2640
     26  O         42.7430   -5.2180    7.0710 O.2    10  GLY10      -0.2714
     27  N         44.7630   -5.3130    8.0390 N.am   11  SER11      -0.1935
     28  CA        44.3790   -6.1750    9.1740 C.3    11  SER11       0.2055
     29  C         43.2450   -5.5410    9.9920 C.2    11  SER11       0.2642
     30  O         42.2330   -6.1800   10.2580 O.2    11  SER11      -0.2714
     31  CB        45.6180   -6.4430   10.0450 C.3    11  SER11       0.2130
     32  OG        45.2940   -7.0330   11.2840 O.3    11  SER11      -0.2179
     33  N         43.4070   -4.2740   10.3550 N.am   12  ILE12      -0.1977
     34  CA        42.4210   -3.6000   11.2030 C.3    12  ILE12       0.1596
     35  C         41.2870   -3.0440   10.3480 C.2    12  ILE12       0.2287
     36  O         40.0980   -3.2850   10.6420 O.2    12  ILE12      -0.2864
     37  CB        43.0880   -2.5530   12.1220 C.3    12  ILE12       0.0276
     38  CG1       43.9220   -3.2930   13.1720 C.3    12  ILE12       0.0022
     39  CG2       42.0260   -1.6740   12.8130 C.3    12  ILE12       0.0022
     40  CD1       45.0030   -2.4640   13.8300 C.3    12  ILE12       0.0001
     41  N         38.4550    2.0080    1.3270 N.3    30  GLY30      -0.1210
     42  CA        39.5350    2.7060    0.6570 C.3    30  GLY30       0.1956
     43  C         40.6830    1.7770    0.3390 C.2    30  GLY30       0.2612
     44  O         41.1310    1.0280    1.2040 O.2    30  GLY30      -0.2717
     45  N         41.1560    1.8260   -0.9020 N.am   31  VAL31      -0.1965
     46  CA        42.2780    1.0090   -1.3470 C.3    31  VAL31       0.1727
     47  C         43.2170    1.8790   -2.1580 C.2    31  VAL31       0.2616
     48  O         42.7830    2.8690   -2.7600 O.2    31  VAL31      -0.2715
     49  CB        41.8070   -0.1880   -2.2090 C.3    31  VAL31       0.0290
     50  CG1       40.9800   -1.1360   -1.3790 C.3    31  VAL31       0.0023
     51  CG2       41.0060    0.2480   -3.4400 C.3    31  VAL31       0.0023
     52  N         44.4920    1.5180   -2.2040 N.am   32  ARG32      -0.1963
     53  CA        45.4320    2.2230   -3.0720 C.3    32  ARG32       0.1729
     54  C         45.2860    1.7860   -4.5180 C.2    32  ARG32       0.2616
     55  O         45.4830    2.6000   -5.4200 O.2    32  ARG32      -0.2715
     56  CB        46.8700    2.0980   -2.5700 C.3    32  ARG32       0.0348
     57  CG        47.0960    2.9780   -1.3450 C.3    32  ARG32       0.0492
     58  CD        48.5360    3.0210   -0.8830 C.3    32  ARG32       0.2205
     59  NE        48.8760    1.8790   -0.0400 N.pl3  32  ARG32      -0.0865
     60  CZ        50.0600    1.6990    0.5490 C.cat  32  ARG32       0.5346
     61  NH1       51.0430    2.5890    0.4000 N.pl3  32  ARG32       0.1354
     62  NH2       50.2620    0.6160    1.2960 N.pl3  32  ARG32       0.1354
     63  N         44.9040    0.5230   -4.7270 N.am   33  ASP33      -0.1971
     64  CA        44.7560   -0.0640   -6.0630 C.3    33  ASP33       0.1709
     65  C         43.4210   -0.8000   -6.1680 C.2    33  ASP33       0.2293
     66  O         43.1820   -1.7480   -5.4280 O.2    33  ASP33      -0.2864
     67  CB        45.9020   -1.0580   -6.3240 C.3    33  ASP33       0.1436
     68  CG        46.0860   -1.4260   -7.7780 C.2    33  ASP33       0.3671
     69  OD1       45.4240   -0.9090   -8.6640 O.co2  33  ASP33      -0.2456
     70  OD2       47.0190   -2.1720   -8.0800 O.co2  33  ASP33      -0.2456
     71  N         41.5480    5.5050   -2.4990 N.3    48  ALA48      -0.1231
     72  CA        41.7470    6.4890   -1.4620 C.3    48  ALA48       0.1694
     73  C         43.1470    6.3230   -0.9500 C.2    48  ALA48       0.2592
     74  O         43.3790    5.6310    0.0260 O.2    48  ALA48      -0.2718
     75  CB        40.7270    6.3040   -0.3420 C.3    48  ALA48       0.0304
     76  N         44.0860    6.9310   -1.6460 N.am   49  ASP49      -0.1960
     77  CA        45.4770    6.8500   -1.2720 C.3    49  ASP49       0.1840
     78  C         45.7520    8.0800   -0.4300 C.2    49  ASP49       0.2622
     79  O         45.7220    9.1970   -0.9310 O.2    49  ASP49      -0.2715
     80  CB        46.3710    6.7980   -2.5190 C.3    49  ASP49       0.1450
     81  CG        47.8340    6.5610   -2.1840 C.2    49  ASP49       0.3671
     82  OD1       48.6200    6.2660   -3.0950 O.co2  49  ASP49      -0.2456
     83  OD2       48.2120    6.6650   -1.0050 O.co2  49  ASP49      -0.2456
     84  N         46.0470    7.8520    0.8500 N.am   50  LEU50      -0.1963
     85  CA        46.3610    8.9230    1.7930 C.3    50  LEU50       0.1728
     86  C         47.6430    9.7020    1.4780 C.2    50  LEU50       0.2616
     87  O         47.8200   10.7850    2.0280 O.2    50  LEU50      -0.2715
     88  CB        46.4270    8.3650    3.2230 C.3    50  LEU50       0.0311
     89  CG        45.0930    7.8170    3.7390 C.3    50  LEU50       0.0022
     90  CD1       45.2900    6.9820    4.9990 C.3    50  LEU50       0.0001
     91  CD2       44.1070    8.9600    3.9790 C.3    50  LEU50       0.0001
     92  N         48.5130    9.1760    0.5980 N.am   51  THR51      -0.1951
     93  CA        49.7440    9.8650    0.1660 C.3    51  THR51       0.1897
     94  C         49.5150   10.7220   -1.0630 C.2    51  THR51       0.2313
     95  O         50.3500   11.5770   -1.3730 O.2    51  THR51      -0.2863
     96  CB        50.9090    8.8930   -0.1810 C.3    51  THR51       0.1794
     97  OG1       50.4890    7.9300   -1.1590 O.3    51  THR51      -0.2208
     98  CG2       51.4410    8.1820    1.0710 C.3    51  THR51       0.0378
     99  N         44.0060    5.4970    8.9680 N.3    69  TYR69      -0.1227
    100  CA        45.3440    5.0280    9.3500 C.3    69  TYR69       0.1736
    101  C         46.3140    6.2270    9.4000 C.2    69  TYR69       0.2596
    102  O         46.1260    7.2200    8.6900 O.2    69  TYR69      -0.2718
    103  CB        45.8890    4.0290    8.3040 C.3    69  TYR69       0.0548
    104  CG        45.4690    2.5950    8.4360 C.ar   69  TYR69      -0.0200
    105  CD1       46.2470    1.6830    9.1680 C.ar   69  TYR69      -0.0009
    106  CD2       44.3470    2.1010    7.7590 C.ar   69  TYR69      -0.0009
    107  CE1       45.8990    0.3400    9.2600 C.ar   69  TYR69       0.0417
    108  CE2       43.9890    0.7500    7.8530 C.ar   69  TYR69       0.0417
    109  CZ        44.7670   -0.1280    8.6060 C.ar   69  TYR69       0.1957
    110  OH        44.4190   -1.4670    8.6620 O.3    69  TYR69      -0.2866
    111  N         47.3790    6.1070   10.1860 N.am   70  THR70      -0.1939
    112  CA        48.3550    7.1970   10.3350 C.3    70  THR70       0.2028
    113  C         49.3210    7.2830    9.1380 C.2    70  THR70       0.2642
    114  O         50.1530    6.4070    8.9570 O.2    70  THR70      -0.2714
    115  CB        49.1230    7.0760   11.6710 C.3    70  THR70       0.1808
    116  OG1       48.2230    7.4080   12.7430 O.3    70  THR70      -0.2208
    117  CG2       50.3330    8.0390   11.7300 C.3    70  THR70       0.0379
    118  N         49.1900    8.3390    8.3290 N.am   71  VAL71      -0.1977
    119  CA        50.0810    8.5800    7.1700 C.3    71  VAL71       0.1596
    120  C         50.4960   10.0570    7.1670 C.2    71  VAL71       0.2287
    121  O         49.8140   10.8990    6.5630 O.2    71  VAL71      -0.2864
    122  CB        49.4140    8.1750    5.8530 C.3    71  VAL71       0.0276
    123  CG1       50.3540    8.4320    4.6790 C.3    71  VAL71       0.0022
    124  CG2       49.0130    6.7000    5.9120 C.3    71  VAL71       0.0022
    125  N         43.5270    5.6260   13.8630 N.3    93  LEU93      -0.1231
    126  CA        44.3400    4.5720   14.4340 C.3    93  LEU93       0.1693
    127  C         45.7230    5.1620   14.6780 C.2    93  LEU93       0.2593
    128  O         46.5130    5.3300   13.7470 O.2    93  LEU93      -0.2718
    129  CB        44.4250    3.3370   13.5360 C.3    93  LEU93       0.0284
    130  CG        45.3500    2.2350   14.0970 C.3    93  LEU93       0.0019
    131  CD1       44.8970    1.7330   15.4700 C.3    93  LEU93       0.0001
    132  CD2       45.4990    1.0780   13.1120 C.3    93  LEU93       0.0001
    133  N         45.9800    5.4850   15.9390 N.am   94  SER94      -0.1938
    134  CA        47.2030    6.1360   16.3780 C.3    94  SER94       0.2055
    135  C         48.0890    5.1220   17.1200 C.2    94  SER94       0.2643
    136  O         48.1440    3.9790   16.7240 O.2    94  SER94      -0.2714
    137  CB        46.8200    7.3290   17.2600 C.3    94  SER94       0.2130
    138  OG        47.9520    8.0470   17.6940 O.3    94  SER94      -0.2179
    139  N         48.7610    5.5410   18.1890 N.am   95  SER95      -0.1949
    140  CA        49.6310    4.6680   18.9810 C.3    95  SER95       0.1924
    141  C         49.7050    5.1710   20.4140 C.2    95  SER95       0.2314
    142  O         49.6880    6.3830   20.6680 O.2    95  SER95      -0.2863
    143  CB        51.0460    4.6680   18.3930 C.3    95  SER95       0.2116
    144  OG        51.9710    3.9560   19.1970 O.3    95  SER95      -0.2180
    145  N         58.4450    6.8920   16.5330 N.3   108  ILE108     -0.1245
    146  CA        57.1020    6.3130   16.4570 C.3   108  ILE108      0.1561
    147  C         56.1030    7.3120   17.0380 C.2   108  ILE108      0.2260
    148  O         55.0550    7.5740   16.4420 O.2   108  ILE108     -0.2867
    149  CB        57.0390    4.9450   17.2030 C.3   108  ILE108      0.0252
    150  CG1       58.0750    3.9620   16.6310 C.3   108  ILE108      0.0019
    151  CG2       55.6450    4.3340   17.1450 C.3   108  ILE108      0.0019
    152  CD1       58.0290    3.8080   15.1250 C.3   108  ILE108      0.0001
    153  N         55.7710   10.2890   14.6700 N.3   111  MET111     -0.1230
    154  CA        55.0120    9.9400   13.4680 C.3   111  MET111      0.1702
    155  C         53.4980   10.0580   13.7100 C.2   111  MET111      0.2592
    156  O         52.7640   10.5600   12.8620 O.2   111  MET111     -0.2718
    157  CB        55.3790    8.5210   13.0140 C.3   111  MET111      0.0401
    158  CG        54.5540    7.9660   11.8500 C.3   111  MET111      0.0596
    159  SD        54.7610    6.1850   11.5940 S.3   111  MET111     -0.1393
    160  CE        53.8420    5.9890   10.0630 C.3   111  MET111      0.0692
    161  N         53.0410    9.6030   14.8740 N.am  112  HIS112     -0.1976
    162  CA        51.6200    9.6250   15.1990 C.3   112  HIS112      0.1656
    163  C         51.1540   10.9960   15.6550 C.2   112  HIS112      0.2291
    164  O         50.0380   11.4100   15.3130 O.2   112  HIS112     -0.2864
    165  CB        51.2910    8.5140   16.2090 C.3   112  HIS112      0.0771
    166  CG        51.4140    7.1450   15.6120 C.ar  112  HIS112      0.0820
    167  ND1       52.5800    6.4150   15.6540 N.ar  112  HIS112     -0.2267
    168  CD2       50.5390    6.4100   14.8920 C.ar  112  HIS112      0.1154
    169  CE1       52.4080    5.2710   15.0130 C.ar  112  HIS112      0.1986
    170  NE2       51.1750    5.2390   14.5500 N.ar  112  HIS112     -0.2212
    171  N         46.6150    2.0310   20.5340 N.3   131  PRO131     -0.2102
    172  CA        47.0420    0.7250   21.0560 C.3   131  PRO131      0.1504
    173  C         48.5020    0.6850   21.4530 C.2   131  PRO131      0.2576
    174  O         49.3190    1.4260   20.9130 O.2   131  PRO131     -0.2718
    175  CB        46.8510   -0.2270   19.8720 C.3   131  PRO131      0.0282
    176  CG        46.7730    0.6260   18.6550 C.3   131  PRO131      0.0208
    177  CD        46.3890    2.0150   19.0690 C.3   131  PRO131      0.0893
    178  N         48.8040   -0.2050   22.3860 N.am  132  GLU132     -0.1966
    179  CA        50.1710   -0.5990   22.6980 C.3   132  GLU132      0.1733
    180  C         50.5430   -1.6840   21.6560 C.2   132  GLU132      0.2616
    181  O         50.0500   -1.6270   20.5190 O.2   132  GLU132     -0.2715
    182  CB        50.2530   -1.0600   24.1610 C.3   132  GLU132      0.0429
    183  CG        51.6400   -0.9180   24.8050 C.3   132  GLU132      0.1163
    184  CD        52.1770   -2.2280   25.3680 C.2   132  GLU132      0.3649
    185  OE1       51.9830   -3.2630   24.7050 O.co2 132  GLU132     -0.2457
    186  OE2       52.7860   -2.2380   26.4530 O.co2 132  GLU132     -0.2457
    187  N         51.3850   -2.6640   21.9820 N.am  133  ALA133     -0.1963
    188  CA        51.8830   -3.5860   20.9540 C.3   133  ALA133      0.1728
    189  C         50.7560   -4.4010   20.3540 C.2   133  ALA133      0.2616
    190  O         49.8850   -4.9010   21.0750 O.2   133  ALA133     -0.2715
    191  CB        52.9560   -4.5070   21.5140 C.3   133  ALA133      0.0334
    192  N         50.7550   -4.5140   19.0400 N.am  134  LEU134     -0.1977
    193  CA        49.7770   -5.3310   18.3410 C.3   134  LEU134      0.1596
    194  C         50.1560   -6.7850   18.4970 C.2   134  LEU134      0.2287
    195  O         51.3300   -7.1510   18.2990 O.2   134  LEU134     -0.2864
    196  CB        49.7290   -4.9990   16.8640 C.3   134  LEU134      0.0297
    197  CG        49.2910   -3.6020   16.5010 C.3   134  LEU134      0.0022
    198  CD1       49.4770   -3.3940   15.0050 C.3   134  LEU134      0.0001
    199  CD2       47.8480   -3.3660   16.9340 C.3   134  LEU134      0.0001
    200  N         49.4010   -8.9920   16.4560 N.3   136  THR136     -0.1203
    201  CA        49.8620   -9.3880   15.1280 C.3   136  THR136      0.1994
    202  C         51.3810   -9.2370   14.9420 C.2   136  THR136      0.2617
    203  O         51.9180   -9.8370   14.0180 O.2   136  THR136     -0.2717
    204  CB        49.1400   -8.6450   13.9840 C.3   136  THR136      0.1784
    205  OG1       49.1720   -7.2270   14.2270 O.3   136  THR136     -0.2211
    206  CG2       47.7070   -9.1150   13.8740 C.3   136  THR136      0.0376
    207  N         52.0750   -8.4760   15.7960 N.am  137  ASN137     -0.1974
    208  CA        53.5630   -8.4120   15.7240 C.3   137  ASN137      0.1688
    209  C         54.1820   -9.7910   15.8880 C.2   137  ASN137      0.2292
    210  O         55.2320  -10.0290   15.3450 O.2   137  ASN137     -0.2864
    211  CB        54.1780   -7.4770   16.7670 C.3   137  ASN137      0.1181
    212  CG        53.8610   -6.0060   16.5150 C.2   137  ASN137      0.2629
    213  OD1       53.3540   -5.6170   15.4620 O.2   137  ASN137     -0.2716
    214  ND2       54.1140   -5.1850   17.5230 N.am  137  ASN137     -0.0877
@<TRIPOS>BOND
     1    69    68   ar
     2    70    68   ar
     3    68    67    1
     4    67    64    1
     5    65    64    1
     6    65    66    2
     7    64    63    1
     8    55    54    2
     9    63    54   am
    10    54    53    1
    11    51    49    1
    12    82    81   ar
    13    53    56    1
    14    53    52    1
    15    48    47    2
    16    56    57    1
    17    80    81    1
    18    80    77    1
    19    71    72    1
    20    49    50    1
    21    49    46    1
    22    52    47   am
    23    81    83   ar
    24    47    46    1
    25    22    20    1
    26    76    77    1
    27    76    73   am
    28    20    19    2
    29    20    21    1
    30    72    73    1
    31    72    75    1
    32    19    18    1
    33    95    94    2
    34    46    45    1
    35    57    58    1
    36    77    78    1
    37    97    96    1
    38    94    93    1
    39    73    74    2
    40    18    17    1
    41    79    78    2
    42    45    43   am
    43    58    59    1
    44    78    84   am
    45    96    93    1
    46    96    98    1
    47    59    60    2
    48    93    92    1
    49    43    42    1
    50    43    44    2
    51    61    60    1
    52    17    16    1
    53    60    62    1
    54    92    86   am
    55    42    41    1
    56    84    85    1
    57    86    85    1
    58    86    87    2
    59    16    13    1
    60    85    88    1
    61    13    12    1
    62    13    14    1
    63    88    89    1
    64    89    91    1
    65    89    90    1
    66    14    15    2
    67    14    23   am
    68     8     9    1
    69     8     3   am
    70     9    10    1
    71    10    11    2
    72     7     5    1
    73     2     5    1
    74     2     3    1
    75     2     1    1
    76   123   122    1
    77    23    24    1
    78     5     6    1
    79     3     4    2
    80   122   124    1
    81   122   119    1
    82    24    25    1
    83   121   120    2
    84    26    25    2
    85    25    27   am
    86   120   119    1
    87   119   118    1
    88   106   108   ar
    89   106   104   ar
    90   108   109   ar
    91    27    28    1
    92   103   104    1
    93   103   100    1
    94   118   113   am
    95   104   105   ar
    96   109   110    1
    97   109   107   ar
    98   102   101    2
    99   114   113    2
   100    99   100    1
   101   113   112    1
   102   105   107   ar
   103    28    29    1
   104    28    31    1
   105   100   101    1
   106   101   111   am
   107    29    30    2
   108    29    33   am
   109    31    32    1
   110   160   159    1
   111   111   112    1
   112   112   115    1
   113    35    36    2
   114    35    34    1
   115    33    34    1
   116    34    37    1
   117   159   158    1
   118   115   117    1
   119   115   116    1
   120   158   157    1
   121    37    39    1
   122    37    38    1
   123   156   155    2
   124   157   154    1
   125   132   130    1
   126    38    40    1
   127   154   155    1
   128   154   153    1
   129   129   130    1
   130   129   126    1
   131   155   161   am
   132   128   127    2
   133   125   126    1
   134   206   204    1
   135   204   205    1
   136   204   201    1
   137   203   202    2
   138   130   131    1
   139   126   127    1
   140   170   168   ar
   141   170   169   ar
   142   127   133   am
   143   161   162    1
   144   168   166   ar
   145   202   201    1
   146   202   207   am
   147   198   197    1
   148   169   167   ar
   149   152   150    1
   150   201   200    1
   151   162   163    1
   152   162   165    1
   153   164   163    2
   154   210   209    2
   155   213   212    2
   156   166   167   ar
   157   166   165    1
   158   208   207    1
   159   208   209    1
   160   208   211    1
   161   133   134    1
   162   134   135    1
   163   134   137    1
   164   148   147    2
   165   146   145    1
   166   146   147    1
   167   146   149    1
   168   197   196    1
   169   197   199    1
   170   212   211    1
   171   212   214   am
   172   150   149    1
   173   136   135    2
   174   196   193    1
   175   135   139   am
   176   151   149    1
   177   137   138    1
   178   139   140    1
   179   195   194    2
   180   193   194    1
   181   193   192    1
   182   143   140    1
   183   143   144    1
   184   176   177    1
   185   176   175    1
   186   140   141    1
   187   192   189   am
   188   177   171    1
   189   175   172    1
   190   189   188    1
   191   189   190    2
   192   141   142    2
   193   181   180    2
   194   171   172    1
   195   174   173    2
   196   188   191    1
   197   188   187    1
   198   172   173    1
   199   173   178   am
   200   180   187   am
   201   180   179    1
   202   178   179    1
   203   179   182    1
   204   182   183    1
   205   185   184   ar
   206   183   184    1
   207   184   186   ar
