@<TRIPOS>MOLECULE
tmp/5l42D00.pdb
 135 128 0 0 0
SMALL
GASTEIGER

@<TRIPOS>ATOM
      1  N         41.2180  -10.6500   25.8510 N.3    13  ARG13      -0.1245
      2  CA        41.5580   -9.4810   24.9870 C.3    13  ARG13       0.1563
      3  C         40.2940   -8.6160   24.5940 C.2    13  ARG13       0.2260
      4  O         39.5350   -8.2860   25.4880 O.2    13  ARG13      -0.2867
      5  CB        42.4430   -9.9740   23.8130 C.3    13  ARG13       0.0307
      6  CG        43.8030  -10.5370   24.2880 C.3    13  ARG13       0.0489
      7  CD        44.6380  -11.1640   23.1400 C.3    13  ARG13       0.2205
      8  NE        44.6500  -10.2650   21.9760 N.pl3  13  ARG13      -0.0865
      9  CZ        45.4540   -9.2030   21.8560 C.cat  13  ARG13       0.5346
     10  NH1       46.3300   -8.8990   22.8240 N.pl3  13  ARG13       0.1354
     11  NH2       45.3520   -8.4080   20.7920 N.pl3  13  ARG13       0.1354
     12  N         38.5660  -13.9510   15.3540 N.3   100  SER100     -0.1217
     13  CA        39.3110  -13.6110   14.1580 C.3   100  SER100      0.1889
     14  C         40.6190  -14.3140   14.1040 C.2   100  SER100      0.2288
     15  O         41.4070  -14.1310   15.0110 O.2   100  SER100     -0.2866
     16  CB        39.6300  -12.1140   14.2030 C.3   100  SER100      0.2089
     17  OG        40.5430  -11.7530   13.1860 O.3   100  SER100     -0.2183
     18  N         44.4370  -14.3490   12.4090 N.3   102  PHE102     -0.1241
     19  CA        45.2360  -13.2990   11.8320 C.3   102  PHE102      0.1605
     20  C         46.6450  -13.8410   11.7630 C.2   102  PHE102      0.2264
     21  O         47.2880  -14.0470   12.8220 O.2   102  PHE102     -0.2867
     22  CB        45.1460  -12.0430   12.7330 C.3   102  PHE102      0.0534
     23  CG        46.1720  -10.9740   12.4270 C.ar  102  PHE102     -0.0203
     24  CD1       46.0170  -10.1100   11.3090 C.ar  102  PHE102     -0.0042
     25  CD2       47.2780  -10.7860   13.2790 C.ar  102  PHE102     -0.0042
     26  CE1       46.9160   -9.1030   11.0670 C.ar  102  PHE102     -0.0003
     27  CE2       48.2250   -9.7800   13.0240 C.ar  102  PHE102     -0.0003
     28  CZ        48.0280   -8.9370   11.9040 C.ar  102  PHE102     -0.0000
     29  N         38.6710   -3.8060   10.6790 N.3   156  ASP156     -0.1239
     30  CA        40.0470   -3.3070   10.9440 C.3   156  ASP156      0.1674
     31  C         40.1390   -1.9050   10.4100 C.2   156  ASP156      0.2266
     32  O         39.9010   -1.6970    9.2100 O.2   156  ASP156     -0.2867
     33  CB        40.9690   -4.1740   10.1190 C.3   156  ASP156      0.1410
     34  CG        42.4490   -3.9260   10.4400 C.2   156  ASP156      0.3668
     35  OD1       42.8840   -2.7650   10.6250 O.co2 156  ASP156     -0.2456
     36  OD2       43.1430   -4.9370   10.5910 O.co2 156  ASP156     -0.2456
     37  N         42.7230   -0.2770    9.4800 N.3   158  MET158     -0.1245
     38  CA        43.9390   -0.0720    8.6570 C.3   158  MET158      0.1570
     39  C         43.9920   -0.9010    7.3700 C.2   158  MET158      0.2261
     40  O         44.9910   -0.8440    6.6530 O.2   158  MET158     -0.2867
     41  CB        45.2080   -0.4080    9.4720 C.3   158  MET158      0.0387
     42  CG        45.4370    0.4100   10.7300 C.3   158  MET158      0.0595
     43  SD        45.3790    2.1840   10.4070 S.3   158  MET158     -0.1393
     44  CE        46.8530    2.3630    9.3550 C.3   158  MET158      0.0692
     45  N         48.4450   -4.3190    5.6500 N.3   163  LEU163     -0.1245
     46  CA        49.6680   -4.8650    6.2400 C.3   163  LEU163      0.1561
     47  C         50.3900   -5.8080    5.2710 C.2   163  LEU163      0.2260
     48  O         49.8000   -6.7780    4.7730 O.2   163  LEU163     -0.2867
     49  CB        49.2900   -5.5670    7.5360 C.3   163  LEU163      0.0270
     50  CG        50.3330   -5.7860    8.6240 C.3   163  LEU163      0.0019
     51  CD1       51.1190   -4.5330    9.0020 C.3   163  LEU163      0.0001
     52  CD2       49.5620   -6.3450    9.8210 C.3   163  LEU163      0.0001
     53  N         43.7640  -12.3500    5.1320 N.3   169  TYR169     -0.1241
     54  CA        43.1630  -11.6410    6.2770 C.3   169  TYR169      0.1605
     55  C         42.4990  -10.3060    5.7870 C.2   169  TYR169      0.2264
     56  O         41.3690   -9.9650    6.1540 O.2   169  TYR169     -0.2867
     57  CB        44.2520  -11.3250    7.3360 C.3   169  TYR169      0.0534
     58  CG        43.7800  -10.2900    8.3650 C.ar  169  TYR169     -0.0201
     59  CD1       42.9230  -10.6750    9.4670 C.ar  169  TYR169     -0.0009
     60  CD2       44.0920   -8.9320    8.2200 C.ar  169  TYR169     -0.0009
     61  CE1       42.4410   -9.7210   10.3530 C.ar  169  TYR169      0.0417
     62  CE2       43.6230   -7.9670    9.1100 C.ar  169  TYR169      0.0417
     63  CZ        42.8000   -8.3800   10.1730 C.ar  169  TYR169      0.1957
     64  OH        42.3540   -7.4470   11.0510 O.3   169  TYR169     -0.2866
     65  N         38.4770   -9.2130    5.9910 N.3   173  LYS173     -0.1245
     66  CA        37.9640   -7.9850    6.6270 C.3   173  LYS173      0.1561
     67  C         37.2120   -7.1590    5.6110 C.2   173  LYS173      0.2260
     68  O         36.1730   -6.5900    5.9600 O.2   173  LYS173     -0.2867
     69  CB        39.0600   -7.1840    7.3690 C.3   173  LYS173      0.0271
     70  CG        39.6250   -7.9320    8.6050 C.3   173  LYS173      0.0035
     71  CD        38.5080   -8.3940    9.6230 C.3   173  LYS173      0.0206
     72  CE        39.1370   -8.5300   11.0220 C.3   173  LYS173      0.1093
     73  NZ        38.2030   -9.0490   12.0760 N.3   173  LYS173     -0.1314
     74  N         42.5220    0.0200   15.3870 N.3   200  GLY200     -0.1210
     75  CA        43.8410    0.2040   14.6550 C.3   200  GLY200      0.1956
     76  C         44.8800   -0.7480   15.2630 C.2   200  GLY200      0.2612
     77  O         45.0500   -1.8380   14.7870 O.2   200  GLY200     -0.2717
     78  N         45.5140   -0.3430   16.3540 N.am  201  LEU201     -0.1965
     79  CA        46.4260   -1.1730   17.1020 C.3   201  LEU201      0.1728
     80  C         45.8130   -1.2200   18.5140 C.2   201  LEU201      0.2617
     81  O         45.6500   -0.1840   19.1610 O.2   201  LEU201     -0.2715
     82  CB        47.8070   -0.5150   17.1640 C.3   201  LEU201      0.0311
     83  CG        48.4790   -0.0360   15.8590 C.3   201  LEU201      0.0022
     84  CD1       49.8420    0.5370   16.2230 C.3   201  LEU201      0.0001
     85  CD2       48.6600   -1.2110   14.9070 C.3   201  LEU201      0.0001
     86  N         45.4880   -2.4340   18.9660 N.am  202  SER202     -0.1936
     87  CA        44.8570   -2.5950   20.2590 C.3   202  SER202      0.2055
     88  C         45.4840   -3.7350   21.0410 C.2   202  SER202      0.2643
     89  O         45.5830   -4.8560   20.5370 O.2   202  SER202     -0.2714
     90  CB        43.3540   -2.8410   20.0770 C.3   202  SER202      0.2130
     91  OG        42.7200   -2.8030   21.3380 O.3   202  SER202     -0.2179
     92  N         45.8910   -3.4370   22.2780 N.am  203  VAL203     -0.1963
     93  CA        46.5090   -4.4470   23.2110 C.3   203  VAL203      0.1727
     94  C         47.6030   -5.2910   22.5190 C.2   203  VAL203      0.2616
     95  O         47.5720   -6.5360   22.5280 O.2   203  VAL203     -0.2715
     96  CB        45.4680   -5.2900   24.0100 C.3   203  VAL203      0.0290
     97  CG1       44.3890   -4.4100   24.5890 C.3   203  VAL203      0.0023
     98  CG2       44.7260   -6.2630   23.1550 C.3   203  VAL203      0.0023
     99  N         48.5630   -4.6030   21.8920 N.am  204  LEU204     -0.1963
    100  CA        49.6910   -5.2970   21.2680 C.3   204  LEU204      0.1728
    101  C         50.4610   -6.1750   22.2730 C.2   204  LEU204      0.2616
    102  O         50.6020   -5.8210   23.4330 O.2   204  LEU204     -0.2715
    103  CB        50.6140   -4.3080   20.5330 C.3   204  LEU204      0.0311
    104  CG        50.0980   -3.5170   19.3080 C.3   204  LEU204      0.0022
    105  CD1       51.2950   -2.9430   18.5530 C.3   204  LEU204      0.0001
    106  CD2       49.1810   -4.2720   18.3330 C.3   204  LEU204      0.0001
    107  N         50.9260   -7.3230   21.7910 N.am  205  VAL205     -0.1977
    108  CA        51.4320   -8.4600   22.6070 C.3   205  VAL205      0.1596
    109  C         52.4660   -8.1270   23.7210 C.2   205  VAL205      0.2287
    110  O         53.5410   -7.5550   23.4820 O.2   205  VAL205     -0.2864
    111  CB        51.8790   -9.6570   21.6900 C.3   205  VAL205      0.0276
    112  CG1       53.2030   -9.3800   20.9430 C.3   205  VAL205      0.0022
    113  CG2       51.9210  -10.9750   22.4680 C.3   205  VAL205      0.0022
    114  N         55.1180   -0.3220   15.8690 N.3   207  HIS207     -0.1241
    115  CA        54.2150    0.5390   15.0870 C.3   207  HIS207      0.1621
    116  C         53.5270    1.5710   15.9700 C.2   207  HIS207      0.2264
    117  O         53.1130    2.6120   15.5010 O.2   207  HIS207     -0.2867
    118  CB        53.1710   -0.2890   14.3290 C.3   207  HIS207      0.0745
    119  CG        53.6710   -0.8640   13.0380 C.ar  207  HIS207      0.0817
    120  ND1       53.0240   -1.8950   12.3800 N.ar  207  HIS207     -0.2268
    121  CD2       54.7530   -0.5590   12.2840 C.ar  207  HIS207      0.1154
    122  CE1       53.6800   -2.1910   11.2730 C.ar  207  HIS207      0.1986
    123  NE2       54.7370   -1.4020   11.1960 N.ar  207  HIS207     -0.2212
    124  N         45.5220    6.6160   13.4240 N.3   248  TYR248     -0.1241
    125  CA        46.5320    5.8880   12.6640 C.3   248  TYR248      0.1605
    126  C         46.2280    5.8190   11.1480 C.2   248  TYR248      0.2264
    127  O         47.1510    5.8490   10.3320 O.2   248  TYR248     -0.2867
    128  CB        46.7580    4.4910   13.2890 C.3   248  TYR248      0.0534
    129  CG        47.9800    3.7300   12.8130 C.ar  248  TYR248     -0.0201
    130  CD1       49.1530    4.4000   12.4040 C.ar  248  TYR248     -0.0009
    131  CD2       47.9860    2.3300   12.8220 C.ar  248  TYR248     -0.0009
    132  CE1       50.2700    3.6790   11.9790 C.ar  248  TYR248      0.0417
    133  CE2       49.1150    1.5960   12.4010 C.ar  248  TYR248      0.0417
    134  CZ        50.2280    2.2620   11.9600 C.ar  248  TYR248      0.1957
    135  OH        51.3660    1.5360   11.5750 O.3   248  TYR248     -0.2866
@<TRIPOS>BOND
     1    48    47    2
     2    53    54    1
     3    47    46    1
     4    67    68    2
     5    67    66    1
     6    45    46    1
     7    55    56    2
     8    55    54    1
     9    65    66    1
    10    46    49    1
    11    54    57    1
    12    66    69    1
    13    40    39    2
    14    57    58    1
    15    69    70    1
    16    39    38    1
    17    49    50    1
    18    60    58   ar
    19    60    62   ar
    20    58    59   ar
    21    70    71    1
    22    50    51    1
    23    50    52    1
    24    38    41    1
    25    38    37    1
    26    62    63   ar
    27    32    31    2
    28    44    43    1
    29    59    61   ar
    30    41    42    1
    31    71    72    1
    32    33    34    1
    33    33    30    1
    34    63    61   ar
    35    63    64    1
    36   127   126    2
    37    43    42    1
    38    31    30    1
    39    34    36   ar
    40    34    35   ar
    41    29    30    1
    42    72    73    1
    43    26    24   ar
    44    26    28   ar
    45   126   125    1
    46   123   122   ar
    47   123   121   ar
    48   122   120   ar
    49    24    23   ar
    50   135   134    1
    51    20    19    1
    52    20    21    2
    53    19    18    1
    54    19    22    1
    55    28    27   ar
    56   134   132   ar
    57   134   133   ar
    58   132   130   ar
    59   121   119   ar
    60   120   119   ar
    61   133   131   ar
    62   130   129   ar
    63    23    22    1
    64    23    25   ar
    65   125   128    1
    66   125   124    1
    67   129   131   ar
    68   129   128    1
    69    27    25   ar
    70   119   118    1
    71    17    16    1
    72    14    13    1
    73    14    15    2
    74    13    16    1
    75    13    12    1
    76   118   115    1
    77    75    76    1
    78    75    74    1
    79    77    76    2
    80    85    83    1
    81   115   114    1
    82   115   116    1
    83    76    78   am
    84   117   116    2
    85    83    84    1
    86    83    82    1
    87    78    79    1
    88    79    82    1
    89    79    80    1
    90   106   104    1
    91    80    86   am
    92    80    81    2
    93   105   104    1
    94    86    87    1
    95   104   103    1
    96    90    87    1
    97    90    91    1
    98    87    88    1
    99   103   100    1
   100    89    88    2
   101    11     9    1
   102   112   111    1
   103    88    92   am
   104   100    99    1
   105   100   101    1
   106   111   113    1
   107   111   108    1
   108   107   101   am
   109   107   108    1
   110     9     8    2
   111     9    10    1
   112    99    94   am
   113     8     7    1
   114   101   102    2
   115    92    93    1
   116    94    95    2
   117    94    93    1
   118   108   109    1
   119     7     6    1
   120    98    96    1
   121    93    96    1
   122   110   109    2
   123     5     6    1
   124     5     2    1
   125    96    97    1
   126     3     2    1
   127     3     4    2
   128     2     1    1
