@<TRIPOS>MOLECULE
tmp/5l44A00.pdb
 203 197 0 0 0
SMALL
GASTEIGER

@<TRIPOS>ATOM
      1  N        -14.1440   19.9730   26.5610 N.3    74  PHE74      -0.1241
      2  CA       -12.8240   20.5960   26.6240 C.3    74  PHE74       0.1605
      3  C        -12.3060   21.0810   25.2810 C.2    74  PHE74       0.2264
      4  O        -11.5440   22.0790   25.2330 O.2    74  PHE74      -0.2867
      5  CB       -11.8280   19.7430   27.3970 C.3    74  PHE74       0.0534
      6  CG       -12.2360   19.6130   28.8440 C.ar   74  PHE74      -0.0203
      7  CD1      -12.2830   20.7480   29.6350 C.ar   74  PHE74      -0.0042
      8  CD2      -12.7120   18.4320   29.3460 C.ar   74  PHE74      -0.0042
      9  CE1      -12.7110   20.6810   30.9470 C.ar   74  PHE74      -0.0003
     10  CE2      -13.1480   18.3460   30.6590 C.ar   74  PHE74      -0.0003
     11  CZ       -13.1570   19.4810   31.4550 C.ar   74  PHE74      -0.0000
     12  N        -11.5600   25.3370   24.9190 N.3    78  SER78      -0.1217
     13  CA       -10.3270   25.9040   24.3320 C.3    78  SER78       0.1889
     14  C        -10.5810   26.7180   23.0860 C.2    78  SER78       0.2288
     15  O        -10.0700   27.8400   22.9440 O.2    78  SER78      -0.2866
     16  CB        -9.3620   24.7770   23.9410 C.3    78  SER78       0.2089
     17  OG        -8.9130   24.1030   25.0720 O.3    78  SER78      -0.2183
     18  N         -0.2820   34.8980   21.8420 N.3   216  LEU216     -0.1245
     19  CA         0.0750   34.3490   23.1550 C.3   216  LEU216      0.1561
     20  C          1.4360   34.7970   23.7040 C.2   216  LEU216      0.2260
     21  O          1.4900   35.2570   24.8550 O.2   216  LEU216     -0.2867
     22  CB         0.0250   32.8090   23.1590 C.3   216  LEU216      0.0270
     23  CG        -0.0160   32.1600   24.5440 C.3   216  LEU216      0.0019
     24  CD1       -1.2750   32.5540   25.2970 C.3   216  LEU216      0.0001
     25  CD2        0.1460   30.6370   24.4600 C.3   216  LEU216      0.0001
     26  N         -8.8150   30.6300   22.7100 N.3   406  ARG406     -0.1245
     27  CA        -7.6190   30.9990   23.4650 C.3   406  ARG406      0.1563
     28  C         -6.3910   31.1340   22.5310 C.2   406  ARG406      0.2260
     29  O         -6.3910   30.6460   21.4070 O.2   406  ARG406     -0.2867
     30  CB        -7.3700   30.0310   24.6300 C.3   406  ARG406      0.0307
     31  CG        -7.1580   28.5830   24.2810 C.3   406  ARG406      0.0489
     32  CD        -6.7800   27.8030   25.5380 C.3   406  ARG406      0.2205
     33  NE        -5.4870   28.2980   25.9670 N.pl3 406  ARG406     -0.0865
     34  CZ        -4.3270   28.0380   25.3600 C.cat 406  ARG406      0.5346
     35  NH1       -3.2030   28.5990   25.8070 N.pl3 406  ARG406      0.1354
     36  NH2       -4.2690   27.2000   24.3160 N.pl3 406  ARG406      0.1354
     37  N         -1.3670   27.7820   19.8390 N.3   409  ALA409     -0.1231
     38  CA        -1.7420   26.7230   18.9040 C.3   409  ALA409      0.1694
     39  C         -1.6680   25.3950   19.6540 C.2   409  ALA409      0.2592
     40  O         -0.8940   25.2660   20.5990 O.2   409  ALA409     -0.2718
     41  CB        -0.8210   26.7030   17.7100 C.3   409  ALA409      0.0304
     42  N         -2.5310   24.4560   19.3160 N.am  410  TRP410     -0.1962
     43  CA        -2.5610   23.1950   20.0580 C.3   410  TRP410      0.1771
     44  C         -3.2300   22.0840   19.2840 C.2   410  TRP410      0.2620
     45  O         -3.9190   22.3220   18.2960 O.2   410  TRP410     -0.2715
     46  CB        -3.2690   23.3520   21.4200 C.3   410  TRP410      0.0590
     47  CG        -4.7330   23.7210   21.3030 C.ar  410  TRP410      0.0006
     48  CD1       -5.8000   22.8640   21.2990 C.ar  410  TRP410      0.0946
     49  CD2       -5.2850   25.0410   21.1990 C.ar  410  TRP410      0.0152
     50  NE1       -6.9680   23.5610   21.1460 N.ar  410  TRP410     -0.2442
     51  CE2       -6.6870   24.8990   21.0950 C.ar  410  TRP410      0.0810
     52  CE3       -4.7360   26.3200   21.1550 C.ar  410  TRP410      0.0012
     53  CZ2       -7.5350   25.9810   20.9930 C.ar  410  TRP410      0.0191
     54  CZ3       -5.6020   27.4090   21.0570 C.ar  410  TRP410      0.0001
     55  CH2       -6.9810   27.2170   20.9670 C.ar  410  TRP410      0.0015
     56  N         -2.9480   20.8730   19.7310 N.am  411  MET411     -0.1963
     57  CA        -3.5810   19.6870   19.2160 C.3   411  MET411      0.1736
     58  C         -4.3440   19.0530   20.3630 C.2   411  MET411      0.2616
     59  O         -3.8830   19.0210   21.5120 O.2   411  MET411     -0.2715
     60  CB        -2.4890   18.7430   18.6700 C.3   411  MET411      0.0427
     61  CG        -2.9290   17.3480   18.2500 C.3   411  MET411      0.0599
     62  SD        -2.9370   16.2060   19.6610 S.3   411  MET411     -0.1393
     63  CE        -3.4990   14.6870   18.8840 C.3   411  MET411      0.0692
     64  N         -5.4860   18.4480   20.0370 N.am  412  ASN412     -0.1958
     65  CA        -6.1950   17.6000   20.9770 C.3   412  ASN412      0.1819
     66  C         -6.9000   16.4910   20.2110 C.2   412  ASN412      0.2622
     67  O         -6.9610   16.5320   18.9830 O.2   412  ASN412     -0.2715
     68  CB        -7.1630   18.3970   21.8600 C.3   412  ASN412      0.1195
     69  CG        -8.2990   19.0440   21.0970 C.2   412  ASN412      0.2630
     70  OD1       -9.4430   18.5430   21.1150 O.2   412  ASN412     -0.2716
     71  ND2       -8.0350   20.1290   20.4730 N.am  412  ASN412     -0.0877
     72  N         -7.4050   15.5000   20.9390 N.am  413  SER413     -0.1950
     73  CA        -8.1060   14.3660   20.3320 C.3   413  SER413      0.1924
     74  C         -9.5840   14.3410   20.7310 C.2   413  SER413      0.2314
     75  O         -9.9100   14.5040   21.9070 O.2   413  SER413     -0.2863
     76  CB        -7.4320   13.0580   20.7440 C.3   413  SER413      0.2116
     77  OG        -6.0600   13.0450   20.3850 O.3   413  SER413     -0.2180
     78  N          4.1860   21.9270   13.0920 N.3   454  HIS454     -0.1226
     79  CA         4.3030   21.4920   14.4960 C.3   454  HIS454      0.1752
     80  C          3.0050   20.8330   14.9730 C.2   454  HIS454      0.2595
     81  O          3.0250   19.7030   15.4770 O.2   454  HIS454     -0.2718
     82  CB         4.6740   22.6540   15.3860 C.3   454  HIS454      0.0759
     83  CG         4.8240   22.3070   16.8370 C.ar  454  HIS454      0.0818
     84  ND1        6.0590   22.1470   17.4270 N.ar  454  HIS454     -0.2268
     85  CD2        3.9050   22.1220   17.8220 C.ar  454  HIS454      0.1154
     86  CE1        5.9030   21.8730   18.7130 C.ar  454  HIS454      0.1986
     87  NE2        4.6050   21.8390   18.9760 N.ar  454  HIS454     -0.2212
     88  N          1.8810   21.5270   14.8300 N.am  455  GLU455     -0.1979
     89  CA         0.6060   20.9290   15.2730 C.3   455  GLU455      0.1602
     90  C          0.2740   19.6680   14.4970 C.2   455  GLU455      0.2287
     91  O         -0.2930   18.7020   15.0610 O.2   455  GLU455     -0.2864
     92  CB        -0.5600   21.9280   15.2210 C.3   455  GLU455      0.0415
     93  CG        -0.3400   23.2010   15.9940 C.3   455  GLU455      0.1163
     94  CD         0.0510   22.9810   17.4350 C.2   455  GLU455      0.3649
     95  OE1       -0.3290   21.9610   18.0570 O.co2 455  GLU455     -0.2457
     96  OE2        0.7310   23.8620   17.9470 O.co2 455  GLU455     -0.2457
     97  N          1.9240   16.6230   16.0720 N.3   458  HIS458     -0.1241
     98  CA         1.0840   16.0710   17.1490 C.3   458  HIS458      0.1621
     99  C         -0.0810   15.2780   16.5510 C.2   458  HIS458      0.2264
    100  O         -0.4250   14.1920   17.0750 O.2   458  HIS458     -0.2867
    101  CB         0.5090   17.1750   17.9980 C.3   458  HIS458      0.0745
    102  CG         1.4740   17.8160   18.9390 C.ar  458  HIS458      0.0817
    103  ND1        2.2370   17.0930   19.8270 N.ar  458  HIS458     -0.2268
    104  CD2        1.7300   19.1190   19.1910 C.ar  458  HIS458      0.1154
    105  CE1        2.9360   17.9210   20.5790 C.ar  458  HIS458      0.1986
    106  NE2        2.6300   19.1580   20.2330 N.ar  458  HIS458     -0.2212
    107  N         -0.7950   10.6080   21.8990 N.3   475  THR475     -0.1203
    108  CA         0.1040   11.5750   22.5120 C.3   475  THR475      0.1994
    109  C          0.3520   11.3200   24.0160 C.2   475  THR475      0.2618
    110  O          0.9710   12.1620   24.6900 O.2   475  THR475     -0.2717
    111  CB        -0.4490   12.9940   22.3190 C.3   475  THR475      0.1784
    112  OG1       -1.8180   13.0240   22.7400 O.3   475  THR475     -0.2211
    113  CG2       -0.3320   13.4270   20.8320 C.3   475  THR475      0.0376
    114  N         -0.0880   10.1630   24.5360 N.am  476  ALA476     -0.1965
    115  CA         0.0070    9.8870   25.9940 C.3   476  ALA476      0.1728
    116  C          1.4200    9.4560   26.4110 C.2   476  ALA476      0.2616
    117  O          1.6700    8.3290   26.8290 O.2   476  ALA476     -0.2715
    118  CB        -1.0550    8.8670   26.4080 C.3   476  ALA476      0.0334
    119  N          2.3550   10.4010   26.3050 N.am  477  VAL477     -0.1977
    120  CA         3.7740   10.1830   26.6290 C.3   477  VAL477      0.1596
    121  C          4.1940   11.3580   27.5180 C.2   477  VAL477      0.2287
    122  O          3.4920   12.3710   27.5960 O.2   477  VAL477     -0.2864
    123  CB         4.6720   10.1000   25.3760 C.3   477  VAL477      0.0276
    124  CG1        4.3150    8.8960   24.5140 C.3   477  VAL477      0.0022
    125  CG2        4.5800   11.3910   24.5360 C.3   477  VAL477      0.0022
    126  N          5.5610   14.7630   28.9390 N.3   479  ARG479     -0.1245
    127  CA         5.6470   16.0640   28.3040 C.3   479  ARG479      0.1563
    128  C          7.0180   16.3850   27.6900 C.2   479  ARG479      0.2260
    129  O          7.0810   17.0500   26.6640 O.2   479  ARG479     -0.2867
    130  CB         5.2880   17.1520   29.3200 C.3   479  ARG479      0.0307
    131  CG         4.6610   18.3850   28.7430 C.3   479  ARG479      0.0489
    132  CD         3.1980   18.1810   28.3650 C.3   479  ARG479      0.2205
    133  NE         2.3630   17.8460   29.5070 N.pl3 479  ARG479     -0.0865
    134  CZ         1.0300   17.9230   29.5630 C.cat 479  ARG479      0.5346
    135  NH1        0.4250   17.5410   30.6830 N.pl3 479  ARG479      0.1354
    136  NH2        0.2930   18.3890   28.5550 N.pl3 479  ARG479      0.1354
    137  N          6.7380   14.3820   24.3700 N.3   482  VAL482     -0.1231
    138  CA         5.6220   14.6730   23.4370 C.3   482  VAL482      0.1692
    139  C          5.9280   15.7920   22.4280 C.2   482  VAL482      0.2591
    140  O          5.3530   15.8240   21.3380 O.2   482  VAL482     -0.2718
    141  CB         4.2850   14.9900   24.1910 C.3   482  VAL482      0.0266
    142  CG1        4.2400   16.4500   24.6530 C.3   482  VAL482      0.0020
    143  CG2        3.0880   14.6890   23.3000 C.3   482  VAL482      0.0020
    144  N          6.8380   16.7060   22.7810 N.am  483  GLU483     -0.1979
    145  CA         7.2090   17.7700   21.8450 C.3   483  GLU483      0.1602
    146  C          8.2930   17.3430   20.8320 C.2   483  GLU483      0.2287
    147  O          8.6860   18.1420   20.0170 O.2   483  GLU483     -0.2864
    148  CB         7.5750   19.0500   22.6020 C.3   483  GLU483      0.0415
    149  CG         6.4300   19.6050   23.4730 C.3   483  GLU483      0.1163
    150  CD         5.1860   19.9720   22.6990 C.2   483  GLU483      0.3649
    151  OE1        5.2440   20.3250   21.4860 O.co2 483  GLU483     -0.2457
    152  OE2        4.0990   19.9060   23.3080 O.co2 483  GLU483     -0.2457
    153  N          0.3210   30.7510   30.2060 N.3   583  ALA583     -0.1231
    154  CA        -0.7270   29.7430   30.1620 C.3   583  ALA583      0.1694
    155  C         -0.1960   28.2970   30.1760 C.2   583  ALA583      0.2592
    156  O         -0.8270   27.4310   30.8100 O.2   583  ALA583     -0.2718
    157  CB        -1.6460   29.9720   28.9730 C.3   583  ALA583      0.0304
    158  N          0.9570   28.0520   29.5440 N.am  584  HIS584     -0.1976
    159  CA         1.5670   26.6960   29.5360 C.3   584  HIS584      0.1656
    160  C          1.6470   26.1480   30.9830 C.2   584  HIS584      0.2291
    161  O          1.3130   24.9810   31.2470 O.2   584  HIS584     -0.2864
    162  CB         2.9710   26.6980   28.9410 C.3   584  HIS584      0.0771
    163  CG         3.0410   26.7520   27.4430 C.ar  584  HIS584      0.0820
    164  ND1        3.4430   25.6740   26.6690 N.ar  584  HIS584     -0.2267
    165  CD2        2.8560   27.7710   26.5890 C.ar  584  HIS584      0.1154
    166  CE1        3.4700   26.0360   25.3980 C.ar  584  HIS584      0.1986
    167  NE2        3.1310   27.3060   25.3290 N.ar  584  HIS584     -0.2212
    168  N         -2.2930   26.9990   33.4380 N.3   587  SER587     -0.1202
    169  CA        -3.5840   26.4280   33.0210 C.3   587  SER587      0.2020
    170  C         -3.4850   25.2110   32.1320 C.2   587  SER587      0.2619
    171  O         -4.5080   24.5200   31.9500 O.2   587  SER587     -0.2717
    172  CB        -4.4910   27.4910   32.4060 C.3   587  SER587      0.2103
    173  OG        -3.8510   28.1670   31.3460 O.3   587  SER587     -0.2182
    174  N         -2.3060   24.9090   31.5900 N.am  588  SER588     -0.1951
    175  CA        -2.1280   23.6410   30.9210 C.3   588  SER588      0.1924
    176  C         -1.1320   22.8180   31.7270 C.2   588  SER588      0.2314
    177  O         -0.8520   23.1360   32.8680 O.2   588  SER588     -0.2863
    178  CB        -1.7030   23.8070   29.4790 C.3   588  SER588      0.2116
    179  OG        -1.4340   22.5060   28.9490 O.3   588  SER588     -0.2180
    180  N          2.1600   22.0910   31.5720 N.3   590  TYR590     -0.1241
    181  CA         3.5960   22.2350   31.4570 C.3   590  TYR590      0.1605
    182  C          4.2940   22.8400   32.7060 C.2   590  TYR590      0.2264
    183  O          5.4120   23.2930   32.5590 O.2   590  TYR590     -0.2867
    184  CB         3.9710   23.0570   30.2180 C.3   590  TYR590      0.0534
    185  CG         3.5890   22.4510   28.8740 C.ar  590  TYR590     -0.0201
    186  CD1        2.2860   22.5480   28.3950 C.ar  590  TYR590     -0.0009
    187  CD2        4.5600   21.8260   28.0500 C.ar  590  TYR590     -0.0009
    188  CE1        1.9310   22.0310   27.1490 C.ar  590  TYR590      0.0417
    189  CE2        4.2080   21.3000   26.7950 C.ar  590  TYR590      0.0417
    190  CZ         2.8890   21.4080   26.3550 C.ar  590  TYR590      0.1957
    191  OH         2.5000   20.8880   25.1300 O.3   590  TYR590     -0.2866
    192  N         10.3200   21.5220   25.7430 N.3   597  TYR597     -0.1241
    193  CA        10.5100   21.8290   24.3390 C.3   597  TYR597      0.1605
    194  C         11.9570   21.6130   23.9390 C.2   597  TYR597      0.2264
    195  O         12.2420   20.9070   22.9530 O.2   597  TYR597     -0.2867
    196  CB        10.0460   23.2620   24.0030 C.3   597  TYR597      0.0534
    197  CG         8.5500   23.3650   24.0190 C.ar  597  TYR597     -0.0201
    198  CD1        7.8070   23.0380   22.8830 C.ar  597  TYR597     -0.0009
    199  CD2        7.8650   23.7920   25.1510 C.ar  597  TYR597     -0.0009
    200  CE1        6.4390   23.0860   22.9000 C.ar  597  TYR597      0.0417
    201  CE2        6.4890   23.8860   25.1770 C.ar  597  TYR597      0.0417
    202  CZ         5.7680   23.5120   24.0490 C.ar  597  TYR597      0.1957
    203  OH         4.3890   23.5570   24.0230 O.3   597  TYR597     -0.2866
@<TRIPOS>BOND
     1    78    79    1
     2    79    80    1
     3    79    82    1
     4    90    91    2
     5    90    89    1
     6    88    80   am
     7    88    89    1
     8    80    81    2
     9    92    89    1
    10    92    93    1
    11    82    83    1
    12    93    94    1
    13    97    98    1
    14    99   100    2
    15    99    98    1
    16    83    84   ar
    17    83    85   ar
    18    98   101    1
    19    84    86   ar
    20    94    96   ar
    21    94    95   ar
    22    41    38    1
    23    85    87   ar
    24   101   102    1
    25    61    60    1
    26    61    62    1
    27    45    44    2
    28    60    57    1
    29    86    87   ar
    30    63    62    1
    31    38    39    1
    32    38    37    1
    33   102   104   ar
    34   102   103   ar
    35    67    66    2
    36   104   106   ar
    37    57    56    1
    38    57    58    1
    39    44    56   am
    40    44    43    1
    41    42    39   am
    42    42    43    1
    43    39    40    2
    44   103   105   ar
    45   147   146    2
    46    64    58   am
    47    64    65    1
    48    43    46    1
    49    66    72   am
    50    66    65    1
    51   106   105   ar
    52    73    74    1
    53    73    76    1
    54    73    72    1
    55    58    59    2
    56    77    76    1
    57    71    69   am
    58    74    75    2
    59   146   145    1
    60   113   111    1
    61    55    53   ar
    62    55    54   ar
    63    65    68    1
    64    53    51   ar
    65    54    52   ar
    66    51    50   ar
    67    51    49   ar
    68    69    70    2
    69    69    68    1
    70    50    48   ar
    71    52    49   ar
    72    49    47   ar
    73    48    47   ar
    74    47    46    1
    75   140   139    2
    76    29    28    2
    77   151   150   ar
    78    18    19    1
    79   145   148    1
    80   145   144    1
    81   107   108    1
    82   111   108    1
    83   111   112    1
    84   139   144   am
    85   139   138    1
    86   108   109    1
    87    28    27    1
    88   148   149    1
    89   150   152   ar
    90   150   149    1
    91    26    27    1
    92   198   200   ar
    93   198   197   ar
    94   200   202   ar
    95    15    14    2
    96   195   194    2
    97    14    13    1
    98    19    22    1
    99    19    20    1
   100    22    23    1
   101   143   141    1
   102   138   141    1
   103   138   137    1
   104    27    30    1
   105    20    21    2
   106   194   193    1
   107    16    13    1
   108    16    17    1
   109   196   197    1
   110   196   193    1
   111   109   114   am
   112   109   110    2
   113   197   199   ar
   114   203   202    1
   115   202   201   ar
   116   141   142    1
   117    31    30    1
   118    31    32    1
   119    36    34    1
   120    13    12    1
   121   193   192    1
   122    25    23    1
   123   124   123    1
   124   114   115    1
   125   125   123    1
   126    23    24    1
   127   191   190    1
   128   199   201   ar
   129     4     3    2
   130     3     2    1
   131   167   166   ar
   132   167   165   ar
   133    34    35    1
   134    34    33    2
   135   123   120    1
   136   166   164   ar
   137    32    33    1
   138   115   118    1
   139   115   116    1
   140   119   116   am
   141   119   120    1
   142   190   189   ar
   143   190   188   ar
   144   116   117    2
   145     1     2    1
   146   165   163   ar
   147     2     5    1
   148   120   121    1
   149   129   128    2
   150   164   163   ar
   151   189   187   ar
   152   188   186   ar
   153     5     6    1
   154   163   162    1
   155   121   122    2
   156   128   127    1
   157   187   185   ar
   158   127   126    1
   159   127   130    1
   160   132   131    1
   161   132   133    1
   162   186   185   ar
   163   136   134    1
   164   131   130    1
   165     6     8   ar
   166     6     7   ar
   167   185   184    1
   168   162   159    1
   169   179   178    1
   170   157   154    1
   171     8    10   ar
   172   178   175    1
   173   133   134    2
   174   159   158    1
   175   159   160    1
   176   158   155   am
   177   134   135    1
   178     7     9   ar
   179   154   155    1
   180   154   153    1
   181   155   156    2
   182   184   181    1
   183    10    11   ar
   184   175   174    1
   185   175   176    1
   186     9    11   ar
   187   160   161    2
   188   173   172    1
   189   181   180    1
   190   181   182    1
   191   174   170   am
   192   176   177    2
   193   171   170    2
   194   170   169    1
   195   172   169    1
   196   183   182    2
   197   169   168    1
