@<TRIPOS>MOLECULE
tmp/5l4iB00.pdb
 69 63 0 0 0
SMALL
GASTEIGER

@<TRIPOS>ATOM
      1  N          2.3740    7.6910   29.2610 N.3     6  LYS6       -0.1245
      2  CA         3.1350    6.4420   29.3250 C.3     6  LYS6        0.1561
      3  C          3.7710    6.1820   27.9670 C.2     6  LYS6        0.2260
      4  O          3.1020    6.3110   26.9360 O.2     6  LYS6       -0.2867
      5  CB         2.2380    5.2600   29.7040 C.3     6  LYS6        0.0271
      6  CG         3.0170    3.9720   29.9250 C.3     6  LYS6        0.0035
      7  CD         2.1530    2.8760   30.4780 C.3     6  LYS6        0.0206
      8  CE         2.9910    1.6670   30.8630 C.3     6  LYS6        0.1093
      9  NZ         2.1120    0.6490   31.4420 N.3     6  LYS6       -0.1314
     10  N          6.4530    3.5450   25.6830 N.3     8  LEU8       -0.1245
     11  CA         7.0620    2.2210   25.5520 C.3     8  LEU8        0.1561
     12  C          7.9660    2.1690   24.3170 C.2     8  LEU8        0.2260
     13  O          7.7500    2.8870   23.3320 O.2     8  LEU8       -0.2867
     14  CB         5.9820    1.1500   25.4310 C.3     8  LEU8        0.0270
     15  CG         5.0580    0.9840   26.6440 C.3     8  LEU8        0.0019
     16  CD1        4.0110   -0.0330   26.3220 C.3     8  LEU8        0.0001
     17  CD2        5.8080    0.5880   27.9080 C.3     8  LEU8        0.0001
     18  N         -5.2690    8.6700   30.2840 N.3    97  THR97      -0.1218
     19  CA        -3.9290    8.1470   30.0580 C.3    97  THR97       0.1862
     20  C         -3.6440    8.2440   28.5710 C.2    97  THR97       0.2287
     21  O         -4.3690    7.6600   27.7540 O.2    97  THR97      -0.2866
     22  CB        -3.7910    6.6970   30.5220 C.3    97  THR97       0.1770
     23  OG1       -4.0100    6.6270   31.9330 O.3    97  THR97      -0.2211
     24  CG2       -2.3940    6.1560   30.2070 C.3    97  THR97       0.0375
     25  N         -0.9590    7.1090   25.9490 N.3    99  ALA99      -0.1231
     26  CA         0.1480    6.1770   25.8100 C.3    99  ALA99       0.1694
     27  C          0.6900    6.1750   24.3870 C.2    99  ALA99       0.2592
     28  O         -0.0580    6.3380   23.4110 O.2    99  ALA99      -0.2718
     29  CB        -0.2710    4.7590   26.1810 C.3    99  ALA99       0.0304
     30  N          2.0000    5.9690   24.2780 N.am  100  ALA100     -0.1966
     31  CA         2.6600    5.8650   22.9800 C.3   100  ALA100      0.1728
     32  C          3.6530    4.7150   22.9590 C.2   100  ALA100      0.2616
     33  O          4.3850    4.4830   23.9310 O.2   100  ALA100     -0.2715
     34  CB         3.3980    7.1670   22.6290 C.3   100  ALA100      0.0334
     35  N          3.6680    4.0090   21.8290 N.am  101  LEU101     -0.1977
     36  CA         4.5870    2.9170   21.5430 C.3   101  LEU101      0.1596
     37  C          5.4890    3.3460   20.3950 C.2   101  LEU101      0.2287
     38  O          4.9990    3.6650   19.3060 O.2   101  LEU101     -0.2864
     39  CB         3.7990    1.6760   21.1380 C.3   101  LEU101      0.0297
     40  CG         4.5770    0.4160   20.7570 C.3   101  LEU101      0.0022
     41  CD1        5.4010   -0.0920   21.9090 C.3   101  LEU101      0.0001
     42  CD2        3.6020   -0.6620   20.2430 C.3   101  LEU101      0.0001
     43  N          2.6610    4.4280   17.5400 N.3   108  SER108     -0.1202
     44  CA         1.2430    4.2190   17.8010 C.3   108  SER108      0.2020
     45  C          0.8910    4.9560   19.0850 C.2   108  SER108      0.2619
     46  O          1.6970    5.0030   20.0250 O.2   108  SER108     -0.2717
     47  CB         0.9000    2.7320   17.9770 C.3   108  SER108      0.2103
     48  OG         1.1930    1.9630   16.8140 O.3   108  SER108     -0.2182
     49  N         -0.3000    5.5560   19.1240 N.am  109  THR109     -0.1938
     50  CA        -0.7540    6.2260   20.3310 C.3   109  THR109      0.2028
     51  C         -2.2200    5.9100   20.5840 C.2   109  THR109      0.2642
     52  O         -3.0090    5.7730   19.6430 O.2   109  THR109     -0.2714
     53  CB        -0.5000    7.7400   20.2470 C.3   109  THR109      0.1808
     54  OG1       -0.7630    8.3460   21.5080 O.3   109  THR109     -0.2208
     55  CG2       -1.3440    8.4240   19.1910 C.3   109  THR109      0.0379
     56  N         -2.5810    5.7840   21.8580 N.am  110  THR110     -0.1950
     57  CA        -3.9620    5.5230   22.2310 C.3   110  THR110      0.1897
     58  C         -4.2770    6.3230   23.4840 C.2   110  THR110      0.2313
     59  O         -3.3880    6.8300   24.1690 O.2   110  THR110     -0.2863
     60  CB        -4.2790    4.0130   22.4170 C.3   110  THR110      0.1794
     61  OG1       -5.7100    3.8050   22.4300 O.3   110  THR110     -0.2208
     62  CG2       -3.7140    3.4850   23.7010 C.3   110  THR110      0.0378
     63  N         -6.6970    6.0680   26.9930 N.3   112  VAL112     -0.1245
     64  CA        -7.5280    5.2950   27.9020 C.3   112  VAL112      0.1561
     65  C         -8.1630    6.2870   28.8600 C.2   112  VAL112      0.2260
     66  O         -7.4620    6.9570   29.6320 O.2   112  VAL112     -0.2867
     67  CB        -6.7260    4.2260   28.6510 C.3   112  VAL112      0.0252
     68  CG1       -7.6550    3.3280   29.4690 C.3   112  VAL112      0.0019
     69  CG2       -5.9070    3.3980   27.6560 C.3   112  VAL112      0.0019
@<TRIPOS>BOND
     1    48    47    1
     2    43    44    1
     3    44    47    1
     4    44    45    1
     5    45    49   am
     6    45    46    2
     7    49    50    1
     8    55    53    1
     9    38    37    2
    10    52    51    2
    11    42    40    1
    12    53    50    1
    13    53    54    1
    14    50    51    1
    15    37    36    1
    16    51    56   am
    17    40    39    1
    18    40    41    1
    19    39    36    1
    20    36    35    1
    21    35    32   am
    22    56    57    1
    23    57    60    1
    24    57    58    1
    25    60    61    1
    26    60    62    1
    27    34    31    1
    28    32    31    1
    29    32    33    2
    30    31    30    1
    31    13    12    2
    32    28    27    2
    33    58    59    2
    34    30    27   am
    35    12    11    1
    36    27    26    1
    37    14    11    1
    38    14    15    1
    39    11    10    1
    40    26    25    1
    41    26    29    1
    42    16    15    1
    43    15    17    1
    44     4     3    2
    45    63    64    1
    46    69    67    1
    47    21    20    2
    48    64    67    1
    49    64    65    1
    50     3     2    1
    51    20    19    1
    52    67    68    1
    53    65    66    2
    54     1     2    1
    55     2     5    1
    56     5     6    1
    57     6     7    1
    58    19    18    1
    59    19    22    1
    60    24    22    1
    61     7     8    1
    62    22    23    1
    63     8     9    1
