@<TRIPOS>MOLECULE
tmp/5l4jB00.pdb
 84 75 0 0 0
SMALL
GASTEIGER

@<TRIPOS>ATOM
      1  N        -40.4710    7.4810   93.9560 N.3     6  LYS6       -0.1245
      2  CA       -39.6810    6.2570   93.9640 C.3     6  LYS6        0.1561
      3  C        -39.0410    6.0770   92.5970 C.2     6  LYS6        0.2260
      4  O        -39.6980    6.2720   91.5700 O.2     6  LYS6       -0.2867
      5  CB       -40.5390    5.0260   94.2810 C.3     6  LYS6        0.0271
      6  CG       -41.3480    5.1140   95.5600 C.3     6  LYS6        0.0035
      7  CD       -41.9300    3.7530   95.9130 C.3     6  LYS6        0.0206
      8  CE       -42.7420    3.8020   97.1900 C.3     6  LYS6        0.1093
      9  NZ       -43.2900    2.4690   97.5680 N.3     6  LYS6       -0.1314
     10  N        -36.4010    3.4340   90.2940 N.3     8  LEU8       -0.1245
     11  CA       -35.7490    2.1410   90.1570 C.3     8  LEU8        0.1561
     12  C        -34.8280    2.1340   88.9430 C.2     8  LEU8        0.2260
     13  O        -35.0350    2.8730   87.9760 O.2     8  LEU8       -0.2867
     14  CB       -36.7740    1.0080   90.0140 C.3     8  LEU8        0.0270
     15  CG       -37.6970    0.7270   91.2010 C.3     8  LEU8        0.0019
     16  CD1      -38.6020   -0.4550   90.8860 C.3     8  LEU8        0.0001
     17  CD2      -36.8990    0.4620   92.4670 C.3     8  LEU8        0.0001
     18  N        -32.7950   -0.1470   93.4820 N.3    15  PRO15      -0.2116
     19  CA       -33.2250    1.2440   93.6260 C.3    15  PRO15       0.1372
     20  C        -32.2050    2.1700   92.9860 C.2    15  PRO15       0.2244
     21  O        -31.0120    1.8630   92.9220 O.2    15  PRO15      -0.2868
     22  CB       -33.2950    1.4490   95.1450 C.3    15  PRO15       0.0268
     23  CG       -33.2840    0.0840   95.7400 C.3    15  PRO15       0.0207
     24  CD       -32.5660   -0.8010   94.7800 C.3    15  PRO15       0.0892
     25  N        -33.0350    3.3440   99.4300 N.3    43  SER43      -0.1217
     26  CA       -34.1450    2.5420   98.9370 C.3    43  SER43       0.1889
     27  C        -34.7590    3.1240   97.6700 C.2    43  SER43       0.2288
     28  O        -35.7900    2.6270   97.2070 O.2    43  SER43      -0.2866
     29  CB       -35.2210    2.4090  100.0180 C.3    43  SER43       0.2089
     30  OG       -35.8590    3.6490  100.2540 O.3    43  SER43      -0.2183
     31  N        -36.1600    6.0290   97.3910 N.3    45  GLU45      -0.1245
     32  CA       -37.3580    6.7740   97.7390 C.3    45  GLU45       0.1567
     33  C        -36.9960    8.1480   98.2860 C.2    45  GLU45       0.2260
     34  O        -35.9490    8.3370   98.9120 O.2    45  GLU45      -0.2867
     35  CB       -38.1940    6.0100   98.7710 C.3    45  GLU45       0.0388
     36  CG       -38.5880    4.6110   98.3260 C.3    45  GLU45       0.1160
     37  CD       -39.4360    3.8810   99.3480 C.2    45  GLU45       0.3649
     38  OE1      -39.7760    4.4860  100.3860 O.co2  45  GLU45      -0.2457
     39  OE2      -39.7610    2.6970   99.1130 O.co2  45  GLU45      -0.2457
     40  N        -48.0070    8.7950   94.8740 N.3    97  THR97      -0.1218
     41  CA       -46.6930    8.1960   94.6730 C.3    97  THR97       0.1862
     42  C        -46.3420    8.2830   93.1940 C.2    97  THR97       0.2287
     43  O        -47.0620    7.7430   92.3460 O.2    97  THR97      -0.2866
     44  CB       -46.6550    6.7430   95.1500 C.3    97  THR97       0.1770
     45  OG1      -46.8090    6.7010   96.5730 O.3    97  THR97      -0.2211
     46  CG2      -45.3300    6.0810   94.7760 C.3    97  THR97       0.0375
     47  N        -43.7680    7.0220   90.6270 N.3    99  ALA99      -0.1231
     48  CA       -42.7740    5.9780   90.4470 C.3    99  ALA99       0.1694
     49  C        -42.1610    6.0840   89.0570 C.2    99  ALA99       0.2592
     50  O        -42.8310    6.4610   88.0930 O.2    99  ALA99      -0.2718
     51  CB       -43.3930    4.5920   90.6440 C.3    99  ALA99       0.0304
     52  N        -40.8740    5.7550   88.9640 N.am  100  ALA100     -0.1966
     53  CA       -40.1500    5.8270   87.7050 C.3   100  ALA100      0.1728
     54  C        -39.1760    4.6630   87.6040 C.2   100  ALA100      0.2616
     55  O        -38.4980    4.3240   88.5780 O.2   100  ALA100     -0.2715
     56  CB       -39.3950    7.1540   87.5670 C.3   100  ALA100      0.0334
     57  N        -39.1170    4.0610   86.4180 N.am  101  LEU101     -0.1977
     58  CA       -38.2120    2.9590   86.1070 C.3   101  LEU101      0.1596
     59  C        -37.2830    3.4120   84.9890 C.2   101  LEU101      0.2287
     60  O        -37.7470    3.7590   83.8980 O.2   101  LEU101     -0.2864
     61  CB       -39.0020    1.7140   85.6930 C.3   101  LEU101      0.0297
     62  CG       -38.1940    0.4830   85.2770 C.3   101  LEU101      0.0022
     63  CD1      -37.3780   -0.0320   86.4480 C.3   101  LEU101      0.0001
     64  CD2      -39.1150   -0.6080   84.7430 C.3   101  LEU101      0.0001
     65  N        -40.0470    4.6420   82.1860 N.3   108  SER108     -0.1217
     66  CA       -41.4760    4.5920   82.4180 C.3   108  SER108      0.1889
     67  C        -41.7740    5.3060   83.7250 C.2   108  SER108      0.2288
     68  O        -40.9190    5.4000   84.6110 O.2   108  SER108     -0.2866
     69  CB       -41.9900    3.1490   82.4730 C.3   108  SER108      0.2089
     70  OG       -41.4800    2.4730   83.6070 O.3   108  SER108     -0.2183
     71  N        -45.2250    5.9060   86.5420 N.3   110  THR110     -0.1218
     72  CA       -46.5570    5.5200   86.9690 C.3   110  THR110      0.1862
     73  C        -46.9660    6.3990   88.1390 C.2   110  THR110      0.2287
     74  O        -46.1230    6.8540   88.9170 O.2   110  THR110     -0.2866
     75  CB       -46.5960    4.0390   87.3830 C.3   110  THR110      0.1770
     76  OG1      -46.2510    3.2190   86.2610 O.3   110  THR110     -0.2211
     77  CG2      -47.9740    3.6390   87.8980 C.3   110  THR110      0.0375
     78  N        -49.3840    6.2460   91.4690 N.3   112  VAL112     -0.1245
     79  CA       -50.1860    5.4550   92.3900 C.3   112  VAL112      0.1561
     80  C        -50.8550    6.4420   93.3360 C.2   112  VAL112      0.2260
     81  O        -50.1830    7.1010   94.1390 O.2   112  VAL112     -0.2867
     82  CB       -49.3400    4.4250   93.1500 C.3   112  VAL112      0.0252
     83  CG1      -50.2330    3.4650   93.9150 C.3   112  VAL112      0.0019
     84  CG2      -48.4330    3.6640   92.1900 C.3   112  VAL112      0.0019
@<TRIPOS>BOND
     1    65    66    1
     2    66    69    1
     3    66    67    1
     4    69    70    1
     5    67    68    2
     6    60    59    2
     7    64    62    1
     8    59    58    1
     9    62    61    1
    10    62    63    1
    11    61    58    1
    12    58    57    1
    13    76    75    1
    14    57    54   am
    15    71    72    1
    16    72    75    1
    17    72    73    1
    18    75    77    1
    19    56    53    1
    20    54    53    1
    21    54    55    2
    22    53    52    1
    23    13    12    2
    24    50    49    2
    25    73    74    2
    26    12    11    1
    27    52    49   am
    28    49    48    1
    29    14    11    1
    30    14    15    1
    31    11    10    1
    32    48    47    1
    33    48    51    1
    34    16    15    1
    35    15    17    1
    36    78    79    1
    37     4     3    2
    38    84    82    1
    39    43    42    2
    40    79    82    1
    41    79    80    1
    42     3     2    1
    43    21    20    2
    44    20    19    1
    45    82    83    1
    46    42    41    1
    47    80    81    2
    48    18    19    1
    49    18    24    1
    50    19    22    1
    51     1     2    1
    52     2     5    1
    53     5     6    1
    54    41    40    1
    55    41    44    1
    56    46    44    1
    57    24    23    1
    58    22    23    1
    59    44    45    1
    60     6     7    1
    61     7     8    1
    62     8     9    1
    63    28    27    2
    64    31    32    1
    65    27    26    1
    66    32    33    1
    67    32    35    1
    68    33    34    2
    69    36    35    1
    70    36    37    1
    71    26    25    1
    72    26    29    1
    73    39    37   ar
    74    37    38   ar
    75    29    30    1
