@<TRIPOS>MOLECULE
tmp/5l4lA01.pdb
 182 177 0 0 0
SMALL
GASTEIGER

@<TRIPOS>ATOM
      1  N         -1.7570    3.6950   12.8280 N.3    94  SER94      -0.1202
      2  CA        -0.7060    2.7590   12.4670 C.3    94  SER94       0.2020
      3  C          0.5720    3.1830   13.1430 C.2    94  SER94       0.2619
      4  O          0.8610    4.3890   13.2090 O.2    94  SER94      -0.2717
      5  CB        -0.4640    2.7500   10.9570 C.3    94  SER94       0.2103
      6  OG         0.7120    2.0210   10.6390 O.3    94  SER94      -0.2182
      7  N          1.3610    2.2090   13.5720 N.am   95  ILE95      -0.1965
      8  CA         2.6890    2.4950   14.1480 C.3    95  ILE95       0.1727
      9  C          3.5700    3.2190   13.1180 C.2    95  ILE95       0.2616
     10  O          4.5510    3.8730   13.5030 O.2    95  ILE95      -0.2715
     11  CB         3.3400    1.1950   14.6680 C.3    95  ILE95       0.0290
     12  CG1        4.3550    1.4740   15.7960 C.3    95  ILE95       0.0022
     13  CG2        3.9470    0.3840   13.5320 C.3    95  ILE95       0.0023
     14  CD1        4.7270    0.2100   16.5490 C.3    95  ILE95       0.0001
     15  N          3.2540    3.0980   11.8210 N.am   96  ALA96      -0.1977
     16  CA         4.0730    3.7370   10.7740 C.3    96  ALA96       0.1597
     17  C          4.1620    5.2420   10.9500 C.2    96  ALA96       0.2287
     18  O          5.1070    5.8580   10.4480 O.2    96  ALA96      -0.2864
     19  CB         3.5100    3.4320    9.3910 C.3    96  ALA96       0.0319
     20  N          7.5210    6.4740   12.5410 N.3    99  TRP99      -0.1241
     21  CA         8.8050    6.1140   11.9470 C.3    99  TRP99       0.1605
     22  C          9.4580    7.3300   11.3420 C.2    99  TRP99       0.2264
     23  O          8.7890    8.3010   11.0170 O.2    99  TRP99      -0.2867
     24  CB         8.6170    5.0450   10.8820 C.3    99  TRP99       0.0550
     25  CG         8.1620    3.7280   11.4340 C.ar   99  TRP99       0.0003
     26  CD1        8.0900    3.3540   12.7400 C.ar   99  TRP99       0.0946
     27  CD2        7.8120    2.5860   10.6690 C.ar   99  TRP99       0.0152
     28  NE1        7.6660    2.0510   12.8400 N.ar   99  TRP99      -0.2442
     29  CE2        7.4790    1.5600   11.5790 C.ar   99  TRP99       0.0810
     30  CE3        7.7260    2.3330    9.2950 C.ar   99  TRP99       0.0012
     31  CZ2        7.0910    0.2800   11.1540 C.ar   99  TRP99       0.0191
     32  CZ3        7.3210    1.0720    8.8720 C.ar   99  TRP99       0.0001
     33  CH2        7.0140    0.0620    9.8010 C.ar   99  TRP99       0.0015
     34  N          3.7050    6.2220    2.1050 N.3   106  PRO106     -0.2102
     35  CA         2.2760    6.2890    1.8070 C.3   106  PRO106      0.1504
     36  C          1.3700    5.9240    3.0010 C.2   106  PRO106      0.2575
     37  O          0.3180    6.5310    3.2020 O.2   106  PRO106     -0.2718
     38  CB         2.1160    5.2640    0.6740 C.3   106  PRO106      0.0282
     39  CG         3.4440    5.2830   -0.0160 C.3   106  PRO106      0.0208
     40  CD         4.4480    5.4540    1.0870 C.3   106  PRO106      0.0893
     41  N          1.7550    4.8900    3.7350 N.am  107  ILE107     -0.1980
     42  CA         0.9770    4.4140    4.8870 C.3   107  ILE107      0.1595
     43  C          1.0680    5.4090    6.0640 C.2   107  ILE107      0.2287
     44  O          0.0510    5.7620    6.6750 O.2   107  ILE107     -0.2864
     45  CB         1.4180    2.9840    5.2680 C.3   107  ILE107      0.0276
     46  CG1        1.1600    2.0140    4.1030 C.3   107  ILE107      0.0022
     47  CG2        0.6870    2.5370    6.5310 C.3   107  ILE107      0.0022
     48  CD1        1.6750    0.6180    4.3360 C.3   107  ILE107      0.0001
     49  N         -1.0870    8.4930    5.0690 N.3   110  MET110     -0.1230
     50  CA        -2.5320    8.3210    5.1330 C.3   110  MET110      0.1702
     51  C         -3.0420    8.4430    6.5800 C.2   110  MET110      0.2592
     52  O         -4.0590    9.0760    6.8510 O.2   110  MET110     -0.2718
     53  CB        -3.0100    6.9830    4.5400 C.3   110  MET110      0.0401
     54  CG        -4.5460    6.8780    4.5850 C.3   110  MET110      0.0596
     55  SD        -5.3470    5.3960    3.9880 S.3   110  MET110     -0.1393
     56  CE        -5.5790    4.4390    5.4790 C.3   110  MET110      0.0692
     57  N         -2.3030    7.8390    7.5060 N.am  111  HIS111     -0.1976
     58  CA        -2.7000    7.8620    8.9010 C.3   111  HIS111      0.1656
     59  C         -2.4370    9.2100    9.5560 C.2   111  HIS111      0.2291
     60  O         -3.2890    9.6820   10.3270 O.2   111  HIS111     -0.2864
     61  CB        -2.0860    6.6760    9.6560 C.3   111  HIS111      0.0771
     62  CG        -2.6200    5.3520    9.1780 C.ar  111  HIS111      0.0820
     63  ND1       -2.0670    4.6270    8.1440 N.ar  111  HIS111     -0.2267
     64  CD2       -3.7210    4.6570    9.5620 C.ar  111  HIS111      0.1154
     65  CE1       -2.7920    3.5300    7.9480 C.ar  111  HIS111      0.1986
     66  NE2       -3.8010    3.5320    8.7880 N.ar  111  HIS111     -0.2212
     67  N         -1.2110    0.1610   15.8930 N.3   130  PRO130     -0.2102
     68  CA        -0.6120   -1.1710   15.8500 C.3   130  PRO130      0.1504
     69  C          0.4730   -1.2850   14.8050 C.2   130  PRO130      0.2576
     70  O          0.4990   -0.5440   13.8260 O.2   130  PRO130     -0.2718
     71  CB        -1.7780   -2.0900   15.4930 C.3   130  PRO130      0.0282
     72  CG        -2.7440   -1.2170   14.8170 C.3   130  PRO130      0.0208
     73  CD        -2.5720    0.1800   15.3340 C.3   130  PRO130      0.0893
     74  N          1.3570   -2.2470   15.0360 N.am  131  GLU131     -0.1966
     75  CA         2.2480   -2.7780   13.9990 C.3   131  GLU131      0.1733
     76  C          1.4540   -3.8090   13.1560 C.2   131  GLU131      0.2616
     77  O          0.2740   -3.6130   12.9130 O.2   131  GLU131     -0.2715
     78  CB         3.5430   -3.3130   14.6370 C.3   131  GLU131      0.0429
     79  CG         4.7440   -3.3340   13.6890 C.3   131  GLU131      0.1163
     80  CD         5.4320   -4.6760   13.5920 C.2   131  GLU131      0.3649
     81  OE1        4.7660   -5.6900   13.4340 O.co2 131  GLU131     -0.2457
     82  OE2        6.6870   -4.7480   13.6270 O.co2 131  GLU131     -0.2457
     83  N          2.0780   -4.8640   12.6690 N.am  132  ALA132     -0.1977
     84  CA         1.4180   -5.7760   11.7770 C.3   132  ALA132      0.1597
     85  C          0.2360   -6.4310   12.4630 C.2   132  ALA132      0.2287
     86  O          0.3590   -6.9580   13.5630 O.2   132  ALA132     -0.2864
     87  CB         2.3750   -6.8470   11.3030 C.3   132  ALA132      0.0319
     88  N         -3.2090  -10.3290    8.9670 N.3   136  ASN136     -0.1240
     89  CA        -2.5500  -10.3620    7.6490 C.3   136  ASN136      0.1653
     90  C         -2.2860  -11.8160    7.2320 C.2   136  ASN136      0.2266
     91  O         -2.2760  -12.1320    6.0290 O.2   136  ASN136     -0.2867
     92  CB        -1.2460   -9.5850    7.6690 C.3   136  ASN136      0.1155
     93  CG        -1.4330   -8.0940    7.8610 C.2   136  ASN136      0.2627
     94  OD1       -2.5360   -7.5710    7.8300 O.2   136  ASN136     -0.2716
     95  ND2       -0.3320   -7.3940    8.0900 N.am  136  ASN136     -0.0877
     96  N          8.0890   -9.2730   11.7180 N.3   159  THR159     -0.1218
     97  CA         7.0920   -8.3520   12.2340 C.3   159  THR159      0.1862
     98  C          6.8000   -8.7690   13.6650 C.2   159  THR159      0.2287
     99  O          7.4050   -9.7160   14.1910 O.2   159  THR159     -0.2866
    100  CB         5.8480   -8.3040   11.3610 C.3   159  THR159      0.1770
    101  OG1        5.3040   -9.6120   11.3050 O.3   159  THR159     -0.2211
    102  CG2        6.1700   -7.7750    9.9590 C.3   159  THR159      0.0375
    103  N         -5.1880   -6.5530   -3.1340 N.3   227  LEU227     -0.1231
    104  CA        -5.7100   -6.0090   -1.8820 C.3   227  LEU227      0.1693
    105  C         -5.5380   -4.5020   -1.7680 C.2   227  LEU227      0.2592
    106  O         -6.3620   -3.8280   -1.1380 O.2   227  LEU227     -0.2718
    107  CB        -4.9910   -6.6460   -0.6900 C.3   227  LEU227      0.0284
    108  CG        -5.0180   -8.1720   -0.6040 C.3   227  LEU227      0.0019
    109  CD1       -4.2490   -8.6640    0.6090 C.3   227  LEU227      0.0001
    110  CD2       -6.4590   -8.6580   -0.5780 C.3   227  LEU227      0.0001
    111  N         -4.4480   -3.9730   -2.3330 N.am  228  TYR228     -0.1963
    112  CA        -3.9960   -2.6310   -2.0070 C.3   228  TYR228      0.1756
    113  C         -3.5820   -1.8580   -3.2310 C.2   228  TYR228      0.2466
    114  O         -3.1670   -2.4500   -4.2160 O.2   228  TYR228     -0.2730
    115  CB        -2.7660   -2.7010   -1.0840 C.3   228  TYR228      0.0574
    116  CG        -2.9290   -3.5330    0.1650 C.ar  228  TYR228     -0.0198
    117  CD1       -3.8770   -3.2150    1.1170 C.ar  228  TYR228     -0.0009
    118  CD2       -2.1170   -4.6460    0.3930 C.ar  228  TYR228     -0.0009
    119  CE1       -4.0090   -3.9710    2.2650 C.ar  228  TYR228      0.0417
    120  CE2       -2.2330   -5.4060    1.5410 C.ar  228  TYR228      0.0417
    121  CZ        -3.1810   -5.0710    2.4790 C.ar  228  TYR228      0.1957
    122  OH        -3.3310   -5.8260    3.6340 O.3   228  TYR228     -0.2866
    123  N         -3.6540   -0.5150   -3.1600 N.am  229  PRO229     -0.2651
    124  CA        -3.0890    0.3430   -4.2020 C.3   229  PRO229      0.1628
    125  C         -1.5960    0.1320   -4.3670 C.2   229  PRO229      0.2315
    126  O         -0.9080   -0.2350   -3.4100 O.2   229  PRO229     -0.2861
    127  CB        -3.3360    1.7670   -3.7030 C.2   229  PRO229     -0.0016
    128  CG        -4.1410    1.6650   -2.4800 C.2   229  PRO229     -0.0072
    129  CD        -4.2340    0.2450   -2.0420 C.3   229  PRO229      0.1203
    130  N          0.9790    2.0760   -4.5430 N.3   231  GLU231     -0.1231
    131  CA         1.7550    2.8640   -3.5830 C.3   231  GLU231      0.1699
    132  C          1.9360    2.1450   -2.2360 C.2   231  GLU231      0.2592
    133  O          3.0250    2.1710   -1.6420 O.2   231  GLU231     -0.2718
    134  CB         1.0650    4.2270   -3.3750 C.3   231  GLU231      0.0402
    135  CG         1.0710    5.1420   -4.6020 C.3   231  GLU231      0.1161
    136  CD        -0.0820    4.9190   -5.5860 C.2   231  GLU231      0.3649
    137  OE1       -0.8760    3.9630   -5.4380 O.co2 231  GLU231     -0.2457
    138  OE2       -0.1990    5.7260   -6.5360 O.co2 231  GLU231     -0.2457
    139  N          0.8610    1.5120   -1.7780 N.am  232  VAL232     -0.1980
    140  CA         0.8410    0.7650   -0.5310 C.3   232  VAL232      0.1595
    141  C          1.6330   -0.5330   -0.6810 C.2   232  VAL232      0.2287
    142  O          2.3910   -0.9020    0.2100 O.2   232  VAL232     -0.2864
    143  CB        -0.6030    0.4670   -0.0800 C.3   232  VAL232      0.0276
    144  CG1       -0.6460   -0.4990    1.0910 C.3   232  VAL232      0.0022
    145  CG2       -1.2940    1.7880    0.2460 C.3   232  VAL232      0.0022
    146  N          5.2510    0.2160   -0.3940 N.3   235  ALA235     -0.1231
    147  CA         5.6350    0.4750    0.9890 C.3   235  ALA235      0.1694
    148  C          5.7470   -0.8290    1.7790 C.2   235  ALA235      0.2591
    149  O          6.6710   -1.0030    2.5840 O.2   235  ALA235     -0.2718
    150  CB         4.6540    1.4230    1.6450 C.3   235  ALA235      0.0304
    151  N          4.7720   -1.7160    1.5930 N.am  236  ILE236     -0.1980
    152  CA         4.7870   -3.0080    2.3050 C.3   236  ILE236      0.1595
    153  C          6.0460   -3.7980    1.9410 C.2   236  ILE236      0.2287
    154  O          6.7530   -4.2940    2.8260 O.2   236  ILE236     -0.2864
    155  CB         3.5350   -3.8410    1.9930 C.3   236  ILE236      0.0276
    156  CG1        2.3000   -3.1860    2.6030 C.3   236  ILE236      0.0022
    157  CG2        3.7010   -5.2750    2.5040 C.3   236  ILE236      0.0022
    158  CD1        0.9850   -3.7790    2.1470 C.3   236  ILE236      0.0001
    159  N          9.1800   -2.2370    3.3880 N.3   239  GLY239     -0.1210
    160  CA         9.2410   -2.4640    4.8210 C.3   239  GLY239      0.1956
    161  C          9.6570   -3.8850    5.1640 C.2   239  GLY239      0.2611
    162  O         10.4580   -4.0930    6.0620 O.2   239  GLY239     -0.2717
    163  N          9.1310   -4.8580    4.4230 N.am  240  GLN240     -0.1979
    164  CA         9.5360   -6.2520    4.6050 C.3   240  GLN240      0.1601
    165  C         10.9840   -6.4730    4.2530 C.2   240  GLN240      0.2287
    166  O         11.6920   -7.1290    5.0100 O.2   240  GLN240     -0.2864
    167  CB         8.6550   -7.1750    3.7990 C.3   240  GLN240      0.0394
    168  CG         7.2580   -7.2130    4.3870 C.3   240  GLN240      0.0908
    169  CD         6.3290   -8.1580    3.6810 C.2   240  GLN240      0.2608
    170  OE1        6.6370   -8.6630    2.6100 O.2   240  GLN240     -0.2717
    171  NE2        5.1440   -8.3590    4.2590 N.am  240  GLN240     -0.0878
    172  N         13.1260   -5.4320    7.0080 N.3   243  ARG243     -0.1245
    173  CA        13.0500   -6.2790    8.1940 C.3   243  ARG243      0.1563
    174  C         13.5710   -7.6920    7.9520 C.2   243  ARG243      0.2260
    175  O         13.5490   -8.5080    8.8660 O.2   243  ARG243     -0.2867
    176  CB        11.6140   -6.3040    8.7340 C.3   243  ARG243      0.0307
    177  CG        11.1670   -4.9620    9.2910 C.3   243  ARG243      0.0489
    178  CD        11.2740   -4.8620   10.8040 C.3   243  ARG243      0.2205
    179  NE        12.6380   -4.9360   11.3160 N.pl3 243  ARG243     -0.0865
    180  CZ        13.0610   -4.2140   12.3410 C.cat 243  ARG243      0.5346
    181  NH1       14.2910   -4.3250   12.7590 N.pl3 243  ARG243      0.1354
    182  NH2       12.2440   -3.3580   12.9350 N.pl3 243  ARG243      0.1354
@<TRIPOS>BOND
     1   138   136   ar
     2   136   137   ar
     3   136   135    1
     4   135   134    1
     5   130   131    1
     6   125   124    1
     7   125   126    2
     8   114   113    2
     9   124   127    1
    10   124   123    1
    11   127   128    2
    12   131   134    1
    13   131   132    1
    14   113   123   am
    15   113   112    1
    16   123   129    1
    17   103   104    1
    18   128   129    1
    19   111   112    1
    20   111   105   am
    21   132   139   am
    22   132   133    2
    23   112   115    1
    24   104   105    1
    25   104   107    1
    26   139   140    1
    27   105   106    2
    28   115   116    1
    29   107   108    1
    30   141   140    1
    31   141   142    2
    32   108   110    1
    33   108   109    1
    34   140   143    1
    35   146   147    1
    36   143   145    1
    37   143   144    1
    38    39    38    1
    39    39    40    1
    40   116   118   ar
    41   116   117   ar
    42   118   120   ar
    43    38    35    1
    44   147   150    1
    45   147   148    1
    46    40    34    1
    47   117   119   ar
    48   120   121   ar
    49   151   148   am
    50   151   152    1
    51   148   149    2
    52    35    34    1
    53    35    36    1
    54   153   152    1
    55   153   154    2
    56   155   152    1
    57   155   157    1
    58   155   156    1
    59   158   156    1
    60   119   121   ar
    61   121   122    1
    62   170   169    2
    63    36    37    2
    64    36    41   am
    65   159   160    1
    66   169   171   am
    67   169   168    1
    68    41    42    1
    69   167   168    1
    70   167   164    1
    71    55    54    1
    72    55    56    1
    73    46    48    1
    74    46    45    1
    75   165   164    1
    76   165   166    2
    77   163   164    1
    78   163   161   am
    79    53    54    1
    80    53    50    1
    81   160   161    1
    82    42    45    1
    83    42    43    1
    84    49    50    1
    85    50    51    1
    86   161   162    2
    87    45    47    1
    88    91    90    2
    89    43    44    2
    90    51    52    2
    91    51    57   am
    92   172   173    1
    93    90    89    1
    94    57    58    1
    95    89    92    1
    96    89    88    1
    97    92    93    1
    98    94    93    2
    99    93    95   am
   100    65    63   ar
   101    65    66   ar
   102   174   173    1
   103   174   175    2
   104    63    62   ar
   105   173   176    1
   106   176   177    1
   107    66    64   ar
   108    32    30   ar
   109    32    33   ar
   110    58    59    1
   111    58    61    1
   112    62    64   ar
   113    62    61    1
   114   177   178    1
   115    30    27   ar
   116    19    16    1
   117    59    60    2
   118    33    31   ar
   119   102   100    1
   120    18    17    2
   121     6     5    1
   122    27    25   ar
   123    27    29   ar
   124    16    17    1
   125    16    15    1
   126   178   179    1
   127    24    25    1
   128    24    21    1
   129     5     2    1
   130    23    22    2
   131    31    29   ar
   132    87    84    1
   133   101   100    1
   134   179   180    2
   135    22    21    1
   136   100    97    1
   137    25    26   ar
   138    29    28   ar
   139    96    97    1
   140    84    85    1
   141    84    83    1
   142    15     9   am
   143    21    20    1
   144    97    98    1
   145   180   181    1
   146   180   182    1
   147    85    86    2
   148     2     1    1
   149     2     3    1
   150    83    76   am
   151    26    28   ar
   152    77    76    2
   153     9    10    2
   154     9     8    1
   155     3     4    2
   156     3     7   am
   157    76    75    1
   158    81    80   ar
   159    13    11    1
   160     7     8    1
   161    80    82   ar
   162    80    79    1
   163    98    99    2
   164    79    78    1
   165    70    69    2
   166    75    78    1
   167    75    74    1
   168     8    11    1
   169    11    12    1
   170    69    74   am
   171    69    68    1
   172    72    73    1
   173    72    71    1
   174    73    67    1
   175    71    68    1
   176    12    14    1
   177    68    67    1
