@<TRIPOS>MOLECULE
tmp/5l4sA00.pdb
 115 109 0 0 0
SMALL
GASTEIGER

@<TRIPOS>ATOM
      1  N        -15.0490   -9.8200   10.6910 N.3    93  SER93      -0.1217
      2  CA       -13.7630   -9.6300    9.9730 C.3    93  SER93       0.1889
      3  C        -13.1460   -8.2300   10.0040 C.2    93  SER93       0.2288
      4  O        -11.9460   -8.0880    9.7110 O.2    93  SER93      -0.2866
      5  CB       -13.9410  -10.0510    8.5310 C.3    93  SER93       0.2089
      6  OG       -14.6610   -9.0520    7.8590 O.3    93  SER93      -0.2183
      7  N        -12.0850  -11.0920   -1.3620 N.3   104  PHE104     -0.1241
      8  CA       -11.8760  -11.4990    0.0290 C.3   104  PHE104      0.1605
      9  C        -11.2400  -12.8810    0.0640 C.2   104  PHE104      0.2264
     10  O        -10.2560  -13.1050    0.7910 O.2   104  PHE104     -0.2867
     11  CB       -13.2360  -11.5030    0.7030 C.3   104  PHE104      0.0534
     12  CG       -13.2270  -11.6370    2.2140 C.ar  104  PHE104     -0.0203
     13  CD1      -13.1570  -10.5350    3.0120 C.ar  104  PHE104     -0.0042
     14  CD2      -13.3490  -12.8730    2.8280 C.ar  104  PHE104     -0.0042
     15  CE1      -13.1920  -10.6470    4.3820 C.ar  104  PHE104     -0.0003
     16  CE2      -13.3630  -12.9650    4.1980 C.ar  104  PHE104     -0.0003
     17  CZ       -13.2980  -11.8580    4.9500 C.ar  104  PHE104     -0.0000
     18  N         -7.5920  -14.5000    1.4130 N.3   108  ILE108     -0.1245
     19  CA        -7.4680  -15.6880    2.2410 C.3   108  ILE108      0.1561
     20  C         -6.4950  -16.6840    1.6320 C.2   108  ILE108      0.2260
     21  O         -5.6240  -17.2430    2.3420 O.2   108  ILE108     -0.2867
     22  CB        -8.8550  -16.3170    2.4970 C.3   108  ILE108      0.0252
     23  CG1       -9.6920  -15.3710    3.3680 C.3   108  ILE108      0.0019
     24  CG2       -8.7340  -17.6980    3.1250 C.3   108  ILE108      0.0019
     25  CD1      -11.1370  -15.7970    3.5120 C.3   108  ILE108      0.0001
     26  N        -10.6150  -19.5480   16.9090 N.3   177  SER177     -0.1202
     27  CA        -9.5850  -18.6140   16.5020 C.3   177  SER177      0.2020
     28  C         -9.2560  -18.8620   15.0400 C.2   177  SER177      0.2619
     29  O        -10.1220  -19.3210   14.2780 O.2   177  SER177     -0.2717
     30  CB        -8.4070  -18.7150   17.4740 C.3   177  SER177      0.2103
     31  OG        -7.4700  -17.6900   17.1430 O.3   177  SER177     -0.2182
     32  N         -8.0230  -18.5750   14.6560 N.am  178  SER178     -0.1951
     33  CA        -7.6120  -18.7520   13.2740 C.3   178  SER178      0.1924
     34  C         -6.1310  -18.9620   13.2400 C.2   178  SER178      0.2314
     35  O         -5.4030  -18.3470   14.0050 O.2   178  SER178     -0.2863
     36  CB        -7.9420  -17.5270   12.3970 C.3   178  SER178      0.2116
     37  OG        -7.3430  -17.7200   11.1280 O.3   178  SER178     -0.2180
     38  N         -4.5390  -17.5730   11.1200 N.3   180  PHE180     -0.1241
     39  CA        -4.0440  -16.2560   10.7490 C.3   180  PHE180      0.1605
     40  C         -3.6640  -15.4070   11.9430 C.2   180  PHE180      0.2264
     41  O         -3.0930  -14.3320   11.7210 O.2   180  PHE180     -0.2867
     42  CB        -5.0330  -15.5720    9.7980 C.3   180  PHE180      0.0534
     43  CG        -5.2100  -16.3110    8.4860 C.ar  180  PHE180     -0.0203
     44  CD1       -4.1340  -16.9100    7.8310 C.ar  180  PHE180     -0.0042
     45  CD2       -6.4570  -16.4930    7.9620 C.ar  180  PHE180     -0.0042
     46  CE1       -4.3240  -17.5880    6.6080 C.ar  180  PHE180     -0.0003
     47  CE2       -6.6420  -17.1250    6.7910 C.ar  180  PHE180     -0.0003
     48  CZ        -5.5690  -17.6820    6.0910 C.ar  180  PHE180     -0.0000
     49  N         -6.0480   -7.6970    6.3670 N.3   231  PHE231     -0.1241
     50  CA        -6.6000   -8.4780    7.4860 C.3   231  PHE231      0.1605
     51  C         -5.9280   -8.0820    8.8040 C.2   231  PHE231      0.2264
     52  O         -5.7300   -8.8980    9.7020 O.2   231  PHE231     -0.2867
     53  CB        -6.5340   -9.9740    7.2260 C.3   231  PHE231      0.0534
     54  CG        -7.5800  -10.4770    6.2400 C.ar  231  PHE231     -0.0203
     55  CD1       -8.9070  -10.1160    6.3440 C.ar  231  PHE231     -0.0042
     56  CD2       -7.2260  -11.3720    5.2330 C.ar  231  PHE231     -0.0042
     57  CE1       -9.8270  -10.6350    5.4190 C.ar  231  PHE231     -0.0003
     58  CE2       -8.1590  -11.8860    4.3500 C.ar  231  PHE231     -0.0003
     59  CZ        -9.4370  -11.5260    4.4700 C.ar  231  PHE231     -0.0000
     60  N         -8.2080   -8.5050   11.9690 N.3   234  GLU234     -0.1231
     61  CA        -8.4680   -9.9340   12.1630 C.3   234  GLU234      0.1699
     62  C         -7.2350  -10.6230   12.7500 C.2   234  GLU234      0.2592
     63  O         -7.3300  -11.3970   13.7140 O.2   234  GLU234     -0.2718
     64  CB        -8.8520  -10.5900   10.8280 C.3   234  GLU234      0.0402
     65  CG       -10.3340  -10.5990   10.5260 C.3   234  GLU234      0.1161
     66  CD       -11.1130  -11.7440   11.2540 C.2   234  GLU234      0.3649
     67  OE1      -10.7570  -12.1310   12.3640 O.co2 234  GLU234     -0.2457
     68  OE2      -12.0540  -12.3270   10.6460 O.co2 234  GLU234     -0.2457
     69  N         -6.0660  -10.3780   12.1480 N.am  235  ARG235     -0.1980
     70  CA        -4.8350  -11.0060   12.6140 C.3   235  ARG235      0.1597
     71  C         -4.5180  -10.6030   14.0500 C.2   235  ARG235      0.2287
     72  O         -4.2210  -11.4580   14.8930 O.2   235  ARG235     -0.2864
     73  CB        -3.6940  -10.6190   11.6770 C.3   235  ARG235      0.0334
     74  CG        -3.6920  -11.3360   10.3470 C.3   235  ARG235      0.0492
     75  CD        -2.5140  -10.9440    9.5030 C.3   235  ARG235      0.2205
     76  NE        -2.6190  -11.4500    8.1610 N.pl3 235  ARG235     -0.0865
     77  CZ        -1.6950  -11.2870    7.2410 C.cat 235  ARG235      0.5346
     78  NH1       -0.5510  -10.7430    7.5830 N.pl3 235  ARG235      0.1354
     79  NH2       -1.9000  -11.6770    6.0160 N.pl3 235  ARG235      0.1354
     80  N         -7.1050  -12.2350   16.5610 N.3   238  LYS238     -0.1245
     81  CA        -6.9580  -13.6710   16.7740 C.3   238  LYS238      0.1561
     82  C         -5.6400  -13.9840   17.4790 C.2   238  LYS238      0.2260
     83  O         -5.5770  -14.9020   18.2990 O.2   238  LYS238     -0.2867
     84  CB        -7.1000  -14.4350   15.4700 C.3   238  LYS238      0.0271
     85  CG        -8.4760  -14.3140   14.8110 C.3   238  LYS238      0.0035
     86  CD        -9.6500  -14.8260   15.6590 C.3   238  LYS238      0.0206
     87  CE       -10.8370  -15.0740   14.7650 C.3   238  LYS238      0.1093
     88  NZ       -12.0310  -15.5330   15.5760 N.3   238  LYS238     -0.1314
     89  N        -11.1380  -23.7100    6.6850 N.3   264  TYR264     -0.1241
     90  CA       -11.7150  -22.6930    5.8180 C.3   264  TYR264      0.1605
     91  C        -13.0580  -23.1990    5.3170 C.2   264  TYR264      0.2264
     92  O        -13.1310  -24.1770    4.5760 O.2   264  TYR264     -0.2867
     93  CB       -10.7200  -22.4350    4.6990 C.3   264  TYR264      0.0534
     94  CG       -11.0750  -21.3790    3.6690 C.ar  264  TYR264     -0.0201
     95  CD1      -11.9920  -20.3750    3.9330 C.ar  264  TYR264     -0.0009
     96  CD2      -10.4480  -21.3780    2.4290 C.ar  264  TYR264     -0.0009
     97  CE1      -12.2870  -19.4130    2.9830 C.ar  264  TYR264      0.0417
     98  CE2      -10.7210  -20.4120    1.4840 C.ar  264  TYR264      0.0417
     99  CZ       -11.6530  -19.4460    1.7530 C.ar  264  TYR264      0.1957
    100  OH       -11.9190  -18.4900    0.8070 O.3   264  TYR264     -0.2866
    101  N        -19.1180  -15.1380    6.5630 N.3   269  ILE269     -0.1231
    102  CA       -17.9080  -14.3500    6.7540 C.3   269  ILE269      0.1692
    103  C        -16.9610  -14.5700    5.5810 C.2   269  ILE269      0.2592
    104  O        -16.1190  -13.7070    5.2820 O.2   269  ILE269     -0.2718
    105  CB       -17.2530  -14.6300    8.1260 C.3   269  ILE269      0.0266
    106  CG1      -16.4340  -13.4030    8.5900 C.3   269  ILE269      0.0019
    107  CG2      -16.3700  -15.8870    8.0800 C.3   269  ILE269      0.0020
    108  CD1      -15.9160  -13.5370   10.0550 C.3   269  ILE269      0.0001
    109  N        -17.0480  -15.7120    4.9010 N.am  270  THR270     -0.1953
    110  CA       -16.1690  -16.0060    3.7700 C.3   270  THR270      0.1897
    111  C        -16.9150  -15.8890    2.4440 C.2   270  THR270      0.2313
    112  O        -16.4120  -16.3410    1.4090 O.2   270  THR270     -0.2863
    113  CB       -15.6010  -17.4210    3.8690 C.3   270  THR270      0.1794
    114  OG1      -16.6570  -18.3850    3.7660 O.3   270  THR270     -0.2208
    115  CG2      -14.7890  -17.5960    5.1050 C.3   270  THR270      0.0378
@<TRIPOS>BOND
     1     7     8    1
     2     8     9    1
     3     8    11    1
     4     9    10    2
     5    11    12    1
     6   100    99    1
     7   112   111    2
     8    18    19    1
     9    98    99   ar
    10    98    96   ar
    11    20    19    1
    12    20    21    2
    13    99    97   ar
    14    12    14   ar
    15    12    13   ar
    16    19    22    1
    17    96    94   ar
    18   111   110    1
    19    22    24    1
    20    22    23    1
    21    14    16   ar
    22    97    95   ar
    23    13    15   ar
    24    23    25    1
    25    94    95   ar
    26    94    93    1
    27   114   113    1
    28   110   113    1
    29   110   109    1
    30   113   115    1
    31    16    17   ar
    32    58    59   ar
    33    58    56   ar
    34    15    17   ar
    35    59    57   ar
    36    92    91    2
    37    93    90    1
    38   109   103   am
    39    56    54   ar
    40   104   103    2
    41    91    90    1
    42    57    55   ar
    43   103   102    1
    44    90    89    1
    45    79    77    1
    46    48    46   ar
    47    48    47   ar
    48    54    55   ar
    49    54    53    1
    50    49    50    1
    51   101   102    1
    52    46    44   ar
    53   102   105    1
    54    47    45   ar
    55    53    50    1
    56    77    78    1
    57    77    76    2
    58    50    51    1
    59    44    43   ar
    60     6     5    1
    61    45    43   ar
    62   107   105    1
    63   105   106    1
    64    76    75    1
    65    43    42    1
    66     5     2    1
    67   106   108    1
    68    51    52    2
    69    75    74    1
    70     4     3    2
    71    42    39    1
    72     2     3    1
    73     2     1    1
    74    74    73    1
    75    65    64    1
    76    65    66    1
    77    68    66   ar
    78    39    38    1
    79    39    40    1
    80    64    61    1
    81    37    36    1
    82    66    67   ar
    83    73    70    1
    84    41    40    2
    85    60    61    1
    86    69    70    1
    87    69    62   am
    88    61    62    1
    89    36    33    1
    90    70    71    1
    91    62    63    2
    92    34    33    1
    93    34    35    2
    94    33    32    1
    95    71    72    2
    96    29    28    2
    97    32    28   am
    98    87    88    1
    99    87    86    1
   100    85    84    1
   101    85    86    1
   102    28    27    1
   103    84    81    1
   104    27    26    1
   105    27    30    1
   106    80    81    1
   107    81    82    1
   108    31    30    1
   109    82    83    2
