@<TRIPOS>MOLECULE
tmp/5l52N00.pdb
 139 131 0 0 0
SMALL
GASTEIGER

@<TRIPOS>ATOM
      1  N         44.2750 -141.9830   62.8680 N.3     1  THR1       -0.1218
      2  CA        43.8090 -141.5250   64.2110 C.3     1  THR1        0.1862
      3  C         42.8190 -142.2780   65.1240 C.2     1  THR1        0.2287
      4  O         41.7590 -142.7310   64.7070 O.2     1  THR1       -0.2866
      5  CB        43.2350 -140.1180   63.9370 C.3     1  THR1        0.1770
      6  OG1       44.1510 -139.4360   63.0380 O.3     1  THR1       -0.2211
      7  CG2       43.1590 -139.2790   65.2070 C.3     1  THR1        0.0375
      8  N         50.0530 -140.9290   65.7450 N.3    19  ARG19      -0.1231
      9  CA        50.4320 -141.5790   64.4920 C.3    19  ARG19       0.1694
     10  C         49.8730 -140.8430   63.2760 C.2    19  ARG19       0.2593
     11  O         48.6900 -140.5170   63.2330 O.2    19  ARG19      -0.2718
     12  CB        49.9580 -143.0340   64.4840 C.3    19  ARG19       0.0321
     13  CG        50.3660 -143.8100   63.2410 C.3    19  ARG19       0.0489
     14  CD        50.2640 -145.3110   63.4490 C.3    19  ARG19       0.2205
     15  NE        51.3060 -145.8140   64.3420 N.pl3  19  ARG19      -0.0865
     16  CZ        51.4990 -147.0970   64.6350 C.cat  19  ARG19       0.5346
     17  NH1       50.7250 -148.0390   64.1060 N.pl3  19  ARG19       0.1354
     18  NH2       52.4830 -147.4430   65.4570 N.pl3  19  ARG19       0.1354
     19  N         50.7390 -140.5790   62.3000 N.am   20  THR20      -0.1939
     20  CA        50.3340 -140.0510   60.9970 C.3    20  THR20       0.2028
     21  C         50.7730 -141.0530   59.9410 C.2    20  THR20       0.2643
     22  O         51.9500 -141.4040   59.8720 O.2    20  THR20      -0.2714
     23  CB        50.9890 -138.6870   60.7000 C.3    20  THR20       0.1808
     24  OG1       50.7180 -137.7760   61.7700 O.3    20  THR20      -0.2208
     25  CG2       50.4570 -138.0920   59.4030 C.3    20  THR20       0.0379
     26  N         49.8320 -141.5140   59.1220 N.am   21  THR21      -0.1936
     27  CA        50.1200 -142.5470   58.1330 C.3    21  THR21       0.2028
     28  C         49.9990 -142.0380   56.7030 C.2    21  THR21       0.2642
     29  O         49.1450 -141.2050   56.3960 O.2    21  THR21      -0.2714
     30  CB        49.1860 -143.7640   58.2910 C.3    21  THR21       0.1808
     31  OG1       47.8210 -143.3290   58.2970 O.3    21  THR21      -0.2208
     32  CG2       49.4860 -144.5000   59.5810 C.3    21  THR21       0.0379
     33  N         50.8850 -142.5420   55.8490 N.am   22  THR22      -0.1950
     34  CA        50.7710 -142.4130   54.4010 C.3    22  THR22       0.1897
     35  C         50.7600 -143.8310   53.8400 C.2    22  THR22       0.2313
     36  O         51.8010 -144.3740   53.4680 O.2    22  THR22      -0.2863
     37  CB        51.9440 -141.6170   53.8010 C.3    22  THR22       0.1794
     38  OG1       53.1840 -142.1700   54.2550 O.3    22  THR22      -0.2208
     39  CG2       51.8710 -140.1600   54.2170 C.3    22  THR22       0.0378
     40  N         53.1450 -137.0460   66.2550 N.3    31  THR31      -0.1218
     41  CA        52.2680 -135.9670   65.8080 C.3    31  THR31       0.1862
     42  C         51.4930 -135.3550   66.9710 C.2    31  THR31       0.2287
     43  O         51.1690 -136.0410   67.9430 O.2    31  THR31      -0.2866
     44  CB        51.2510 -136.4810   64.7710 C.3    31  THR31       0.1770
     45  OG1       51.8960 -137.4020   63.8830 O.3    31  THR31      -0.2211
     46  CG2       50.6610 -135.3330   63.9670 C.3    31  THR31       0.0375
     47  N         48.0200 -133.8920   67.4450 N.3    33  LYS33      -0.1245
     48  CA        46.6930 -133.7910   66.8380 C.3    33  LYS33       0.1561
     49  C         45.7490 -132.9110   67.6490 C.2    33  LYS33       0.2260
     50  O         44.6250 -132.6400   67.2220 O.2    33  LYS33      -0.2867
     51  CB        46.0940 -135.1860   66.6880 C.3    33  LYS33       0.0271
     52  CG        46.9580 -136.1020   65.8440 C.3    33  LYS33       0.0035
     53  CD        46.4230 -137.5150   65.8180 C.3    33  LYS33       0.0206
     54  CE        47.2950 -138.3890   64.9380 C.3    33  LYS33       0.1093
     55  NZ        46.6210 -139.6700   64.6060 N.3    33  LYS33      -0.1314
     56  N         41.8350 -133.4180   65.8740 N.3    45  ARG45      -0.1231
     57  CA        41.7610 -133.5360   64.4220 C.3    45  ARG45       0.1694
     58  C         41.8690 -134.9870   63.9630 C.2    45  ARG45       0.2593
     59  O         42.7780 -135.7130   64.3700 O.2    45  ARG45      -0.2718
     60  CB        42.8560 -132.6950   63.7690 C.3    45  ARG45       0.0321
     61  CG        42.7370 -131.2140   64.0810 C.3    45  ARG45       0.0489
     62  CD        43.7390 -130.3850   63.2950 C.3    45  ARG45       0.2205
     63  NE        45.1120 -130.6320   63.7340 N.pl3  45  ARG45      -0.0865
     64  CZ        46.1270 -130.9940   62.9460 C.cat  45  ARG45       0.5346
     65  NH1       45.9700 -131.1610   61.6330 N.pl3  45  ARG45       0.1354
     66  NH2       47.3280 -131.1860   63.4850 N.pl3  45  ARG45       0.1354
     67  N         40.9220 -135.3970   63.1220 N.am   46  SER46      -0.1938
     68  CA        40.9610 -136.7020   62.4660 C.3    46  SER46       0.2055
     69  C         40.5610 -136.5480   61.0040 C.2    46  SER46       0.2644
     70  O         39.8040 -135.6420   60.6480 O.2    46  SER46      -0.2714
     71  CB        40.0280 -137.6990   63.1590 C.3    46  SER46       0.2130
     72  OG        38.6740 -137.4820   62.7940 O.3    46  SER46      -0.2179
     73  N         41.0710 -137.4450   60.1670 N.am   47  GLY47      -0.1939
     74  CA        40.8340 -137.3960   58.7280 C.3    47  GLY47       0.2014
     75  C         42.0620 -136.8770   58.0080 C.2    47  GLY47       0.2640
     76  O         43.1910 -137.1810   58.3970 O.2    47  GLY47      -0.2714
     77  N         41.8420 -136.0910   56.9580 N.am   48  SER48      -0.1935
     78  CA        42.9360 -135.5020   56.1890 C.3    48  SER48       0.2055
     79  C         43.7110 -134.5010   57.0380 C.2    48  SER48       0.2643
     80  O         43.1310 -133.5720   57.5970 O.2    48  SER48      -0.2714
     81  CB        42.4000 -134.8070   54.9360 C.3    48  SER48       0.2130
     82  OG        43.4170 -134.0640   54.2840 O.3    48  SER48      -0.2179
     83  N         45.0230 -134.6990   57.1310 N.am   49  ALA49      -0.1963
     84  CA        45.8850 -133.8030   57.8970 C.3    49  ALA49       0.1728
     85  C         45.8540 -132.3970   57.3130 C.2    49  ALA49       0.2616
     86  O         45.7200 -131.4230   58.0450 O.2    49  ALA49      -0.2715
     87  CB        47.3110 -134.3290   57.9270 C.3    49  ALA49       0.0334
     88  N         45.9590 -132.3070   55.9890 N.am   50  ALA50      -0.1963
     89  CA        45.9530 -131.0220   55.2900 C.3    50  ALA50       0.1728
     90  C         44.6420 -130.2550   55.4840 C.2    50  ALA50       0.2616
     91  O         44.6550 -129.0560   55.7680 O.2    50  ALA50      -0.2715
     92  CB        46.2180 -131.2330   53.8080 C.3    50  ALA50       0.0334
     93  N         43.5190 -130.9510   55.3330 N.am   51  ASP51      -0.1957
     94  CA        42.1970 -130.3300   55.4550 C.3    51  ASP51       0.1840
     95  C         41.9170 -129.8300   56.8690 C.2    51  ASP51       0.2623
     96  O         41.4850 -128.6920   57.0500 O.2    51  ASP51      -0.2715
     97  CB        41.0970 -131.3120   55.0410 C.3    51  ASP51       0.1450
     98  CG        41.1290 -131.6420   53.5600 C.2    51  ASP51       0.3671
     99  OD1       41.8570 -130.9650   52.7990 O.co2  51  ASP51      -0.2456
    100  OD2       40.4130 -132.5810   53.1530 O.co2  51  ASP51      -0.2456
    101  N         42.1610 -130.6830   57.8610 N.am   52  THR52      -0.1937
    102  CA        41.9130 -130.3300   59.2630 C.3    52  THR52       0.2028
    103  C         42.8300 -129.1940   59.7200 C.2    52  THR52       0.2642
    104  O         42.4460 -128.3690   60.5480 O.2    52  THR52      -0.2714
    105  CB        42.1020 -131.5380   60.2030 C.3    52  THR52       0.1808
    106  OG1       43.4140 -132.0860   60.0310 O.3    52  THR52      -0.2208
    107  CG2       41.0590 -132.6070   59.9250 C.3    52  THR52       0.0379
    108  N         44.0370 -129.1610   59.1630 N.am   53  GLN53      -0.1976
    109  CA        45.0190 -128.1220   59.4660 C.3    53  GLN53       0.1601
    110  C         44.5690 -126.7740   58.9160 C.2    53  GLN53       0.2287
    111  O         44.6130 -125.7640   59.6140 O.2    53  GLN53      -0.2864
    112  CB        46.3710 -128.4920   58.8560 C.3    53  GLN53       0.0394
    113  CG        47.5760 -127.9220   59.5790 C.3    53  GLN53       0.0908
    114  CD        48.8610 -128.6230   59.1820 C.2    53  GLN53       0.2608
    115  OE1       49.7900 -127.9930   58.6780 O.2    53  GLN53      -0.2717
    116  NE2       48.9170 -129.9400   59.3960 N.am   53  GLN53      -0.0878
    117  N         37.6930 -133.8690   54.0140 N.3    94  THR94      -0.1218
    118  CA        37.6660 -135.1220   54.7500 C.3    94  THR94       0.1862
    119  C         38.1950 -134.8000   56.1440 C.2    94  THR94       0.2287
    120  O         39.3750 -134.9930   56.4370 O.2    94  THR94      -0.2866
    121  CB        38.5230 -136.2010   54.0620 C.3    94  THR94       0.1770
    122  OG1       38.1590 -136.2900   52.6790 O.3    94  THR94      -0.2211
    123  CG2       38.3210 -137.5570   54.7230 C.3    94  THR94       0.0375
    124  N         37.7820 -140.8730   64.7910 N.3   128  GLY128     -0.1210
    125  CA        38.9520 -141.4320   64.1290 C.3   128  GLY128      0.1956
    126  C         38.7780 -142.9160   63.8710 C.2   128  GLY128      0.2612
    127  O         37.8920 -143.5550   64.4400 O.2   128  GLY128     -0.2717
    128  N         39.6370 -143.4620   63.0140 N.am  129  SER129     -0.1952
    129  CA        39.5590 -144.8660   62.6020 C.3   129  SER129      0.1924
    130  C         39.5590 -145.8460   63.7740 C.2   129  SER129      0.2314
    131  O         38.8560 -146.8550   63.7390 O.2   129  SER129     -0.2863
    132  CB        40.7180 -145.2050   61.6610 C.3   129  SER129      0.2116
    133  OG        41.9670 -144.9330   62.2730 O.3   129  SER129     -0.2180
    134  N         46.2450 -147.9380   62.1860 N.3   168  SER168     -0.1217
    135  CA        46.3350 -146.5200   61.8460 C.3   168  SER168      0.1889
    136  C         46.4930 -145.6230   63.0770 C.2   168  SER168      0.2288
    137  O         46.5010 -144.4010   62.9520 O.2   168  SER168     -0.2866
    138  CB        45.0910 -146.0870   61.0690 C.3   168  SER168      0.2089
    139  OG        44.8740 -146.9240   59.9480 O.3   168  SER168     -0.2183
@<TRIPOS>BOND
     1   122   121    1
     2    99    98   ar
     3   100    98   ar
     4    36    35    2
     5    98    97    1
     6    37    39    1
     7    37    38    1
     8    37    34    1
     9    92    89    1
    10    35    34    1
    11   117   118    1
    12   121   123    1
    13   121   118    1
    14    82    81    1
    15    34    33    1
    16   118   119    1
    17    81    78    1
    18    97    94    1
    19    89    90    1
    20    89    88    1
    21    93    94    1
    22    93    90   am
    23    94    95    1
    24    90    91    2
    25    33    28   am
    26    88    85   am
    27   119   120    2
    28    78    77    1
    29    78    79    1
    30    29    28    2
    31    28    27    1
    32    95    96    2
    33    95   101   am
    34    77    75   am
    35    79    83   am
    36    79    80    2
    37    83    84    1
    38    85    84    1
    39    85    86    2
    40   101   102    1
    41    84    87    1
    42    75    76    2
    43    75    74    1
    44    27    30    1
    45    27    26    1
    46    30    31    1
    47    30    32    1
    48   115   114    2
    49    74    73    1
    50   112   109    1
    51   112   113    1
    52   110   109    1
    53   110   111    2
    54    26    21   am
    55   108   109    1
    56   108   103   am
    57   114   116   am
    58   114   113    1
    59   102   103    1
    60   102   105    1
    61    25    23    1
    62   103   104    2
    63    22    21    2
    64   107   105    1
    65    21    20    1
    66   139   138    1
    67   106   105    1
    68    73    69   am
    69    70    69    2
    70    23    20    1
    71    23    24    1
    72    20    19    1
    73    69    68    1
    74   138   135    1
    75    65    64    1
    76   132   133    1
    77   132   129    1
    78   135   134    1
    79   135   136    1
    80    19    10   am
    81    68    67    1
    82    68    71    1
    83   129   128    1
    84   129   130    1
    85    72    71    1
    86     1     2    1
    87    64    66    1
    88    64    63    2
    89   137   136    2
    90   128   126   am
    91     6     5    1
    92    67    58   am
    93    11    10    2
    94    13    14    1
    95    13    12    1
    96    10     9    1
    97    62    63    1
    98    62    61    1
    99    14    15    1
   100   131   130    2
   101    60    61    1
   102    60    57    1
   103   126   125    1
   104   126   127    2
   105    45    44    1
   106     5     2    1
   107     5     7    1
   108    58    59    2
   109    58    57    1
   110    46    44    1
   111    17    16    1
   112   125   124    1
   113     2     3    1
   114    15    16    2
   115    57    56    1
   116    12     9    1
   117     9     8    1
   118    55    54    1
   119    16    18    1
   120     4     3    2
   121    44    41    1
   122    54    53    1
   123    41    40    1
   124    41    42    1
   125    53    52    1
   126    52    51    1
   127    51    48    1
   128    48    47    1
   129    48    49    1
   130    42    43    2
   131    50    49    2
