@<TRIPOS>MOLECULE
tmp/5l53A00.pdb
 191 181 0 0 0
SMALL
GASTEIGER

@<TRIPOS>ATOM
      1  N         26.9620   -0.8370   -9.1320 N.3    10  GLY10      -0.1225
      2  CA        28.1490   -0.7780   -9.9760 C.3    10  GLY10       0.1811
      3  C         28.1860    0.4550  -10.8680 C.2    10  GLY10       0.2280
      4  O         28.4010    0.3490  -12.0870 O.2    10  GLY10      -0.2866
      5  N         30.0360    3.5140  -10.6830 N.3    12  ASN12      -0.1225
      6  CA        31.1840    4.4250  -10.7460 C.3    12  ASN12       0.1785
      7  C         31.8900    4.4360  -12.1030 C.2    12  ASN12       0.2597
      8  O         32.7840    5.2610  -12.2980 O.2    12  ASN12      -0.2718
      9  CB        32.2140    4.0960   -9.6460 C.3    12  ASN12       0.1169
     10  CG        32.7090    2.6520   -9.7150 C.2    12  ASN12       0.2627
     11  OD1       32.0100    1.7120   -9.2850 O.2    12  ASN12      -0.2716
     12  ND2       33.9080    2.4650  -10.2610 N.am   12  ASN12      -0.0877
     13  N         31.5280    3.5640  -13.0410 N.am   13  LYS13      -0.1966
     14  CA        32.1240    3.6050  -14.3750 C.3    13  LYS13       0.1728
     15  C         31.1960    2.8810  -15.3380 C.2    13  LYS13       0.2617
     16  O         30.1810    2.3050  -14.9360 O.2    13  LYS13      -0.2715
     17  CB        33.5330    2.9770  -14.3960 C.3    13  LYS13       0.0311
     18  CG        33.5650    1.4600  -14.0370 C.3    13  LYS13       0.0038
     19  CD        34.9730    0.8810  -14.0850 C.3    13  LYS13       0.0206
     20  CE        34.9970   -0.5810  -13.7090 C.3    13  LYS13       0.1093
     21  NZ        36.3940   -1.0840  -13.6910 N.3    13  LYS13      -0.1314
     22  N         31.5600    2.9100  -16.6170 N.am   14  GLY14      -0.1940
     23  CA        30.9020    2.0280  -17.5770 C.3    14  GLY14       0.2014
     24  C         29.4790    2.4550  -17.8710 C.2    14  GLY14       0.2638
     25  O         29.1580    3.6440  -17.8990 O.2    14  GLY14      -0.2714
     26  N         28.5980    1.4700  -18.0640 N.am   15  ILE15      -0.1977
     27  CA        27.2020    1.7760  -18.3760 C.3    15  ILE15       0.1596
     28  C         26.4590    2.2910  -17.1420 C.2    15  ILE15       0.2287
     29  O         25.6300    3.2080  -17.2410 O.2    15  ILE15      -0.2864
     30  CB        26.5100    0.5390  -18.9570 C.3    15  ILE15       0.0276
     31  CG1       27.2700    0.0920  -20.2070 C.3    15  ILE15       0.0022
     32  CG2       25.0960    0.8980  -19.3200 C.3    15  ILE15       0.0022
     33  CD1       26.9110   -1.2890  -20.6880 C.3    15  ILE15       0.0001
     34  N         31.5190   -0.2350   -5.4530 N.3    35  ARG35      -0.1231
     35  CA        32.1710   -1.1550   -4.5400 C.3    35  ARG35       0.1694
     36  C         33.2040   -0.4290   -3.6730 C.2    35  ARG35       0.2592
     37  O         33.2730   -0.6450   -2.4540 O.2    35  ARG35      -0.2718
     38  CB        32.7840   -2.3000   -5.3320 C.3    35  ARG35       0.0321
     39  CG        33.4210   -3.2940   -4.4220 C.3    35  ARG35       0.0489
     40  CD        33.5890   -4.6120   -5.1080 C.3    35  ARG35       0.2205
     41  NE        34.1010   -4.4430   -6.4560 N.pl3  35  ARG35      -0.0865
     42  CZ        34.5890   -5.4360   -7.2000 C.cat  35  ARG35       0.5346
     43  NH1       34.6550   -6.6630   -6.6920 N.pl3  35  ARG35       0.1354
     44  NH2       35.0240   -5.2000   -8.4480 N.pl3  35  ARG35       0.1354
     45  N         33.9540    0.4940   -4.2660 N.am   36  ASP36      -0.1974
     46  CA        34.9110    1.3240   -3.5420 C.3    36  ASP36       0.1709
     47  C         34.3400    2.7140   -3.2600 C.2    36  ASP36       0.2293
     48  O         33.9170    3.4090   -4.1860 O.2    36  ASP36      -0.2864
     49  CB        36.2070    1.4620   -4.3380 C.3    36  ASP36       0.1436
     50  CG        37.2280    2.3190   -3.6090 C.2    36  ASP36       0.3671
     51  OD1       37.5170    3.4500   -4.0710 O.co2  36  ASP36      -0.2456
     52  OD2       37.6980    1.8600   -2.5320 O.co2  36  ASP36      -0.2456
     53  N         36.0370    5.7910   -5.2910 N.3    39  ARG39      -0.1245
     54  CA        35.7710    5.9250   -6.7220 C.3    39  ARG39       0.1563
     55  C         34.3600    6.4200   -6.9750 C.2    39  ARG39       0.2260
     56  O         34.1330    7.1690   -7.9350 O.2    39  ARG39      -0.2867
     57  CB        36.0460    4.6100   -7.4360 C.3    39  ARG39       0.0307
     58  CG        37.4080    4.0730   -7.0460 C.3    39  ARG39       0.0489
     59  CD        37.8090    2.8390   -7.7960 C.3    39  ARG39       0.2205
     60  NE        37.2920    2.8730   -9.1620 N.pl3  39  ARG39      -0.0865
     61  CZ        37.9360    3.3490  -10.2360 C.cat  39  ARG39       0.5346
     62  NH1       39.1730    3.8440  -10.1380 N.pl3  39  ARG39       0.1354
     63  NH2       37.3280    3.3170  -11.4260 N.pl3  39  ARG39       0.1354
     64  N         28.7790    0.2870   -1.8650 N.3    64  LEU64      -0.1231
     65  CA        27.9300   -0.9050   -1.9610 C.3    64  LEU64       0.1693
     66  C         28.7390   -2.0200   -2.5840 C.2    64  LEU64       0.2592
     67  O         29.1500   -1.9110   -3.7410 O.2    64  LEU64      -0.2718
     68  CB        26.6540   -0.6760   -2.8070 C.3    64  LEU64       0.0284
     69  CG        25.8640   -1.9780   -2.9730 C.3    64  LEU64       0.0019
     70  CD1       25.2890   -2.4590   -1.5650 C.3    64  LEU64       0.0001
     71  CD2       24.7510   -1.8520   -3.9910 C.3    64  LEU64       0.0001
     72  N         28.9330   -3.0920   -1.8410 N.am   65  ASP65      -0.1960
     73  CA        29.4220   -4.3520   -2.3780 C.3    65  ASP65       0.1840
     74  C         28.2800   -5.3570   -2.3000 C.2    65  ASP65       0.2622
     75  O         27.9120   -5.7940   -1.1940 O.2    65  ASP65      -0.2715
     76  CB        30.6360   -4.8360   -1.5960 C.3    65  ASP65       0.1450
     77  CG        31.2470   -6.0800   -2.1950 C.2    65  ASP65       0.3671
     78  OD1       30.5390   -6.7700   -2.9760 O.co2  65  ASP65      -0.2456
     79  OD2       32.4210   -6.3700   -1.8590 O.co2  65  ASP65      -0.2456
     80  N         27.7730   -5.7720   -3.4710 N.am   66  VAL66      -0.1963
     81  CA        26.5580   -6.6020   -3.5410 C.3    66  VAL66       0.1727
     82  C         26.8150   -7.9960   -2.9810 C.2    66  VAL66       0.2616
     83  O         25.8610   -8.7230   -2.6670 O.2    66  VAL66      -0.2715
     84  CB        26.0120   -6.7200   -4.9840 C.3    66  VAL66       0.0290
     85  CG1       25.8290   -5.3700   -5.5690 C.3    66  VAL66       0.0023
     86  CG2       26.9240   -7.5970   -5.8970 C.3    66  VAL66       0.0023
     87  N         28.0850   -8.3870   -2.8450 N.am   67  ALA67      -0.1977
     88  CA        28.4700   -9.6850   -2.3070 C.3    67  ALA67       0.1597
     89  C         28.5900   -9.6990   -0.7870 C.2    67  ALA67       0.2287
     90  O         28.8970  -10.7570   -0.2280 O.2    67  ALA67      -0.2864
     91  CB        29.8140  -10.1150   -2.8920 C.3    67  ALA67       0.0319
     92  N         23.0640   -3.3280  -11.9720 N.3    92  ASN92      -0.1225
     93  CA        24.0680   -3.2300  -12.9920 C.3    92  ASN92       0.1785
     94  C         25.3950   -3.8380  -12.5890 C.2    92  ASN92       0.2597
     95  O         26.1820   -4.1770  -13.4680 O.2    92  ASN92      -0.2718
     96  CB        24.2680   -1.7570  -13.3540 C.3    92  ASN92       0.1169
     97  CG        25.3670   -1.5650  -14.3350 C.2    92  ASN92       0.2627
     98  OD1       25.1960   -1.8330  -15.5360 O.2    92  ASN92      -0.2716
     99  ND2       26.5050   -1.1140  -13.8580 N.am   92  ASN92      -0.0877
    100  N         25.6730   -3.9840  -11.2930 N.am   93  ALA93      -0.1966
    101  CA        26.9440   -4.5670  -10.8800 C.3    93  ALA93       0.1728
    102  C         27.1110   -5.9560  -11.4950 C.2    93  ALA93       0.2617
    103  O         26.1830   -6.7650  -11.4670 O.2    93  ALA93      -0.2715
    104  CB        27.0070   -4.6380   -9.3540 C.3    93  ALA93       0.0334
    105  N         28.2900   -6.2410  -12.0530 N.am   94  GLY94      -0.1940
    106  CA        28.4900   -7.5090  -12.7310 C.3    94  GLY94       0.2014
    107  C         29.9410   -7.8340  -13.0090 C.2    94  GLY94       0.2638
    108  O         30.8010   -6.9520  -13.0530 O.2    94  GLY94      -0.2714
    109  N         30.2050   -9.1190  -13.1870 N.am   95  LEU95      -0.1977
    110  CA        31.5130   -9.6880  -13.4740 C.3    95  LEU95       0.1596
    111  C         31.4000  -10.6350  -14.6500 C.2    95  LEU95       0.2287
    112  O         30.3730  -11.2960  -14.8250 O.2    95  LEU95      -0.2864
    113  CB        32.0560  -10.5150  -12.3110 C.3    95  LEU95       0.0297
    114  CG        32.6030   -9.7180  -11.1780 C.3    95  LEU95       0.0022
    115  CD1       32.1680  -10.3970   -9.9340 C.3    95  LEU95       0.0001
    116  CD2       34.0840   -9.7730  -11.3290 C.3    95  LEU95       0.0001
    117  N         28.3830  -12.7420   -7.5260 N.3   149  THR149     -0.1218
    118  CA        27.9980  -11.3550   -7.7810 C.3   149  THR149      0.1862
    119  C         26.7760  -11.2750   -8.6910 C.2   149  THR149      0.2287
    120  O         25.7770  -10.6450   -8.3330 O.2   149  THR149     -0.2866
    121  CB        29.1580  -10.5760   -8.4100 C.3   149  THR149      0.1770
    122  OG1       30.1890  -10.3650   -7.4520 O.3   149  THR149     -0.2211
    123  CG2       28.6980   -9.2130   -8.9790 C.3   149  THR149      0.0375
    124  N         20.4450   -5.7280  -15.4400 N.3   176  VAL176     -0.1231
    125  CA        21.3460   -5.6400  -16.5830 C.3   176  VAL176      0.1692
    126  C         21.9520   -7.0200  -16.8390 C.2   176  VAL176      0.2593
    127  O         22.7940   -7.5090  -16.0720 O.2   176  VAL176     -0.2718
    128  CB        22.4160   -4.5760  -16.3570 C.3   176  VAL176      0.0266
    129  CG1       23.3510   -4.4840  -17.5650 C.3   176  VAL176      0.0020
    130  CG2       21.7100   -3.2520  -16.1350 C.3   176  VAL176      0.0020
    131  N         21.5030   -7.6640  -17.9170 N.am  177  SER177     -0.1938
    132  CA        21.9000   -8.9990  -18.3570 C.3   177  SER177      0.2055
    133  C         22.8870   -8.8890  -19.5410 C.2   177  SER177      0.2644
    134  O         23.5630   -7.8550  -19.6950 O.2   177  SER177     -0.2714
    135  CB        20.6280   -9.7870  -18.6680 C.3   177  SER177      0.2130
    136  OG        20.8430  -11.1930  -18.6620 O.3   177  SER177     -0.2179
    137  N         22.9620   -9.9280  -20.3770 N.am  178  SER178     -0.1935
    138  CA        23.8800   -9.9580  -21.5180 C.3   178  SER178      0.2055
    139  C         23.3190  -10.8640  -22.6000 C.2   178  SER178      0.2643
    140  O         22.6030  -11.8230  -22.3050 O.2   178  SER178     -0.2714
    141  CB        25.2690  -10.4720  -21.1240 C.3   178  SER178      0.2130
    142  OG        26.0760  -10.6580  -22.2790 O.3   178  SER178     -0.2179
    143  N         23.6870  -10.5870  -23.8650 N.am  179  THR179     -0.1950
    144  CA        23.3240  -11.5190  -24.9310 C.3   179  THR179      0.1897
    145  C         23.8480  -12.9340  -24.6680 C.2   179  THR179      0.2313
    146  O         23.1720  -13.9060  -25.0250 O.2   179  THR179     -0.2863
    147  CB        23.7920  -11.0090  -26.3030 C.3   179  THR179      0.1794
    148  OG1       25.0510  -10.3340  -26.2040 O.3   179  THR179     -0.2208
    149  CG2       22.8070  -10.0400  -26.8260 C.3   179  THR179      0.0378
    150  N         29.7830  -16.8730  -16.7350 N.3   234  TYR234     -0.1241
    151  CA        29.0070  -15.7160  -17.1570 C.3   234  TYR234      0.1605
    152  C         27.6840  -16.1390  -17.7670 C.2   234  TYR234      0.2264
    153  O         26.6160  -15.6290  -17.3940 O.2   234  TYR234     -0.2867
    154  CB        29.8160  -14.9150  -18.1510 C.3   234  TYR234      0.0534
    155  CG        29.2580  -13.5530  -18.4470 C.ar  234  TYR234     -0.0201
    156  CD1       29.0520  -12.6260  -17.4140 C.ar  234  TYR234     -0.0009
    157  CD2       29.0250  -13.1490  -19.7590 C.ar  234  TYR234     -0.0009
    158  CE1       28.5630  -11.3600  -17.6820 C.ar  234  TYR234      0.0417
    159  CE2       28.5540  -11.8730  -20.0400 C.ar  234  TYR234      0.0417
    160  CZ        28.3090  -10.9920  -19.0060 C.ar  234  TYR234      0.1957
    161  OH        27.8410   -9.7230  -19.2860 O.3   234  TYR234     -0.2866
    162  N         24.1190  -15.2850  -15.9050 N.3   238  LYS238     -0.1245
    163  CA        23.1910  -14.3060  -16.4690 C.3   238  LYS238      0.1561
    164  C         21.8970  -14.9660  -16.9380 C.2   238  LYS238      0.2260
    165  O         20.8150  -14.3680  -16.8240 O.2   238  LYS238     -0.2867
    166  CB        23.8580  -13.5450  -17.5990 C.3   238  LYS238      0.0271
    167  CG        24.9810  -12.6290  -17.1550 C.3   238  LYS238      0.0035
    168  CD        24.4450  -11.3910  -16.4650 C.3   238  LYS238      0.0206
    169  CE        25.4820  -10.3480  -16.3260 C.3   238  LYS238      0.1093
    170  NZ        24.8560   -9.0860  -15.8450 N.3   238  LYS238     -0.1314
    171  N         19.5720   -6.6040  -22.2620 N.3   261  CYS261     -0.1221
    172  CA        20.9330   -6.6110  -22.7950 C.3   261  CYS261      0.1794
    173  C         21.2780   -5.2030  -23.2690 C.2   261  CYS261      0.2443
    174  O         20.5770   -4.6650  -24.1370 O.2   261  CYS261     -0.2733
    175  CB        21.0980   -7.5990  -23.9460 C.3   261  CYS261      0.0970
    176  SG        22.7090   -7.3190  -24.8180 S.3   261  CYS261     -0.0800
    177  N         22.3260   -4.5690  -22.7360 N.am  262  PRO262     -0.2729
    178  CA        22.6440   -3.2130  -23.1700 C.3   262  PRO262      0.1401
    179  C         23.4270   -3.2290  -24.4800 C.2   262  PRO262      0.2269
    180  O         22.9790   -2.5060  -25.3650 O.2   262  PRO262     -0.2865
    181  CB        23.4890   -2.6770  -22.0190 C.3   262  PRO262      0.0296
    182  CG        24.2390   -3.9020  -21.5620 C.3   262  PRO262      0.0237
    183  CD        23.2870   -5.0670  -21.7330 C.3   262  PRO262      0.0939
    184  N         29.0090    3.8710  -24.1760 N.3   264  ASP264     -0.1239
    185  CA        28.2580    3.5840  -22.9570 C.3   264  ASP264      0.1674
    186  C         27.0030    4.4140  -22.8520 C.2   264  ASP264      0.2266
    187  O         26.0020    3.9350  -22.3120 O.2   264  ASP264     -0.2867
    188  CB        29.0980    3.8450  -21.7110 C.3   264  ASP264      0.1410
    189  CG        30.3210    2.9770  -21.6560 C.2   264  ASP264      0.3668
    190  OD1       31.3470    3.4510  -21.1080 O.co2 264  ASP264     -0.2456
    191  OD2       30.2480    1.8360  -22.1850 O.co2 264  ASP264     -0.2456
@<TRIPOS>BOND
     1   149   147    1
     2   147   148    1
     3   147   144    1
     4   180   179    2
     5   146   145    2
     6   144   145    1
     7   144   143    1
     8   176   175    1
     9   179   178    1
    10   184   185    1
    11   174   173    2
    12   175   172    1
    13   143   139   am
    14   173   172    1
    15   173   177   am
    16   178   177    1
    17   178   181    1
    18   185   186    1
    19   185   188    1
    20   186   187    2
    21   172   171    1
    22   177   183    1
    23   139   140    2
    24   139   138    1
    25   142   141    1
    26   191   189   ar
    27   181   182    1
    28   183   182    1
    29   188   189    1
    30   189   190   ar
    31   138   141    1
    32   138   137    1
    33    33    31    1
    34   137   133   am
    35    31    30    1
    36   159   157   ar
    37   159   160   ar
    38   157   155   ar
    39   134   133    2
    40   133   132    1
    41    32    30    1
    42   161   160    1
    43   160   158   ar
    44    30    27    1
    45   135   136    1
    46   135   132    1
    47   155   154    1
    48   155   156   ar
    49    27    26    1
    50    27    28    1
    51   132   131    1
    52   154   151    1
    53    26    24   am
    54   131   126   am
    55    25    24    2
    56    24    23    1
    57   152   153    2
    58   152   151    1
    59   158   156   ar
    60   166   167    1
    61   166   163    1
    62    23    22    1
    63   129   128    1
    64    29    28    2
    65   151   150    1
    66   167   168    1
    67   164   165    2
    68   164   163    1
    69   126   125    1
    70   126   127    2
    71    22    15   am
    72   125   128    1
    73   125   124    1
    74   163   162    1
    75   168   169    1
    76   128   130    1
    77   169   170    1
    78    98    97    2
    79    15    16    2
    80    15    14    1
    81   112   111    2
    82   111   110    1
    83    17    14    1
    84    17    18    1
    85    14    13    1
    86    97    99   am
    87    97    96    1
    88    19    18    1
    89    19    20    1
    90    20    21    1
    91   110   109    1
    92   110   113    1
    93    95    94    2
    94    96    93    1
    95   109   107   am
    96   108   107    2
    97    13     7   am
    98   107   106    1
    99    93    94    1
   100    93    92    1
   101   106   105    1
   102    94   100   am
   103   113   114    1
   104     8     7    2
   105     7     6    1
   106     4     3    2
   107   105   102   am
   108   102   103    2
   109   102   101    1
   110    63    61    1
   111   116   114    1
   112   100   101    1
   113   114   115    1
   114   101   104    1
   115     3     2    1
   116     6     5    1
   117     6     9    1
   118    12    10   am
   119    61    62    1
   120    61    60    2
   121     2     1    1
   122    10     9    1
   123    10    11    2
   124    60    59    1
   125   123   121    1
   126   119   120    2
   127   119   118    1
   128    44    42    1
   129   121   118    1
   130   121   122    1
   131    56    55    2
   132    59    58    1
   133   118   117    1
   134    57    58    1
   135    57    54    1
   136    42    43    1
   137    42    41    2
   138    55    54    1
   139    54    53    1
   140    41    40    1
   141    86    84    1
   142    85    84    1
   143    34    35    1
   144    38    35    1
   145    38    39    1
   146    40    39    1
   147    84    81    1
   148    35    36    1
   149    49    50    1
   150    49    46    1
   151    45    36   am
   152    45    46    1
   153    48    47    2
   154    51    50   ar
   155    71    69    1
   156    67    66    2
   157    36    37    2
   158    50    52   ar
   159    46    47    1
   160    81    80    1
   161    81    82    1
   162    80    74   am
   163    82    87   am
   164    82    83    2
   165    78    77   ar
   166    69    68    1
   167    69    70    1
   168    91    88    1
   169    87    88    1
   170    68    65    1
   171    66    65    1
   172    66    72   am
   173    73    74    1
   174    73    72    1
   175    73    76    1
   176    88    89    1
   177    74    75    2
   178    77    79   ar
   179    77    76    1
   180    65    64    1
   181    89    90    2
