@<TRIPOS>MOLECULE
tmp/5l55Y00.pdb
 155 147 0 0 0
SMALL
GASTEIGER

@<TRIPOS>ATOM
      1  N         56.9030 -152.6300    8.0720 N.3     1  THR1       -0.1218
      2  CA        56.9250 -153.2950    6.7250 C.3     1  THR1        0.1862
      3  C         56.3250 -152.6480    5.4690 C.2     1  THR1        0.2287
      4  O         55.2820 -151.9970    5.5100 O.2     1  THR1       -0.2866
      5  CB        56.3260 -154.6810    6.8880 C.3     1  THR1        0.1770
      6  OG1       56.9680 -155.2940    8.0070 O.3     1  THR1       -0.2211
      7  CG2       56.6210 -155.5640    5.6750 C.3     1  THR1        0.0375
      8  N         63.2050 -153.6980    7.6140 N.3    19  ARG19      -0.1231
      9  CA        63.1220 -153.0480    8.9210 C.3    19  ARG19       0.1694
     10  C         62.2250 -153.8150    9.8880 C.2    19  ARG19       0.2592
     11  O         61.2240 -154.4080    9.4910 O.2    19  ARG19      -0.2718
     12  CB        62.6190 -151.6090    8.7890 C.3    19  ARG19       0.0321
     13  CG        62.5750 -150.8720   10.1180 C.3    19  ARG19       0.0489
     14  CD        62.3370 -149.3860    9.9430 C.3    19  ARG19       0.2205
     15  NE        63.5400 -148.6950    9.4870 N.pl3  19  ARG19      -0.0865
     16  CZ        63.6990 -147.3740    9.4820 C.cat  19  ARG19       0.5346
     17  NH1       62.7320 -146.5670    9.9130 N.pl3  19  ARG19       0.1354
     18  NH2       64.8410 -146.8530    9.0450 N.pl3  19  ARG19       0.1354
     19  N         62.6010 -153.7900   11.1630 N.am   20  ALA20      -0.1966
     20  CA        61.7820 -154.3470   12.2290 C.3    20  ALA20       0.1728
     21  C         61.5610 -153.2700   13.2810 C.2    20  ALA20       0.2617
     22  O         62.5040 -152.5830   13.6680 O.2    20  ALA20      -0.2715
     23  CB        62.4640 -155.5570   12.8400 C.3    20  ALA20       0.0334
     24  N         60.3180 -153.1170   13.7350 N.am   21  THR21      -0.1937
     25  CA        59.9850 -152.0820   14.7190 C.3    21  THR21       0.2028
     26  C         59.3550 -152.6680   15.9740 C.2    21  THR21       0.2642
     27  O         58.7320 -153.7250   15.9370 O.2    21  THR21      -0.2714
     28  CB        59.0270 -151.0140   14.1410 C.3    21  THR21       0.1808
     29  OG1       57.7710 -151.6150   13.7970 O.3    21  THR21      -0.2208
     30  CG2       59.6320 -150.3530   12.9090 C.3    21  THR21       0.0379
     31  N         59.5520 -151.9730   17.0880 N.am   22  ALA22      -0.1963
     32  CA        58.8600 -152.2590   18.3350 C.3    22  ALA22       0.1728
     33  C         58.3250 -150.9210   18.8260 C.2    22  ALA22       0.2616
     34  O         58.8670 -150.3130   19.7500 O.2    22  ALA22      -0.2715
     35  CB        59.8050 -152.8820   19.3480 C.3    22  ALA22       0.0334
     36  N         57.2600 -150.4650   18.1740 N.am   23  GLY23      -0.1955
     37  CA        56.7560 -149.1120   18.3630 C.3    23  GLY23       0.1869
     38  C         57.5610 -148.1800   17.4830 C.2    23  GLY23       0.2309
     39  O         57.7430 -148.4480   16.2950 O.2    23  GLY23      -0.2863
     40  N         64.0170 -151.8730   15.7800 N.3    27  ALA27      -0.1245
     41  CA        64.5810 -153.0950   16.3500 C.3    27  ALA27       0.1562
     42  C         65.7030 -153.6680   15.4910 C.2    27  ALA27       0.2260
     43  O         66.6840 -154.1970   16.0160 O.2    27  ALA27      -0.2867
     44  CB        63.4870 -154.1330   16.5400 C.3    27  ALA27       0.0290
     45  N         66.6160 -157.4820    8.6580 N.3    31  VAL31      -0.1231
     46  CA        65.8630 -158.7190    8.7360 C.3    31  VAL31       0.1692
     47  C         65.4720 -159.2250    7.3930 C.2    31  VAL31       0.2592
     48  O         65.3530 -158.4920    6.4400 O.2    31  VAL31      -0.2718
     49  CB        64.6010 -158.6540    9.5980 C.3    31  VAL31       0.0266
     50  CG1       64.9090 -158.1360   10.9720 C.3    31  VAL31       0.0020
     51  CG2       63.5390 -157.8210    8.9440 C.3    31  VAL31       0.0020
     52  N         65.2620 -160.5160    7.3590 N.am   32  LYS32      -0.1966
     53  CA        64.8910 -161.2450    6.1560 C.3    32  LYS32       0.1728
     54  C         63.3710 -161.4110    6.1330 C.2    32  LYS32       0.2616
     55  O         62.8090 -162.0840    6.9980 O.2    32  LYS32      -0.2715
     56  CB        65.5690 -162.6170    6.1530 C.3    32  LYS32       0.0311
     57  CG        66.1660 -163.0120    4.8140 C.3    32  LYS32       0.0038
     58  CD        66.3300 -164.5240    4.7000 C.3    32  LYS32       0.0206
     59  CE        65.9840 -165.0350    3.3090 C.3    32  LYS32       0.1093
     60  NZ        67.1490 -165.0800    2.3870 N.3    32  LYS32      -0.1314
     61  N         62.7100 -160.7850    5.1600 N.am   33  LYS33      -0.1977
     62  CA        61.2440 -160.8230    5.0640 C.3    33  LYS33       0.1596
     63  C         60.7330 -161.7040    3.9290 C.2    33  LYS33       0.2287
     64  O         59.5280 -161.7820    3.6920 O.2    33  LYS33      -0.2864
     65  CB        60.6850 -159.4070    4.9210 C.3    33  LYS33       0.0298
     66  CG        60.7630 -158.6180    6.2110 C.3    33  LYS33       0.0038
     67  CD        60.1910 -157.2250    6.0570 C.3    33  LYS33       0.0206
     68  CE        60.6240 -156.3530    7.2180 C.3    33  LYS33       0.1093
     69  NZ        59.8160 -155.1110    7.2910 N.3    33  LYS33      -0.1314
     70  N         56.8360 -161.6530    4.2100 N.3    45  MET45      -0.1230
     71  CA        56.4420 -161.4840    5.6100 C.3    45  MET45       0.1702
     72  C         56.1150 -160.0340    5.9410 C.2    45  MET45       0.2592
     73  O         56.9070 -159.1330    5.6680 O.2    45  MET45      -0.2718
     74  CB        57.5690 -161.9400    6.5280 C.3    45  MET45       0.0401
     75  CG        57.9730 -163.3890    6.3490 C.3    45  MET45       0.0596
     76  SD        59.1840 -163.8850    7.5840 S.3    45  MET45      -0.1393
     77  CE        59.5780 -165.5340    7.0180 C.3    45  MET45       0.0692
     78  N         54.9490 -159.8210    6.5410 N.am   46  ALA46      -0.1966
     79  CA        54.5490 -158.5030    7.0290 C.3    46  ALA46       0.1728
     80  C         53.6320 -158.6670    8.2320 C.2    46  ALA46       0.2617
     81  O         52.7940 -159.5700    8.2670 O.2    46  ALA46      -0.2715
     82  CB        53.8480 -157.7160    5.9350 C.3    46  ALA46       0.0334
     83  N         53.7930 -157.7920    9.2180 N.am   47  GLY47      -0.1940
     84  CA        53.0030 -157.8670   10.4430 C.3    47  GLY47       0.2014
     85  C         53.8320 -158.3830   11.6010 C.2    47  GLY47       0.2639
     86  O         55.0080 -158.0330   11.7390 O.2    47  GLY47      -0.2714
     87  N         53.2130 -159.2110   12.4410 N.am   48  GLY48      -0.1939
     88  CA        53.9000 -159.8220   13.5730 C.3    48  GLY48       0.2014
     89  C         55.0790 -160.6390   13.0840 C.2    48  GLY48       0.2639
     90  O         54.9270 -161.4830   12.1980 O.2    48  GLY48      -0.2714
     91  N         56.2540 -160.3830   13.6520 N.am   49  ALA49      -0.1963
     92  CA        57.4930 -160.9970   13.1740 C.3    49  ALA49       0.1728
     93  C         57.5360 -162.4830   13.4950 C.2    49  ALA49       0.2616
     94  O         57.7950 -163.2990   12.6150 O.2    49  ALA49      -0.2715
     95  CB        58.7020 -160.2950   13.7690 C.3    49  ALA49       0.0334
     96  N         57.2720 -162.8240   14.7540 N.am   50  ALA50      -0.1963
     97  CA        57.2440 -164.2210   15.1880 C.3    50  ALA50       0.1728
     98  C         56.1590 -165.0160   14.4670 C.2    50  ALA50       0.2616
     99  O         56.3950 -166.1430   14.0370 O.2    50  ALA50      -0.2715
    100  CB        57.0410 -164.3060   16.6910 C.3    50  ALA50       0.0334
    101  N         54.9750 -164.4220   14.3360 N.am   51  ASP51      -0.1957
    102  CA        53.8580 -165.0610   13.6370 C.3    51  ASP51       0.1840
    103  C         54.2210 -165.3770   12.1920 C.2    51  ASP51       0.2622
    104  O         53.9910 -166.4890   11.7210 O.2    51  ASP51      -0.2715
    105  CB        52.6150 -164.1670   13.6690 C.3    51  ASP51       0.1450
    106  CG        52.0490 -163.9930   15.0710 C.2    51  ASP51       0.3671
    107  OD1       52.3420 -164.8270   15.9570 O.co2  51  ASP51      -0.2456
    108  OD2       51.3030 -163.0150   15.2830 O.co2  51  ASP51      -0.2456
    109  N         54.7890 -164.3960   11.4960 N.am   52  CYS52      -0.1954
    110  CA        55.2470 -164.5920   10.1200 C.3    52  CYS52       0.1843
    111  C         56.3540 -165.6340   10.0580 C.2    52  CYS52       0.2625
    112  O         56.2630 -166.6070    9.3070 O.2    52  CYS52      -0.2714
    113  CB        55.7500 -163.2770    9.5210 C.3    52  CYS52       0.0997
    114  SG        54.4300 -162.1120    9.1300 S.3    52  CYS52      -0.0797
    115  N         57.3920 -165.4230   10.8630 N.am   53  GLN53      -0.1977
    116  CA        58.5700 -166.2920   10.8580 C.3    53  GLN53       0.1601
    117  C         58.1750 -167.7360   11.1540 C.2    53  GLN53       0.2287
    118  O         58.4940 -168.6380   10.3920 O.2    53  GLN53      -0.2864
    119  CB        59.6030 -165.8070   11.8840 C.3    53  GLN53       0.0394
    120  CG        61.0190 -165.7300   11.3510 C.3    53  GLN53       0.0908
    121  CD        61.9220 -164.8980   12.2400 C.2    53  GLN53       0.2608
    122  OE1       62.0320 -165.1540   13.4380 O.2    53  GLN53      -0.2717
    123  NE2       62.5750 -163.8980   11.6580 N.am   53  GLN53      -0.0878
    124  N         44.4980 -163.1960   17.7540 N.3    94  GLY94      -0.1225
    125  CA        45.4150 -162.0570   17.7180 C.3    94  GLY94       0.1811
    126  C         46.6610 -162.2240   16.8670 C.2    94  GLY94       0.2280
    127  O         47.6150 -161.4640   17.0300 O.2    94  GLY94      -0.2866
    128  N         48.9280 -161.6570   13.6860 N.3    96  SER96      -0.1217
    129  CA        49.0670 -160.5430   12.7530 C.3    96  SER96       0.1889
    130  C         50.0160 -160.9520   11.6350 C.2    96  SER96       0.2288
    131  O         51.2280 -161.0250   11.8370 O.2    96  SER96      -0.2866
    132  CB        49.5930 -159.2980   13.4720 C.3    96  SER96       0.2089
    133  OG        49.6710 -158.1890   12.5870 O.3    96  SER96      -0.2183
    134  N         51.6830 -154.2350    4.0360 N.3   130  GLY130     -0.1210
    135  CA        52.4320 -153.6760    5.1570 C.3   130  GLY130      0.1956
    136  C         52.0230 -152.2520    5.4810 C.2   130  GLY130      0.2612
    137  O         51.1210 -151.6930    4.8550 O.2   130  GLY130     -0.2717
    138  N         52.7040 -151.6690    6.4660 N.am  131  SER131     -0.1952
    139  CA        52.4710 -150.2850    6.8800 C.3   131  SER131      0.1924
    140  C         52.7120 -149.2890    5.7470 C.2   131  SER131      0.2314
    141  O         52.0180 -148.2780    5.6490 O.2   131  SER131     -0.2863
    142  CB        53.3730 -149.9320    8.0650 C.3   131  SER131      0.2116
    143  OG        54.7310 -150.2130    7.7690 O.3   131  SER131     -0.2180
    144  N         57.8840 -146.6000    9.4980 N.3   170  TYR170     -0.1241
    145  CA        58.0290 -147.9940    9.9280 C.3   170  TYR170      0.1605
    146  C         58.4680 -148.9230    8.7880 C.2   170  TYR170      0.2264
    147  O         58.1660 -150.1190    8.7970 O.2   170  TYR170     -0.2867
    148  CB        56.7150 -148.4810   10.5440 C.3   170  TYR170      0.0534
    149  CG        56.2250 -147.5910   11.6640 C.ar  170  TYR170     -0.0201
    150  CD1       56.9370 -147.4870   12.8550 C.ar  170  TYR170     -0.0009
    151  CD2       55.0620 -146.8450   11.5320 C.ar  170  TYR170     -0.0009
    152  CE1       56.5020 -146.6720   13.8830 C.ar  170  TYR170      0.0417
    153  CE2       54.6200 -146.0260   12.5570 C.ar  170  TYR170      0.0417
    154  CZ        55.3440 -145.9440   13.7290 C.ar  170  TYR170      0.1957
    155  OH        54.9100 -145.1330   14.7530 O.3   170  TYR170     -0.2866
@<TRIPOS>BOND
     1    60    59    1
     2    59    58    1
     3    64    63    2
     4    63    62    1
     5   134   135    1
     6    70    71    1
     7    58    57    1
     8    57    56    1
     9   137   136    2
    10    65    62    1
    11    65    66    1
    12    62    61    1
    13   135   136    1
    14    61    54   am
    15     3     4    2
    16     3     2    1
    17   136   138   am
    18    71    72    1
    19    71    74    1
    20   141   140    2
    21    73    72    2
    22     7     5    1
    23   140   139    1
    24    82    79    1
    25    72    78   am
    26    67    66    1
    27    67    68    1
    28    54    53    1
    29    54    55    2
    30    56    53    1
    31    53    52    1
    32    75    74    1
    33    75    76    1
    34    48    47    2
    35   138   139    1
    36    78    79    1
    37     2     5    1
    38     2     1    1
    39   139   142    1
    40     5     6    1
    41    77    76    1
    42    79    80    1
    43    68    69    1
    44    52    47   am
    45    47    46    1
    46     8     9    1
    47   143   142    1
    48    80    81    2
    49    80    83   am
    50    45    46    1
    51    46    49    1
    52   146   147    2
    53   146   145    1
    54    12     9    1
    55    12    13    1
    56     9    10    1
    57    51    49    1
    58    18    16    1
    59   114   113    1
    60    83    84    1
    61   112   111    2
    62    16    15    2
    63    16    17    1
    64    15    14    1
    65    11    10    2
    66   144   145    1
    67   113   110    1
    68    49    50    1
    69    10    19   am
    70   145   148    1
    71    14    13    1
    72   111   110    1
    73   111   115   am
    74   110   109    1
    75   118   117    2
    76    84    85    1
    77   148   149    1
    78   116   115    1
    79   116   117    1
    80   116   119    1
    81    19    20    1
    82   120   119    1
    83   120   121    1
    84   109   103   am
    85   151   149   ar
    86   151   153   ar
    87    85    86    2
    88    85    87   am
    89   130   131    2
    90   130   129    1
    91   123   121   am
    92   149   150   ar
    93   104   103    2
    94   103   102    1
    95    90    89    2
    96    20    23    1
    97    20    21    1
    98   121   122    2
    99    87    88    1
   100   153   154   ar
   101   133   132    1
   102    94    93    2
   103   129   132    1
   104   129   128    1
   105   150   152   ar
   106    30    28    1
   107    89    88    1
   108    89    91   am
   109    92    93    1
   110    92    91    1
   111    92    95    1
   112    21    22    2
   113    21    24   am
   114    93    96   am
   115   102   105    1
   116   102   101    1
   117   105   106    1
   118   154   152   ar
   119   154   155    1
   120    24    25    1
   121    29    28    1
   122    99    98    2
   123    28    25    1
   124   101    98   am
   125    98    97    1
   126    25    26    1
   127    96    97    1
   128   106   108   ar
   129   106   107   ar
   130    97   100    1
   131    42    43    2
   132    42    41    1
   133    40    41    1
   134    27    26    2
   135    26    31   am
   136    39    38    2
   137    41    44    1
   138   126   127    2
   139   126   125    1
   140    31    32    1
   141    38    37    1
   142   125   124    1
   143    36    37    1
   144    36    33   am
   145    32    33    1
   146    32    35    1
   147    33    34    2
