@<TRIPOS>MOLECULE
tmp/5l57A01.pdb
 171 160 0 0 0
SMALL
GASTEIGER

@<TRIPOS>ATOM
      1  N         10.9310   29.4840  192.1440 N.3   107  ARG107     -0.1245
      2  CA         9.7810   29.1360  191.3190 C.3   107  ARG107      0.1563
      3  C          9.2390   27.7670  191.7130 C.2   107  ARG107      0.2260
      4  O          9.9920   26.8750  192.1150 O.2   107  ARG107     -0.2867
      5  CB        10.1490   29.1370  189.8310 C.3   107  ARG107      0.0307
      6  CG        10.8090   30.4260  189.3770 C.3   107  ARG107      0.0489
      7  CD        10.1170   31.0210  188.1660 C.3   107  ARG107      0.2205
      8  NE        10.6090   32.3650  187.8860 N.pl3 107  ARG107     -0.0865
      9  CZ        11.7810   32.6300  187.3180 C.cat 107  ARG107      0.5346
     10  NH1       12.5910   31.6380  186.9700 N.pl3 107  ARG107      0.1354
     11  NH2       12.1450   33.8890  187.1020 N.pl3 107  ARG107      0.1354
     12  N          5.7510   24.8280  190.9430 N.3   109  ALA109     -0.1245
     13  CA         4.5760   24.3980  190.1960 C.3   109  ALA109      0.1562
     14  C          3.5170   23.8830  191.1640 C.2   109  ALA109      0.2260
     15  O          3.8070   23.0350  192.0150 O.2   109  ALA109     -0.2867
     16  CB         4.9400   23.3120  189.1800 C.3   109  ALA109      0.0290
     17  N          0.6640   21.6380  192.3270 N.3   111  ILE111     -0.1245
     18  CA         0.4130   20.2380  192.0140 C.3   111  ILE111      0.1561
     19  C         -1.0800   19.9500  192.1170 C.2   111  ILE111      0.2260
     20  O         -1.7290   20.3100  193.1070 O.2   111  ILE111     -0.2867
     21  CB         1.2140   19.3210  192.9550 C.3   111  ILE111      0.0252
     22  CG1        2.7190   19.5210  192.7290 C.3   111  ILE111      0.0019
     23  CG2        0.8240   17.8530  192.7560 C.3   111  ILE111      0.0019
     24  CD1        3.6040   18.8290  193.7630 C.3   111  ILE111      0.0001
     25  N          2.6090   15.4120  185.3700 N.3   117  ARG117     -0.1231
     26  CA         3.8310   16.1840  185.5370 C.3   117  ARG117      0.1694
     27  C          4.9180   15.6660  184.6000 C.2   117  ARG117      0.2591
     28  O          4.8030   14.5950  183.9970 O.2   117  ARG117     -0.2718
     29  CB         4.2940   16.1280  186.9980 C.3   117  ARG117      0.0321
     30  CG         3.2310   16.6150  187.9790 C.3   117  ARG117      0.0489
     31  CD         3.6250   16.3850  189.4300 C.3   117  ARG117      0.2205
     32  NE         4.7200   17.2470  189.8600 N.pl3 117  ARG117     -0.0865
     33  CZ         5.3150   17.1580  191.0440 C.cat 117  ARG117      0.5346
     34  NH1        6.3050   17.9820  191.3550 N.pl3 117  ARG117      0.1354
     35  NH2        4.9250   16.2410  191.9180 N.pl3 117  ARG117      0.1354
     36  N          5.9850   16.4590  184.4770 N.am  118  LEU118     -0.1980
     37  CA         7.0810   16.1170  183.5730 C.3   118  LEU118      0.1596
     38  C          7.6170   14.7150  183.8460 C.2   118  LEU118      0.2287
     39  O          7.9510   13.9780  182.9130 O.2   118  LEU118     -0.2864
     40  CB         8.1940   17.1560  183.7080 C.3   118  LEU118      0.0297
     41  CG         9.3840   17.0390  182.7570 C.3   118  LEU118      0.0022
     42  CD1        9.3910   18.1970  181.7760 C.3   118  LEU118      0.0001
     43  CD2       10.6730   17.0000  183.5510 C.3   118  LEU118      0.0001
     44  N          7.1670   11.9370  190.2880 N.3   122  TRP122     -0.1241
     45  CA         7.1750   13.0700  191.2030 C.3   122  TRP122      0.1605
     46  C          5.8380   13.1650  191.9250 C.2   122  TRP122      0.2264
     47  O          4.7810   13.2450  191.2890 O.2   122  TRP122     -0.2867
     48  CB         7.4710   14.3630  190.4500 C.3   122  TRP122      0.0550
     49  CG         8.8990   14.5050  190.0420 C.ar  122  TRP122      0.0003
     50  CD1        9.9550   13.7530  190.4700 C.ar  122  TRP122      0.0946
     51  CD2        9.4330   15.4600  189.1230 C.ar  122  TRP122      0.0152
     52  NE1       11.1130   14.1850  189.8760 N.ar  122  TRP122     -0.2442
     53  CE2       10.8190   15.2320  189.0420 C.ar  122  TRP122      0.0810
     54  CE3        8.8710   16.4880  188.3590 C.ar  122  TRP122      0.0012
     55  CZ2       11.6530   15.9920  188.2260 C.ar  122  TRP122      0.0191
     56  CZ3        9.6980   17.2410  187.5520 C.ar  122  TRP122      0.0001
     57  CH2       11.0750   16.9900  187.4910 C.ar  122  TRP122      0.0015
     58  N          8.6780   20.6380  194.0330 N.3   126  ILE126     -0.1245
     59  CA        10.0820   20.9570  193.7990 C.3   126  ILE126      0.1561
     60  C         10.1810   22.4570  193.5740 C.2   126  ILE126      0.2260
     61  O          9.4820   23.0100  192.7190 O.2   126  ILE126     -0.2867
     62  CB        10.6690   20.1850  192.6010 C.3   126  ILE126      0.0252
     63  CG1       10.6710   18.6850  192.9040 C.3   126  ILE126      0.0019
     64  CG2       12.0900   20.6730  192.2970 C.3   126  ILE126      0.0019
     65  CD1       11.1930   17.7990  191.7710 C.3   126  ILE126      0.0001
     66  N         12.7130   25.6980  192.8460 N.3   128  ILE128     -0.1245
     67  CA        13.9900   25.9390  192.1850 C.3   128  ILE128      0.1561
     68  C         14.3040   27.4260  192.2100 C.2   128  ILE128      0.2260
     69  O         13.4150   28.2610  192.0170 O.2   128  ILE128     -0.2867
     70  CB        13.9730   25.4280  190.7340 C.3   128  ILE128      0.0252
     71  CG1       13.6880   23.9230  190.7100 C.3   128  ILE128      0.0019
     72  CG2       15.2960   25.7540  190.0460 C.3   128  ILE128      0.0019
     73  CD1       13.5300   23.3490  189.3010 C.3   128  ILE128      0.0001
     74  N         17.7040   30.3140  191.1040 N.3   130  HIS130     -0.1241
     75  CA        18.9810   30.5320  190.4390 C.3   130  HIS130      0.1621
     76  C         19.6850   31.7530  191.0170 C.2   130  HIS130      0.2264
     77  O         19.0470   32.7360  191.4080 O.2   130  HIS130     -0.2867
     78  CB        18.8020   30.7260  188.9200 C.3   130  HIS130      0.0745
     79  CG        18.2430   29.5290  188.2170 C.ar  130  HIS130      0.0817
     80  ND1       19.0370   28.5130  187.7300 N.ar  130  HIS130     -0.2268
     81  CD2       16.9670   29.1860  187.9190 C.ar  130  HIS130      0.1154
     82  CE1       18.2750   27.5940  187.1650 C.ar  130  HIS130      0.1986
     83  NE2       17.0140   27.9780  187.2640 N.ar  130  HIS130     -0.2212
     84  N         25.9440   19.1800  189.5370 N.3   246  ILE246     -0.1245
     85  CA        24.6680   19.1360  188.8270 C.3   246  ILE246      0.1561
     86  C         24.5270   17.8680  187.9950 C.2   246  ILE246      0.2260
     87  O         23.4150   17.3480  187.8320 O.2   246  ILE246     -0.2867
     88  CB        24.4940   20.4030  187.9650 C.3   246  ILE246      0.0252
     89  CG1       23.0640   20.4700  187.4190 C.3   246  ILE246      0.0019
     90  CG2       25.5230   20.4390  186.8430 C.3   246  ILE246      0.0019
     91  CD1       22.6820   21.8160  186.8410 C.3   246  ILE246      0.0001
     92  N         20.8350   16.1810  188.5630 N.3   250  VAL250     -0.1245
     93  CA        19.7440   16.0510  187.5960 C.3   250  VAL250      0.1561
     94  C         19.2390   14.6110  187.5580 C.2   250  VAL250      0.2260
     95  O         18.0370   14.3450  187.7050 O.2   250  VAL250     -0.2867
     96  CB        20.2020   16.5330  186.2050 C.3   250  VAL250      0.0252
     97  CG1       19.0820   16.4000  185.1890 C.3   250  VAL250      0.0019
     98  CG2       20.6730   17.9850  186.2690 C.3   250  VAL250      0.0019
     99  N         17.5850   13.5660  190.8640 N.3   253  ALA253     -0.1231
    100  CA        16.3120   14.2590  191.0120 C.3   253  ALA253      0.1694
    101  C         15.2360   13.6250  190.1420 C.2   253  ALA253      0.2591
    102  O         14.0820   13.4930  190.5680 O.2   253  ALA253     -0.2718
    103  CB        16.4790   15.7380  190.6650 C.3   253  ALA253      0.0304
    104  N         15.5950   13.2180  188.9200 N.am  254  MET254     -0.1979
    105  CA        14.5980   12.6670  188.0090 C.3   254  MET254      0.1605
    106  C         13.9800   11.3660  188.5170 C.2   254  MET254      0.2287
    107  O         12.8600   11.0330  188.1150 O.2   254  MET254     -0.2864
    108  CB        15.2170   12.4430  186.6310 C.3   254  MET254      0.0413
    109  CG        15.1220   13.6600  185.7210 C.3   254  MET254      0.0598
    110  SD        15.7540   13.3550  184.0640 S.3   254  MET254     -0.1393
    111  CE        17.4530   12.9220  184.4380 C.3   254  MET254      0.0692
    112  N         15.8720   23.4500  195.5360 N.3   262  TRP262     -0.1241
    113  CA        17.0010   23.2870  194.6230 C.3   262  TRP262      0.1605
    114  C         17.6060   24.6600  194.3490 C.2   262  TRP262      0.2264
    115  O         17.0120   25.4800  193.6410 O.2   262  TRP262     -0.2867
    116  CB        16.5550   22.6040  193.3300 C.3   262  TRP262      0.0550
    117  CG        17.6640   22.2810  192.3650 C.ar  262  TRP262      0.0003
    118  CD1       18.9660   22.6900  192.4290 C.ar  262  TRP262      0.0946
    119  CD2       17.5570   21.4770  191.1890 C.ar  262  TRP262      0.0152
    120  NE1       19.6710   22.1920  191.3630 N.ar  262  TRP262     -0.2442
    121  CE2       18.8300   21.4430  190.5870 C.ar  262  TRP262      0.0810
    122  CE3       16.5060   20.7840  190.5830 C.ar  262  TRP262      0.0012
    123  CZ2       19.0810   20.7440  189.4100 C.ar  262  TRP262      0.0191
    124  CZ3       16.7580   20.0880  189.4130 C.ar  262  TRP262      0.0001
    125  CH2       18.0350   20.0750  188.8390 C.ar  262  TRP262      0.0015
    126  N         20.2480   26.3820  192.3820 N.3   264  CYS264     -0.1235
    127  CA        21.0360   26.0730  191.1990 C.3   264  CYS264      0.1677
    128  C         22.0950   27.1450  190.9870 C.2   264  CYS264      0.2270
    129  O         21.7990   28.3430  191.0500 O.2   264  CYS264     -0.2867
    130  CB        20.1300   25.9650  189.9730 C.3   264  CYS264      0.0956
    131  SG        20.8510   25.0290  188.6150 S.3   264  CYS264     -0.0801
    132  N         25.4160   28.0920  188.3520 N.3   266  ASN266     -0.1240
    133  CA        26.3230   27.9110  187.2250 C.3   266  ASN266      0.1653
    134  C         27.4120   28.9700  187.3120 C.2   266  ASN266      0.2266
    135  O         27.1110   30.1660  187.3940 O.2   266  ASN266     -0.2867
    136  CB        25.5810   28.0150  185.8890 C.3   266  ASN266      0.1155
    137  CG        24.8460   26.7400  185.5220 C.2   266  ASN266      0.2627
    138  OD1       24.6430   25.8630  186.3600 O.2   266  ASN266     -0.2716
    139  ND2       24.4410   26.6320  184.2600 N.am  266  ASN266     -0.0877
    140  N          9.7060   31.6370  183.3470 N.3   276  VAL276     -0.1231
    141  CA        10.3450   30.3290  183.2650 C.3   276  VAL276      0.1692
    142  C         10.1170   29.7880  181.8570 C.2   276  VAL276      0.2591
    143  O          9.4580   30.4370  181.0370 O.2   276  VAL276     -0.2718
    144  CB         9.8030   29.3820  184.3590 C.3   276  VAL276      0.0266
    145  CG1        8.5370   28.6480  183.9080 C.3   276  VAL276      0.0020
    146  CG2       10.8830   28.4110  184.8360 C.3   276  VAL276      0.0020
    147  N         10.6580   28.6040  181.5670 N.am  277  ALA277     -0.1980
    148  CA        10.6840   28.0680  180.2080 C.3   277  ALA277      0.1597
    149  C          9.2950   27.9790  179.5820 C.2   277  ALA277      0.2287
    150  O          8.7010   29.0060  179.2390 O.2   277  ALA277     -0.2864
    151  CB        11.3520   26.6920  180.2060 C.3   277  ALA277      0.0319
    152  N          7.9520   22.5600  180.7850 N.3   280  TYR280     -0.1241
    153  CA         8.0170   21.8060  182.0320 C.3   280  TYR280      0.1605
    154  C          6.6630   21.6910  182.7250 C.2   280  TYR280      0.2264
    155  O          6.6080   21.2800  183.8890 O.2   280  TYR280     -0.2867
    156  CB         9.0250   22.4490  182.9880 C.3   280  TYR280      0.0534
    157  CG        10.4440   22.5090  182.4620 C.ar  280  TYR280     -0.0201
    158  CD1       10.9840   23.7030  182.0110 C.ar  280  TYR280     -0.0009
    159  CD2       11.2440   21.3730  182.4260 C.ar  280  TYR280     -0.0009
    160  CE1       12.2790   23.7670  181.5370 C.ar  280  TYR280      0.0417
    161  CE2       12.5400   21.4270  181.9520 C.ar  280  TYR280      0.0417
    162  CZ        13.0530   22.6260  181.5090 C.ar  280  TYR280      0.1957
    163  OH        14.3450   22.6840  181.0340 O.3   280  TYR280     -0.2866
    164  N          2.3350   27.8790  187.5460 N.3   286  MET286     -0.1245
    165  CA         3.6740   28.1590  188.0410 C.3   286  MET286      0.1570
    166  C          3.7300   29.5320  188.6950 C.2   286  MET286      0.2261
    167  O          3.2050   30.5150  188.1630 O.2   286  MET286     -0.2867
    168  CB         4.7030   28.0770  186.9170 C.3   286  MET286      0.0387
    169  CG         4.8720   26.6690  186.3810 C.3   286  MET286      0.0595
    170  SD         6.5860   26.2430  186.0660 S.3   286  MET286     -0.1393
    171  CE         7.2820   26.3080  187.7170 C.3   286  MET286      0.0692
@<TRIPOS>BOND
     1   150   149    2
     2   149   148    1
     3   151   148    1
     4   148   147    1
     5   152   153    1
     6   163   162    1
     7   143   142    2
     8   162   160   ar
     9   162   161   ar
    10   160   158   ar
    11   147   142   am
    12    42    41    1
    13   142   141    1
    14   161   159   ar
    15   158   157   ar
    16   153   154    1
    17   153   156    1
    18   159   157   ar
    19   157   156    1
    20   154   155    2
    21    41    43    1
    22    41    40    1
    23    39    38    2
    24   141   140    1
    25   141   144    1
    26    37    40    1
    27    37    38    1
    28    37    36    1
    29   145   144    1
    30    28    27    2
    31   110   111    1
    32   110   109    1
    33   139   137   am
    34   144   146    1
    35    36    27   am
    36    27    26    1
    37    97    96    1
    38    25    26    1
    39   137   136    1
    40   137   138    2
    41    26    29    1
    42   109   108    1
    43   136   133    1
    44   170   169    1
    45   170   171    1
    46    96    98    1
    47    96    93    1
    48   169   168    1
    49   108   105    1
    50    91    89    1
    51    90    88    1
    52   168   165    1
    53    10     9    1
    54    29    30    1
    55    11     9    1
    56    82    83   ar
    57    82    80   ar
    58   133   134    1
    59   133   132    1
    60    83    81   ar
    61   134   135    2
    62     9     8    2
    63    89    88    1
    64    57    56   ar
    65    57    55   ar
    66   164   165    1
    67    56    54   ar
    68    94    93    1
    69    94    95    2
    70    93    92    1
    71    80    79   ar
    72    87    86    2
    73     8     7    1
    74    81    79   ar
    75    88    85    1
    76    30    31    1
    77    86    85    1
    78   105   106    1
    79   105   104    1
    80   165   166    1
    81   107   106    2
    82   167   166    2
    83     7     6    1
    84    79    78    1
    85    55    53   ar
    86    54    51   ar
    87   131   130    1
    88    85    84    1
    89   125   123   ar
    90   125   124   ar
    91    78    75    1
    92   104   101   am
    93    53    51   ar
    94    53    52   ar
    95    51    49   ar
    96    16    13    1
    97    73    71    1
    98     6     5    1
    99   123   121   ar
   100   124   122   ar
   101    31    32    1
   102     5     2    1
   103    32    33    2
   104    52    50   ar
   105   130   127    1
   106    49    48    1
   107    49    50   ar
   108    72    70    1
   109   101   102    2
   110   101   100    1
   111    13    12    1
   112    13    14    1
   113    44    45    1
   114    75    76    1
   115    75    74    1
   116    48    45    1
   117   122   119   ar
   118   121   119   ar
   119   121   120   ar
   120   103   100    1
   121    71    70    1
   122    70    67    1
   123    99   100    1
   124   128   129    2
   125   128   127    1
   126    76    77    2
   127    33    34    1
   128    33    35    1
   129    14    15    2
   130   119   117   ar
   131   127   126    1
   132    45    46    1
   133    47    46    2
   134     2     3    1
   135     2     1    1
   136   120   118   ar
   137     3     4    2
   138    65    63    1
   139    18    19    1
   140    18    17    1
   141    18    21    1
   142    69    68    2
   143    19    20    2
   144    67    68    1
   145    67    66    1
   146    64    62    1
   147   117   118   ar
   148   117   116    1
   149    62    63    1
   150    62    59    1
   151    61    60    2
   152    22    21    1
   153    22    24    1
   154    23    21    1
   155   116   113    1
   156    60    59    1
   157   115   114    2
   158    59    58    1
   159   114   113    1
   160   113   112    1
