@<TRIPOS>MOLECULE
tmp/5l58A01.pdb
 157 147 0 0 0
SMALL
GASTEIGER

@<TRIPOS>ATOM
      1  N          5.7680   24.6950  188.1520 N.3   109  ALA109     -0.1245
      2  CA         4.5370   24.3600  187.4510 C.3   109  ALA109      0.1562
      3  C          3.5050   23.8060  188.4250 C.2   109  ALA109      0.2260
      4  O          3.8440   23.0750  189.3600 O.2   109  ALA109     -0.2867
      5  CB         4.8060   23.3420  186.3430 C.3   109  ALA109      0.0290
      6  N          0.6610   21.3470  189.5060 N.3   111  ILE111     -0.1245
      7  CA         0.4510   19.9370  189.1990 C.3   111  ILE111      0.1561
      8  C         -1.0280   19.6040  189.3300 C.2   111  ILE111      0.2260
      9  O         -1.6670   19.9480  190.3320 O.2   111  ILE111     -0.2867
     10  CB         1.2920   19.0370  190.1190 C.3   111  ILE111      0.0252
     11  CG1        2.7770   19.3520  189.9570 C.3   111  ILE111      0.0019
     12  CG2        1.0260   17.5690  189.8210 C.3   111  ILE111      0.0019
     13  CD1        3.6620   18.4840  190.8090 C.3   111  ILE111      0.0001
     14  N          2.3560   15.2670  182.6680 N.3   117  ARG117     -0.1231
     15  CA         3.5940   16.0180  182.7810 C.3   117  ARG117      0.1694
     16  C          4.6230   15.4720  181.7930 C.2   117  ARG117      0.2591
     17  O          4.3840   14.4950  181.0800 O.2   117  ARG117     -0.2718
     18  CB         4.1180   15.9690  184.2190 C.3   117  ARG117      0.0321
     19  CG         3.1250   16.4790  185.2530 C.3   117  ARG117      0.0489
     20  CD         3.6430   16.2870  186.6690 C.3   117  ARG117      0.2205
     21  NE         4.7570   17.1790  186.9780 N.pl3 117  ARG117     -0.0865
     22  CZ         5.4720   17.1170  188.0970 C.cat 117  ARG117      0.5346
     23  NH1        6.4680   17.9680  188.3000 N.pl3 117  ARG117      0.1354
     24  NH2        5.1950   16.1980  189.0120 N.pl3 117  ARG117      0.1354
     25  N          5.7910   16.1190  181.7570 N.am  118  LEU118     -0.1980
     26  CA         6.8210   15.7410  180.7930 C.3   118  LEU118      0.1596
     27  C          7.3370   14.3310  181.0540 C.2   118  LEU118      0.2287
     28  O          7.6440   13.5910  180.1120 O.2   118  LEU118     -0.2864
     29  CB         7.9650   16.7530  180.8330 C.3   118  LEU118      0.0297
     30  CG         9.1290   16.5400  179.8650 C.3   118  LEU118      0.0022
     31  CD1        8.6270   16.3800  178.4380 C.3   118  LEU118      0.0001
     32  CD2       10.1010   17.7030  179.9660 C.3   118  LEU118      0.0001
     33  N          7.2540   11.7060  187.5390 N.3   122  TRP122     -0.1241
     34  CA         7.2120   12.8840  188.3950 C.3   122  TRP122      0.1605
     35  C          5.8980   12.9380  189.1640 C.2   122  TRP122      0.2264
     36  O          4.8160   12.8280  188.5780 O.2   122  TRP122     -0.2867
     37  CB         7.3950   14.1490  187.5580 C.3   122  TRP122      0.0550
     38  CG         8.7860   14.3160  187.0360 C.ar  122  TRP122      0.0003
     39  CD1        9.8990   13.6380  187.4390 C.ar  122  TRP122      0.0946
     40  CD2        9.2160   15.2180  186.0100 C.ar  122  TRP122      0.0152
     41  NE1       10.9960   14.0640  186.7310 N.ar  122  TRP122     -0.2442
     42  CE2       10.6030   15.0330  185.8460 C.ar  122  TRP122      0.0810
     43  CE3        8.5630   16.1650  185.2150 C.ar  122  TRP122      0.0012
     44  CZ2       11.3490   15.7590  184.9190 C.ar  122  TRP122      0.0191
     45  CZ3        9.3050   16.8840  184.2960 C.ar  122  TRP122      0.0001
     46  CH2       10.6830   16.6780  184.1560 C.ar  122  TRP122      0.0015
     47  N          8.6780   20.3530  191.0130 N.3   126  ILE126     -0.1245
     48  CA        10.0930   20.6330  190.8020 C.3   126  ILE126      0.1561
     49  C         10.2300   22.1320  190.5850 C.2   126  ILE126      0.2260
     50  O          9.7580   22.6660  189.5730 O.2   126  ILE126     -0.2867
     51  CB        10.6590   19.8480  189.6100 C.3   126  ILE126      0.0252
     52  CG1       10.5330   18.3420  189.8500 C.3   126  ILE126      0.0019
     53  CG2       12.1060   20.2420  189.3500 C.3   126  ILE126      0.0019
     54  CD1       10.9860   17.4990  188.6790 C.3   126  ILE126      0.0001
     55  N         12.5950   25.4230  189.9380 N.3   128  ILE128     -0.1245
     56  CA        13.8670   25.6720  189.2680 C.3   128  ILE128      0.1561
     57  C         14.1710   27.1630  189.3060 C.2   128  ILE128      0.2260
     58  O         13.3420   27.9810  188.8940 O.2   128  ILE128     -0.2867
     59  CB        13.8560   25.1640  187.8130 C.3   128  ILE128      0.0252
     60  CG1       13.5910   23.6580  187.7710 C.3   128  ILE128      0.0019
     61  CG2       15.1710   25.4910  187.1240 C.3   128  ILE128      0.0019
     62  CD1       13.5680   23.0840  186.3720 C.3   128  ILE128      0.0001
     63  N         17.4640   30.1750  188.6280 N.3   130  HIS130     -0.1241
     64  CA        18.7280   30.4380  187.9580 C.3   130  HIS130      0.1621
     65  C         19.3760   31.7000  188.5140 C.2   130  HIS130      0.2264
     66  O         18.7060   32.5890  189.0470 O.2   130  HIS130     -0.2867
     67  CB        18.5350   30.5840  186.4420 C.3   130  HIS130      0.0745
     68  CG        17.8130   29.4350  185.8110 C.ar  130  HIS130      0.0817
     69  ND1       18.4560   28.2910  185.3930 N.ar  130  HIS130     -0.2268
     70  CD2       16.5010   29.2550  185.5260 C.ar  130  HIS130      0.1154
     71  CE1       17.5720   27.4540  184.8790 C.ar  130  HIS130      0.1986
     72  NE2       16.3790   28.0160  184.9470 N.ar  130  HIS130     -0.2212
     73  N         25.5000   19.3560  186.6780 N.3   221  ILE221     -0.1245
     74  CA        24.2830   19.4580  185.8770 C.3   221  ILE221      0.1561
     75  C         24.1230   18.2390  184.9750 C.2   221  ILE221      0.2260
     76  O         22.9970   17.7900  184.7180 O.2   221  ILE221     -0.2867
     77  CB        24.2820   20.7770  185.0770 C.3   221  ILE221      0.0252
     78  CG1       22.9750   20.9360  184.2970 C.3   221  ILE221      0.0019
     79  CG2       25.4960   20.8600  184.1590 C.3   221  ILE221      0.0019
     80  CD1       22.8490   22.2620  183.5810 C.3   221  ILE221      0.0001
     81  N         20.5250   16.4460  185.5370 N.3   225  VAL225     -0.1245
     82  CA        19.4570   16.2210  184.5660 C.3   225  VAL225      0.1561
     83  C         19.0500   14.7510  184.5480 C.2   225  VAL225      0.2260
     84  O         17.8630   14.4150  184.6560 O.2   225  VAL225     -0.2867
     85  CB        19.8920   16.7060  183.1710 C.3   225  VAL225      0.0252
     86  CG1       18.8250   16.3820  182.1400 C.3   225  VAL225      0.0019
     87  CG2       20.1740   18.2000  183.1920 C.3   225  VAL225      0.0019
     88  N         17.4400   13.7570  187.7110 N.3   228  ALA228     -0.1231
     89  CA        16.1340   14.3920  187.8280 C.3   228  ALA228      0.1694
     90  C         15.0910   13.6970  186.9640 C.2   228  ALA228      0.2591
     91  O         13.9070   13.6810  187.3190 O.2   228  ALA228     -0.2718
     92  CB        16.2310   15.8710  187.4570 C.3   228  ALA228      0.0304
     93  N         15.5050   13.1170  185.8340 N.am  229  MET229     -0.1979
     94  CA        14.5480   12.4170  184.9840 C.3   229  MET229      0.1605
     95  C         14.0850   11.1050  185.6050 C.2   229  MET229      0.2287
     96  O         12.9770   10.6410  185.3110 O.2   229  MET229     -0.2864
     97  CB        15.1540   12.1650  183.6040 C.3   229  MET229      0.0413
     98  CG        14.5880   13.0530  182.5110 C.3   229  MET229      0.0598
     99  SD        15.3910   12.7710  180.9240 S.3   229  MET229     -0.1393
    100  CE        17.0640   13.2810  181.3080 C.3   229  MET229      0.0692
    101  N         15.9230   23.5580  192.7580 N.3   237  TRP237     -0.1241
    102  CA        17.0780   23.3680  191.8880 C.3   237  TRP237      0.1605
    103  C         17.7150   24.7250  191.6250 C.2   237  TRP237      0.2264
    104  O         17.1790   25.5310  190.8570 O.2   237  TRP237     -0.2867
    105  CB        16.6670   22.6850  190.5830 C.3   237  TRP237      0.0550
    106  CG        17.8030   22.4020  189.6420 C.ar  237  TRP237      0.0003
    107  CD1       19.1360   22.5900  189.8750 C.ar  237  TRP237      0.0946
    108  CD2       17.7010   21.8770  188.3130 C.ar  237  TRP237      0.0152
    109  NE1       19.8670   22.2180  188.7740 N.ar  237  TRP237     -0.2442
    110  CE2       19.0100   21.7760  187.8020 C.ar  237  TRP237      0.0810
    111  CE3       16.6300   21.4830  187.5060 C.ar  237  TRP237      0.0012
    112  CZ2       19.2760   21.2960  186.5210 C.ar  237  TRP237      0.0191
    113  CZ3       16.8960   21.0070  186.2340 C.ar  237  TRP237      0.0001
    114  CH2       18.2090   20.9190  185.7540 C.ar  237  TRP237      0.0015
    115  N         20.4010   26.4940  189.7220 N.3   239  CYS239     -0.1235
    116  CA        21.2030   26.2650  188.5310 C.3   239  CYS239      0.1677
    117  C         22.1230   27.4560  188.2960 C.2   239  CYS239      0.2270
    118  O         21.7220   28.6090  188.4840 O.2   239  CYS239     -0.2867
    119  CB        20.3120   26.0340  187.3090 C.3   239  CYS239      0.0956
    120  SG        21.1280   25.1810  185.9460 S.3   239  CYS239     -0.0801
    121  N         25.2620   28.2590  185.4550 N.3   241  ASN241     -0.1240
    122  CA        25.4210   28.7040  184.0720 C.3   241  ASN241      0.1653
    123  C         25.8300   30.1710  183.9970 C.2   241  ASN241      0.2266
    124  O         26.1720   30.7830  185.0150 O.2   241  ASN241     -0.2867
    125  CB        24.1340   28.4700  183.2760 C.3   241  ASN241      0.1155
    126  CG        23.6530   27.0350  183.3570 C.2   241  ASN241      0.2627
    127  OD1       24.4530   26.1040  183.4420 O.2   241  ASN241     -0.2716
    128  ND2       22.3380   26.8500  183.3340 N.am  241  ASN241     -0.0877
    129  N          9.8860   30.3930  179.2410 N.3   244  ALA244     -0.1245
    130  CA        10.1460   28.9690  179.0670 C.3   244  ALA244      0.1562
    131  C          9.8520   28.6170  177.6120 C.2   244  ALA244      0.2260
    132  O          9.9070   29.4800  176.7300 O.2   244  ALA244     -0.2867
    133  CB         9.3190   28.1440  180.0680 C.3   244  ALA244      0.0290
    134  N          8.1390   22.6760  178.2140 N.3   247  TYR247     -0.1227
    135  CA         8.2370   21.7510  179.3370 C.3   247  TYR247      0.1736
    136  C          6.9060   21.6230  180.0740 C.2   247  TYR247      0.2596
    137  O          6.8750   21.3620  181.2780 O.2   247  TYR247     -0.2718
    138  CB         9.3400   22.1880  180.3000 C.3   247  TYR247      0.0548
    139  CG        10.7250   22.1790  179.6940 C.ar  247  TYR247     -0.0200
    140  CD1       11.5510   21.0680  179.8140 C.ar  247  TYR247     -0.0009
    141  CD2       11.2090   23.2820  179.0020 C.ar  247  TYR247     -0.0009
    142  CE1       12.8190   21.0570  179.2620 C.ar  247  TYR247      0.0417
    143  CE2       12.4740   23.2800  178.4450 C.ar  247  TYR247      0.0417
    144  CZ        13.2750   22.1660  178.5790 C.ar  247  TYR247      0.1957
    145  OH        14.5350   22.1600  178.0270 O.3   247  TYR247     -0.2866
    146  N          5.8020   21.8020  179.3550 N.am  248  GLY248     -0.1957
    147  CA         4.4620   21.8070  179.8930 C.3   248  GLY248      0.1869
    148  C          3.6910   22.9930  179.3660 C.2   248  GLY248      0.2309
    149  O          4.1030   23.6620  178.4120 O.2   248  GLY248     -0.2863
    150  N          2.5710   27.6390  184.8180 N.3   253  MET253     -0.1245
    151  CA         3.9130   27.9830  185.2640 C.3   253  MET253      0.1570
    152  C          3.8770   29.2980  186.0330 C.2   253  MET253      0.2261
    153  O          3.3520   30.3000  185.5340 O.2   253  MET253     -0.2867
    154  CB         4.8640   28.0930  184.0710 C.3   253  MET253      0.0387
    155  CG         6.3160   27.7980  184.3990 C.3   253  MET253      0.0595
    156  SD         6.6030   26.0420  184.6710 S.3   253  MET253     -0.1393
    157  CE         6.0960   25.3690  183.0900 C.3   253  MET253      0.0692
@<TRIPOS>BOND
     1   132   131    2
     2   131   130    1
     3   145   144    1
     4   134   135    1
     5   149   148    2
     6    31    30    1
     7   143   144   ar
     8   143   141   ar
     9   144   142   ar
    10   141   139   ar
    11   130   129    1
    12   130   133    1
    13   142   140   ar
    14   135   136    1
    15   135   138    1
    16   146   147    1
    17   146   136   am
    18   148   147    1
    19   139   140   ar
    20   139   138    1
    21    30    32    1
    22    30    29    1
    23   136   137    2
    24    28    27    2
    25    26    29    1
    26    26    27    1
    27    26    25    1
    28    99   100    1
    29    99    98    1
    30    17    16    2
    31    25    16   am
    32    16    15    1
    33    86    85    1
    34    98    97    1
    35    14    15    1
    36    15    18    1
    37   157   156    1
    38    85    87    1
    39    85    82    1
    40   125   126    1
    41   125   122    1
    42   128   126   am
    43   126   127    2
    44    80    78    1
    45    97    94    1
    46   123   122    1
    47   123   124    2
    48   154   155    1
    49   154   151    1
    50   122   121    1
    51    46    45   ar
    52    46    44   ar
    53    79    77    1
    54    18    19    1
    55    45    43   ar
    56    78    77    1
    57   155   156    1
    58    83    82    1
    59    83    84    2
    60    82    81    1
    61    76    75    2
    62   150   151    1
    63    71    72   ar
    64    71    69   ar
    65    44    42   ar
    66    72    70   ar
    67    75    74    1
    68    94    95    1
    69    94    93    1
    70    77    74    1
    71    43    40   ar
    72    19    20    1
    73   151   152    1
    74    96    95    2
    75    69    68   ar
    76    70    68   ar
    77   153   152    2
    78   114   113   ar
    79   114   112   ar
    80    68    67    1
    81    93    90   am
    82    42    40   ar
    83    42    41   ar
    84    74    73    1
    85   120   119    1
    86    40    38   ar
    87   113   111   ar
    88     5     2    1
    89    62    60    1
    90    67    64    1
    91   112   110   ar
    92    20    21    1
    93    41    39   ar
    94    90    91    2
    95    90    89    1
    96    21    22    2
    97    38    39   ar
    98    38    37    1
    99    61    59    1
   100   119   116    1
   101     2     1    1
   102     2     3    1
   103    92    89    1
   104   111   108   ar
   105    33    34    1
   106    37    34    1
   107    88    89    1
   108    60    59    1
   109   110   108   ar
   110   110   109   ar
   111    59    56    1
   112    64    65    1
   113    64    63    1
   114    22    23    1
   115    22    24    1
   116   117   118    2
   117   117   116    1
   118   108   106   ar
   119    34    35    1
   120     3     4    2
   121    65    66    2
   122   116   115    1
   123    36    35    2
   124    54    52    1
   125   109   107   ar
   126    58    57    2
   127     7     8    1
   128     7     6    1
   129     7    10    1
   130    56    57    1
   131    56    55    1
   132     8     9    2
   133    53    51    1
   134    50    49    2
   135    51    52    1
   136    51    48    1
   137   106   107   ar
   138   106   105    1
   139    12    10    1
   140    11    10    1
   141    11    13    1
   142   105   102    1
   143    49    48    1
   144    48    47    1
   145   104   103    2
   146   103   102    1
   147   102   101    1
