@<TRIPOS>MOLECULE
tmp/5l5eK00.pdb
 144 136 0 0 0
SMALL
GASTEIGER

@<TRIPOS>ATOM
      1  N         11.8920 -140.3390   10.3040 N.3     1  THR1       -0.1218
      2  CA        11.4500 -139.4300    9.1890 C.3     1  THR1        0.1862
      3  C         11.9250 -139.7700    7.7800 C.2     1  THR1        0.2287
      4  O         12.9360 -140.4370    7.5950 O.2     1  THR1       -0.2866
      5  CB        12.0260 -138.0530    9.4760 C.3     1  THR1        0.1770
      6  OG1       11.4710 -137.6050   10.6760 O.3     1  THR1       -0.2211
      7  CG2       11.6850 -136.9710    8.4560 C.3     1  THR1        0.0375
      8  N          5.1920 -139.4360   10.3950 N.3    19  ARG19      -0.1231
      9  CA         5.3250 -140.3170   11.5510 C.3    19  ARG19       0.1694
     10  C          6.2580 -139.7150   12.5990 C.2    19  ARG19       0.2592
     11  O          7.1530 -138.9370   12.2780 O.2    19  ARG19      -0.2718
     12  CB         5.8370 -141.6920   11.1140 C.3    19  ARG19       0.0321
     13  CG         5.8000 -142.7470   12.2090 C.3    19  ARG19       0.0489
     14  CD         5.8950 -144.1510   11.6390 C.3    19  ARG19       0.2205
     15  NE         4.6470 -144.5660   11.0020 N.pl3  19  ARG19      -0.0865
     16  CZ         4.4350 -145.7640   10.4600 C.cat  19  ARG19       0.5346
     17  NH1        5.3910 -146.6900   10.4700 N.pl3  19  ARG19       0.1354
     18  NH2        3.2590 -146.0390    9.9050 N.pl3  19  ARG19       0.1354
     19  N          6.0270 -140.0740   13.8560 N.am   20  ALA20      -0.1966
     20  CA         6.8990 -139.6850   14.9590 C.3    20  ALA20       0.1728
     21  C          6.9300 -140.8460   15.9330 C.2    20  ALA20       0.2617
     22  O          5.8780 -141.2820   16.4050 O.2    20  ALA20      -0.2715
     23  CB         6.3710 -138.4400   15.6430 C.3    20  ALA20       0.0334
     24  N          8.1230 -141.3470   16.2320 N.am   21  SER21      -0.1936
     25  CA         8.2480 -142.5630   17.0280 C.3    21  SER21       0.2055
     26  C          9.0460 -142.3420   18.3040 C.2    21  SER21       0.2642
     27  O          9.8190 -141.3880   18.4270 O.2    21  SER21      -0.2714
     28  CB         8.8840 -143.6890   16.2060 C.3    21  SER21       0.2130
     29  OG         8.7820 -143.4380   14.8140 O.3    21  SER21      -0.2179
     30  N          8.8320 -143.2530   19.2460 N.am   22  ALA22      -0.1977
     31  CA         9.5190 -143.2610   20.5240 C.3    22  ALA22       0.1597
     32  C          9.8880 -144.7090   20.8210 C.2    22  ALA22       0.2287
     33  O          9.1900 -145.4060   21.5610 O.2    22  ALA22      -0.2864
     34  CB         8.6130 -142.7000   21.6010 C.3    22  ALA22       0.0319
     35  N          7.3020 -147.7530   19.5540 N.3    25  TYR25      -0.1241
     36  CA         5.9830 -147.1360   19.6690 C.3    25  TYR25       0.1605
     37  C          5.8450 -145.9370   18.7360 C.2    25  TYR25       0.2264
     38  O          6.6950 -145.0470   18.7350 O.2    25  TYR25      -0.2867
     39  CB         5.7360 -146.7040   21.1200 C.3    25  TYR25       0.0534
     40  CG         4.4240 -145.9840   21.3570 C.ar   25  TYR25      -0.0201
     41  CD1        4.4030 -144.6670   21.8070 C.ar   25  TYR25      -0.0009
     42  CD2        3.2060 -146.6210   21.1380 C.ar   25  TYR25      -0.0009
     43  CE1        3.2080 -144.0060   22.0320 C.ar   25  TYR25       0.0417
     44  CE2        2.0040 -145.9660   21.3580 C.ar   25  TYR25       0.0417
     45  CZ         2.0100 -144.6580   21.8050 C.ar   25  TYR25       0.1957
     46  OH         0.8220 -144.0010   22.0260 O.3    25  TYR25      -0.2866
     47  N          4.2980 -142.7310   18.3810 N.3    27  SER27      -0.1202
     48  CA         3.6800 -141.7440   19.2610 C.3    27  SER27       0.2020
     49  C          2.7320 -140.8140   18.5130 C.2    27  SER27       0.2618
     50  O          1.7240 -140.3860   19.0680 O.2    27  SER27      -0.2717
     51  CB         4.7550 -140.9200   19.9590 C.3    27  SER27       0.2103
     52  OG         5.6090 -140.3320   18.9990 O.3    27  SER27      -0.2182
     53  N          3.0540 -140.4970   17.2620 N.am   28  ALA28      -0.1979
     54  CA         2.2050 -139.6180   16.4610 C.3    28  ALA28       0.1597
     55  C          2.1150 -140.0810   15.0150 C.2    28  ALA28       0.2287
     56  O          3.1280 -140.2960   14.3510 O.2    28  ALA28      -0.2864
     57  CB         2.7130 -138.1920   16.5230 C.3    28  ALA28       0.0319
     58  N          2.3520 -135.7310   12.4500 N.3    31  VAL31      -0.1231
     59  CA         3.0800 -134.5100   12.8130 C.3    31  VAL31       0.1692
     60  C          3.4290 -133.7250   11.5550 C.2    31  VAL31       0.2592
     61  O          3.6700 -134.3060   10.4930 O.2    31  VAL31      -0.2718
     62  CB         4.3670 -134.7870   13.6300 C.3    31  VAL31       0.0266
     63  CG1        4.0380 -135.5670   14.8900 C.3    31  VAL31       0.0020
     64  CG2        5.4110 -135.5320   12.8110 C.3    31  VAL31       0.0020
     65  N          3.4520 -132.4030   11.6830 N.am   32  ASN32      -0.1960
     66  CA         3.7620 -131.5320   10.5610 C.3    32  ASN32       0.1819
     67  C          5.2600 -131.2610   10.4980 C.2    32  ASN32       0.2621
     68  O          5.7990 -130.5230   11.3230 O.2    32  ASN32      -0.2715
     69  CB         2.9920 -130.2190   10.6740 C.3    32  ASN32       0.1195
     70  CG         3.2100 -129.3090    9.4790 C.2    32  ASN32       0.2630
     71  OD1        3.7740 -129.7140    8.4620 O.2    32  ASN32      -0.2716
     72  ND2        2.7600 -128.0690    9.5970 N.am   32  ASN32      -0.0877
     73  N          5.9190 -131.8550    9.5070 N.am   33  LYS33      -0.1977
     74  CA         7.3740 -131.7610    9.3680 C.3    33  LYS33       0.1596
     75  C          7.8180 -130.6420    8.4230 C.2    33  LYS33       0.2287
     76  O          8.9980 -130.5390    8.0860 O.2    33  LYS33      -0.2864
     77  CB         7.9360 -133.1090    8.9170 C.3    33  LYS33       0.0298
     78  CG         7.8390 -134.1580   10.0040 C.3    33  LYS33       0.0038
     79  CD         8.2250 -135.5350    9.5090 C.3    33  LYS33       0.0206
     80  CE         8.0050 -136.5680   10.5950 C.3    33  LYS33       0.1093
     81  NZ         8.0400 -137.9490   10.0780 N.3    33  LYS33      -0.1314
     82  N         11.8870 -130.7880    8.3120 N.3    45  MET45      -0.1230
     83  CA        12.2900 -131.1350    9.6720 C.3    45  MET45       0.1702
     84  C         12.6720 -132.6020    9.7840 C.2    45  MET45       0.2593
     85  O         11.8820 -133.4810    9.4480 O.2    45  MET45      -0.2718
     86  CB        11.1530 -130.8550   10.6540 C.3    45  MET45       0.0401
     87  CG        10.7060 -129.4040   10.7300 C.3    45  MET45       0.0596
     88  SD         9.4480 -129.1800   12.0010 S.3    45  MET45      -0.1393
     89  CE         9.2720 -127.4000   12.0040 C.3    45  MET45       0.0692
     90  N         13.8860 -132.8530   10.2610 N.am   46  SER46      -0.1938
     91  CA        14.3180 -134.1970   10.6340 C.3    46  SER46       0.2055
     92  C         15.2560 -134.0970   11.8330 C.2    46  SER46       0.2644
     93  O         15.9590 -133.0980   11.9970 O.2    46  SER46      -0.2714
     94  CB        15.0020 -134.9000    9.4590 C.3    46  SER46       0.2130
     95  OG        16.2430 -134.2960    9.1460 O.3    46  SER46      -0.2179
     96  N         15.2590 -135.1340   12.6660 N.am   47  GLY47      -0.1939
     97  CA        16.0180 -135.1230   13.9150 C.3    47  GLY47       0.2014
     98  C         15.0970 -134.7820   15.0740 C.2    47  GLY47       0.2639
     99  O         13.9390 -135.2100   15.0960 O.2    47  GLY47      -0.2714
    100  N         15.6020 -134.0070   16.0320 N.am   48  CYS48      -0.1953
    101  CA        14.8070 -133.6210   17.2000 C.3    48  CYS48       0.1843
    102  C         13.7390 -132.6250   16.7750 C.2    48  CYS48       0.2625
    103  O         14.0520 -131.5780   16.2100 O.2    48  CYS48      -0.2714
    104  CB        15.6870 -133.0100   18.3000 C.3    48  CYS48       0.0997
    105  SG        14.9140 -132.9460   19.9390 S.3    48  CYS48      -0.0797
    106  N         12.4820 -132.9650   17.0410 N.am   49  ALA49      -0.1977
    107  CA        11.3460 -132.1130   16.6810 C.3    49  ALA49       0.1597
    108  C         11.4350 -130.7320   17.3320 C.2    49  ALA49       0.2287
    109  O         11.1320 -129.7170   16.7020 O.2    49  ALA49      -0.2864
    110  CB        10.0430 -132.7880   17.0780 C.3    49  ALA49       0.0319
    111  N         14.1230 -128.5400   15.6740 N.3    52  CYS52      -0.1235
    112  CA        13.6030 -128.1190   14.3760 C.3    52  CYS52       0.1677
    113  C         12.5800 -126.9970   14.5330 C.2    52  CYS52       0.2270
    114  O         12.6970 -125.9570   13.8930 O.2    52  CYS52      -0.2867
    115  CB        12.9750 -129.3000   13.6340 C.3    52  CYS52       0.0956
    116  SG        14.1400 -130.6050   13.1740 S.3    52  CYS52      -0.0801
    117  N         20.1140 -131.5760   17.4700 N.3    96  SER96      -0.1217
    118  CA        19.8620 -132.5430   16.4040 C.3    96  SER96       0.1889
    119  C         18.8390 -131.9730   15.4310 C.2    96  SER96       0.2288
    120  O         17.6420 -131.9240   15.7250 O.2    96  SER96      -0.2866
    121  CB        19.3580 -133.8660   16.9820 C.3    96  SER96       0.2089
    122  OG        19.1880 -134.8360   15.9630 O.3    96  SER96      -0.2183
    123  N         16.5160 -138.0390    6.8370 N.3   129  GLY129     -0.1210
    124  CA        15.7220 -138.8990    7.7090 C.3   129  GLY129      0.1956
    125  C         16.0960 -140.3620    7.5830 C.2   129  GLY129      0.2612
    126  O         16.8900 -140.7370    6.7230 O.2   129  GLY129     -0.2717
    127  N         15.5050 -141.1890    8.4410 N.am  130  SER130     -0.1952
    128  CA        15.7700 -142.6280    8.4540 C.3   130  SER130      0.1924
    129  C         15.4810 -143.3130    7.1150 C.2   130  SER130      0.2314
    130  O         16.0910 -144.3360    6.8020 O.2   130  SER130     -0.2863
    131  CB        14.9620 -143.3070    9.5660 C.3   130  SER130      0.2116
    132  OG        13.6430 -142.7940    9.6250 O.3   130  SER130     -0.2180
    133  N         10.2200 -146.5110   10.5320 N.3   169  TYR169     -0.1241
    134  CA        10.0410 -145.2410   11.2470 C.3   169  TYR169      0.1605
    135  C          9.6010 -144.0930   10.3350 C.2   169  TYR169      0.2264
    136  O          9.7220 -142.9240   10.7020 O.2   169  TYR169     -0.2867
    137  CB        11.3350 -144.8690   11.9750 C.3   169  TYR169      0.0534
    138  CG        11.7780 -145.9380   12.9390 C.ar  169  TYR169     -0.0201
    139  CD1       11.0900 -146.1510   14.1260 C.ar  169  TYR169     -0.0009
    140  CD2       12.8690 -146.7540   12.6570 C.ar  169  TYR169     -0.0009
    141  CE1       11.4800 -147.1380   15.0110 C.ar  169  TYR169      0.0417
    142  CE2       13.2670 -147.7450   13.5390 C.ar  169  TYR169      0.0417
    143  CZ        12.5670 -147.9310   14.7140 C.ar  169  TYR169      0.1957
    144  OH        12.9510 -148.9120   15.5970 O.3   169  TYR169     -0.2866
@<TRIPOS>BOND
     1   126   125    2
     2   130   129    2
     3   123   124    1
     4   129   128    1
     5   125   124    1
     6   125   127   am
     7     4     3    2
     8     3     2    1
     9    76    75    2
    10    82    83    1
    11    75    74    1
    12   127   128    1
    13   128   131    1
    14     7     5    1
    15    71    70    2
    16    77    74    1
    17    77    78    1
    18    95    94    1
    19     2     5    1
    20     2     1    1
    21    74    73    1
    22    85    84    2
    23    94    91    1
    24     5     6    1
    25    70    72   am
    26    70    69    1
    27    73    67   am
    28    79    78    1
    29    79    80    1
    30   131   132    1
    31    83    84    1
    32    83    86    1
    33    84    90   am
    34    18    16    1
    35    81    80    1
    36    90    91    1
    37   135   136    2
    38   135   134    1
    39     8     9    1
    40    16    17    1
    41    16    15    2
    42    61    60    2
    43    67    66    1
    44    67    68    2
    45   133   134    1
    46    66    69    1
    47    66    65    1
    48    91    92    1
    49    86    87    1
    50    87    88    1
    51    15    14    1
    52    12     9    1
    53    12    13    1
    54   134   137    1
    55     9    10    1
    56    60    65   am
    57    60    59    1
    58    14    13    1
    59    92    93    2
    60    92    96   am
    61   137   138    1
    62    88    89    1
    63    11    10    2
    64    58    59    1
    65    10    19   am
    66   140   138   ar
    67   140   142   ar
    68    96    97    1
    69    64    62    1
    70    59    62    1
    71   138   139   ar
    72   116   115    1
    73   142   143   ar
    74    62    63    1
    75   115   112    1
    76    19    20    1
    77   114   113    2
    78    97    98    1
    79   139   141   ar
    80    56    55    2
    81   112   113    1
    82   112   111    1
    83   143   141   ar
    84   143   144    1
    85    29    28    1
    86    20    23    1
    87    20    21    1
    88    55    54    1
    89    98    99    2
    90    98   100   am
    91   119   120    2
    92   119   118    1
    93    21    24   am
    94    21    22    2
    95   122   121    1
    96   100   101    1
    97    28    25    1
    98   103   102    2
    99    24    25    1
   100   118   121    1
   101   118   117    1
   102    54    57    1
   103    54    53    1
   104   107   106    1
   105   107   110    1
   106   107   108    1
   107   109   108    2
   108   102   106   am
   109   102   101    1
   110    25    26    1
   111   101   104    1
   112    53    49   am
   113   104   105    1
   114    26    27    2
   115    26    30   am
   116    47    48    1
   117    49    50    2
   118    49    48    1
   119    38    37    2
   120    37    36    1
   121    52    51    1
   122    30    31    1
   123    48    51    1
   124    35    36    1
   125    36    39    1
   126    31    32    1
   127    31    34    1
   128    32    33    2
   129    39    40    1
   130    42    40   ar
   131    42    44   ar
   132    40    41   ar
   133    44    45   ar
   134    45    46    1
   135    45    43   ar
   136    41    43   ar
