@<TRIPOS>MOLECULE
tmp/5l5fK00.pdb
 118 110 0 0 0
SMALL
GASTEIGER

@<TRIPOS>ATOM
      1  N         11.4880 -140.8080    9.6850 N.3     1  THR1       -0.1218
      2  CA        11.2090 -139.5330    8.9620 C.3     1  THR1        0.1862
      3  C         11.7920 -139.6290    7.5620 C.2     1  THR1        0.2287
      4  O         12.8950 -140.1370    7.3690 O.2     1  THR1       -0.2866
      5  CB        11.8030 -138.3050    9.6800 C.3     1  THR1        0.1770
      6  OG1       11.0480 -138.0790   10.8720 O.3     1  THR1       -0.2211
      7  CG2       11.7070 -137.0140    8.8440 C.3     1  THR1        0.0375
      8  N          5.1470 -139.2560   10.4220 N.3    19  ARG19      -0.1231
      9  CA         5.2950 -140.1510   11.5710 C.3    19  ARG19       0.1694
     10  C          6.2410 -139.5870   12.6310 C.2    19  ARG19       0.2592
     11  O          7.2140 -138.9040   12.3130 O.2    19  ARG19      -0.2718
     12  CB         5.7890 -141.5300   11.1130 C.3    19  ARG19       0.0321
     13  CG         5.7990 -142.5880   12.2110 C.3    19  ARG19       0.0489
     14  CD         5.8810 -143.9970   11.6450 C.3    19  ARG19       0.2205
     15  NE         4.6240 -144.4120   11.0280 N.pl3  19  ARG19      -0.0865
     16  CZ         4.3910 -145.6190   10.5180 C.cat  19  ARG19       0.5346
     17  NH1        5.3320 -146.5590   10.5410 N.pl3  19  ARG19       0.1354
     18  NH2        3.2050 -145.8900    9.9810 N.pl3  19  ARG19       0.1354
     19  N          5.9410 -139.8840   13.8920 N.am   20  ALA20      -0.1966
     20  CA         6.8260 -139.5650   15.0120 C.3    20  ALA20       0.1728
     21  C          6.8560 -140.7620   15.9540 C.2    20  ALA20       0.2617
     22  O          5.8030 -141.3030   16.2920 O.2    20  ALA20      -0.2715
     23  CB         6.3390 -138.3280   15.7430 C.3    20  ALA20       0.0334
     24  N          8.0530 -141.1690   16.3740 N.am   21  SER21      -0.1936
     25  CA         8.2110 -142.3760   17.1880 C.3    21  SER21       0.2055
     26  C          8.9810 -142.1250   18.4810 C.2    21  SER21       0.2642
     27  O          9.7740 -141.1870   18.5840 O.2    21  SER21      -0.2714
     28  CB         8.9150 -143.4830   16.3930 C.3    21  SER21       0.2130
     29  OG         9.2100 -143.0730   15.0730 O.3    21  SER21      -0.2179
     30  N          8.7230 -142.9880   19.4600 N.am   22  ALA22      -0.1977
     31  CA         9.4750 -143.0410   20.7080 C.3    22  ALA22       0.1597
     32  C          9.8160 -144.5100   20.9520 C.2    22  ALA22       0.2287
     33  O          9.0410 -145.2470   21.5670 O.2    22  ALA22      -0.2864
     34  CB         8.6510 -142.4740   21.8520 C.3    22  ALA22       0.0319
     35  N          4.3260 -142.5660   18.3400 N.3    27  SER27      -0.1217
     36  CA         3.7390 -141.5680   19.2300 C.3    27  SER27       0.1889
     37  C          2.8050 -140.5990   18.5100 C.2    27  SER27       0.2288
     38  O          1.8790 -140.0740   19.1220 O.2    27  SER27      -0.2866
     39  CB         4.8370 -140.7900   19.9560 C.3    27  SER27       0.2089
     40  OG         5.7080 -140.1690   19.0310 O.3    27  SER27      -0.2183
     41  N          2.1980 -135.6060   12.2740 N.3    31  VAL31      -0.1245
     42  CA         3.0260 -134.4780   12.6680 C.3    31  VAL31       0.1561
     43  C          3.3220 -133.6160   11.4360 C.2    31  VAL31       0.2260
     44  O          3.5370 -134.1450   10.3470 O.2    31  VAL31      -0.2867
     45  CB         4.3010 -134.9840   13.3890 C.3    31  VAL31       0.0252
     46  CG1        5.5710 -134.5620   12.6920 C.3    31  VAL31       0.0019
     47  CG2        4.3960 -134.4160   14.7830 C.3    31  VAL31       0.0019
     48  N          5.7570 -131.6780    9.4770 N.3    33  LYS33      -0.1245
     49  CA         7.2140 -131.5640    9.3430 C.3    33  LYS33       0.1561
     50  C          7.6410 -130.4540    8.3810 C.2    33  LYS33       0.2260
     51  O          8.7960 -130.4000    7.9600 O.2    33  LYS33      -0.2867
     52  CB         7.8050 -132.9100    8.9120 C.3    33  LYS33       0.0271
     53  CG         7.6500 -133.9760    9.9780 C.3    33  LYS33       0.0035
     54  CD         8.1280 -135.3380    9.5220 C.3    33  LYS33       0.0206
     55  CE         7.8370 -136.3690   10.5960 C.3    33  LYS33       0.1093
     56  NZ         8.2330 -137.7400   10.1940 N.3    33  LYS33      -0.1314
     57  N         11.6260 -130.6890    8.3500 N.3    45  MET45      -0.1230
     58  CA        12.0390 -131.1060    9.6880 C.3    45  MET45       0.1702
     59  C         12.4350 -132.5750    9.7340 C.2    45  MET45       0.2593
     60  O         11.7000 -133.4390    9.2580 O.2    45  MET45      -0.2718
     61  CB        10.9040 -130.8840   10.6850 C.3    45  MET45       0.0401
     62  CG        10.4600 -129.4400   10.8420 C.3    45  MET45       0.0596
     63  SD         9.2950 -129.2840   12.2110 S.3    45  MET45      -0.1393
     64  CE         8.9380 -127.5340   12.1790 C.3    45  MET45       0.0692
     65  N         13.5980 -132.8410   10.3220 N.am   46  SER46      -0.1938
     66  CA        14.0300 -134.2000   10.6390 C.3    46  SER46       0.2055
     67  C         14.9640 -134.1480   11.8460 C.2    46  SER46       0.2644
     68  O         15.7730 -133.2250   11.9680 O.2    46  SER46      -0.2714
     69  CB        14.7270 -134.8470    9.4380 C.3    46  SER46       0.2130
     70  OG        15.9720 -134.2300    9.1630 O.3    46  SER46      -0.2179
     71  N         14.8390 -135.1320   12.7350 N.am   47  GLY47      -0.1939
     72  CA        15.6220 -135.1760   13.9720 C.3    47  GLY47       0.2014
     73  C         14.7330 -134.9660   15.1830 C.2    47  GLY47       0.2639
     74  O         13.6320 -135.5190   15.2520 O.2    47  GLY47      -0.2714
     75  N         15.2100 -134.1710   16.1400 N.am   48  CYS48      -0.1953
     76  CA        14.4260 -133.8320   17.3260 C.3    48  CYS48       0.1843
     77  C         13.3810 -132.7830   16.9530 C.2    48  CYS48       0.2625
     78  O         13.7250 -131.7160   16.4400 O.2    48  CYS48      -0.2714
     79  CB        15.3320 -133.3010   18.4410 C.3    48  CYS48       0.0997
     80  SG        14.4850 -132.9390   19.9990 S.3    48  CYS48      -0.0797
     81  N         12.1120 -133.0960   17.2070 N.am   49  ALA49      -0.1963
     82  CA        10.9990 -132.2060   16.8560 C.3    49  ALA49       0.1728
     83  C         11.0830 -130.8470   17.5470 C.2    49  ALA49       0.2616
     84  O         10.7770 -129.8200   16.9410 O.2    49  ALA49      -0.2715
     85  CB         9.6690 -132.8720   17.1770 C.3    49  ALA49       0.0334
     86  N         11.4990 -130.8480   18.8100 N.am   50  ALA50      -0.1977
     87  CA        11.6160 -129.6160   19.5910 C.3    50  ALA50       0.1597
     88  C         12.6430 -128.6630   18.9900 C.2    50  ALA50       0.2287
     89  O         12.3810 -127.4670   18.8550 O.2    50  ALA50      -0.2864
     90  CB        11.9840 -129.9340   21.0300 C.3    50  ALA50       0.0319
     91  N         13.8060 -128.6920   15.8640 N.3    52  CYS52      -0.1235
     92  CA        13.3180 -128.2710   14.5500 C.3    52  CYS52       0.1677
     93  C         12.3010 -127.1400   14.6660 C.2    52  CYS52       0.2270
     94  O         12.3910 -126.1460   13.9500 O.2    52  CYS52      -0.2867
     95  CB        12.6900 -129.4480   13.8000 C.3    52  CYS52       0.0956
     96  SG        13.8480 -130.7470   13.3160 S.3    52  CYS52      -0.0801
     97  N         16.4460 -137.8000    6.8020 N.3   129  GLY129     -0.1210
     98  CA        15.7080 -138.6690    7.7160 C.3   129  GLY129      0.1956
     99  C         16.0410 -140.1360    7.5220 C.2   129  GLY129      0.2612
    100  O         16.7800 -140.4980    6.6080 O.2   129  GLY129     -0.2717
    101  N         15.4730 -140.9760    8.3840 N.am  130  SER130     -0.1952
    102  CA        15.7240 -142.4190    8.3750 C.3   130  SER130      0.1924
    103  C         15.3960 -143.1050    7.0430 C.2   130  SER130      0.2314
    104  O         16.0110 -144.1150    6.7030 O.2   130  SER130     -0.2863
    105  CB        14.9380 -143.0930    9.5070 C.3   130  SER130      0.2116
    106  OG        13.6100 -142.6050    9.5660 O.3   130  SER130     -0.2180
    107  N         10.1910 -146.2760   10.6000 N.3   169  TYR169     -0.1241
    108  CA        10.0230 -145.0020   11.3030 C.3   169  TYR169      0.1605
    109  C          9.5590 -143.8700   10.3800 C.2   169  TYR169      0.2264
    110  O          9.6790 -142.6930   10.7230 O.2   169  TYR169     -0.2867
    111  CB        11.3260 -144.6370   12.0230 C.3   169  TYR169      0.0534
    112  CG        11.7370 -145.6990   13.0170 C.ar  169  TYR169     -0.0201
    113  CD1       11.0040 -145.9010   14.1800 C.ar  169  TYR169     -0.0009
    114  CD2       12.8360 -146.5220   12.7840 C.ar  169  TYR169     -0.0009
    115  CE1       11.3580 -146.8810   15.0900 C.ar  169  TYR169      0.0417
    116  CE2       13.1990 -147.5050   13.6910 C.ar  169  TYR169      0.0417
    117  CZ        12.4540 -147.6800   14.8430 C.ar  169  TYR169      0.1957
    118  OH        12.7950 -148.6500   15.7560 O.3   169  TYR169     -0.2866
@<TRIPOS>BOND
     1   100    99    2
     2   104   103    2
     3    97    98    1
     4   103   102    1
     5     4     3    2
     6    99    98    1
     7    99   101   am
     8     3     2    1
     9    51    50    2
    10    57    58    1
    11   102   101    1
    12   102   105    1
    13    50    49    1
    14     7     5    1
    15    52    49    1
    16    52    53    1
    17     2     5    1
    18     2     1    1
    19    70    69    1
    20    60    59    2
    21    49    48    1
    22    69    66    1
    23   105   106    1
    24    54    53    1
    25    54    55    1
    26     5     6    1
    27    58    59    1
    28    58    61    1
    29    59    65   am
    30    18    16    1
    31    56    55    1
    32    65    66    1
    33    44    43    2
    34   109   110    2
    35   109   108    1
    36     8     9    1
    37    16    17    1
    38    16    15    2
    39   107   108    1
    40    66    67    1
    41    61    62    1
    42    62    63    1
    43    15    14    1
    44    12     9    1
    45    12    13    1
    46   108   111    1
    47    43    42    1
    48     9    10    1
    49    14    13    1
    50    67    68    2
    51    67    71   am
    52   111   112    1
    53    64    63    1
    54    41    42    1
    55    11    10    2
    56    10    19   am
    57    42    45    1
    58    46    45    1
    59    71    72    1
    60   114   112   ar
    61   114   116   ar
    62   112   113   ar
    63    96    95    1
    64    45    47    1
    65   116   117   ar
    66    95    92    1
    67    19    20    1
    68    94    93    2
    69    72    73    1
    70   113   115   ar
    71    92    93    1
    72    92    91    1
    73   117   115   ar
    74   117   118    1
    75    20    23    1
    76    20    21    1
    77    29    28    1
    78    73    74    2
    79    73    75   am
    80    21    22    2
    81    21    24   am
    82    75    76    1
    83    24    25    1
    84    28    25    1
    85    78    77    2
    86    82    85    1
    87    82    81    1
    88    82    83    1
    89    84    83    2
    90    77    81   am
    91    77    76    1
    92    25    26    1
    93    76    79    1
    94    83    86   am
    95    35    36    1
    96    79    80    1
    97    26    27    2
    98    26    30   am
    99    37    38    2
   100    37    36    1
   101    86    87    1
   102    89    88    2
   103    88    87    1
   104    40    39    1
   105    36    39    1
   106    30    31    1
   107    87    90    1
   108    31    32    1
   109    31    34    1
   110    32    33    2
