@<TRIPOS>MOLECULE
tmp/5l5iY00.pdb
 145 137 0 0 0
SMALL
GASTEIGER

@<TRIPOS>ATOM
      1  N         56.6110 -152.6610    8.7180 N.3     1  THR1       -0.1218
      2  CA        57.2570 -153.0470    7.4210 C.3     1  THR1        0.1862
      3  C         56.5400 -152.5930    6.1490 C.2     1  THR1        0.2287
      4  O         55.4160 -152.1020    6.1870 O.2     1  THR1       -0.2866
      5  CB        57.2960 -154.5800    7.2570 C.3     1  THR1        0.1770
      6  OG1       57.8300 -155.1910    8.4140 O.3     1  THR1       -0.2211
      7  CG2       58.1990 -154.9870    6.0950 C.3     1  THR1        0.0375
      8  N         63.3150 -153.5310    8.4720 N.3    19  ARG19      -0.1231
      9  CA        63.2130 -152.8960    9.7900 C.3    19  ARG19       0.1694
     10  C         62.3590 -153.6820   10.7800 C.2    19  ARG19       0.2592
     11  O         61.4800 -154.4370   10.3860 O.2    19  ARG19      -0.2718
     12  CB        62.6510 -151.4770    9.6830 C.3    19  ARG19       0.0321
     13  CG        63.1730 -150.6030   10.8090 C.3    19  ARG19       0.0489
     14  CD        62.5830 -149.1950   10.8930 C.3    19  ARG19       0.2205
     15  NE        63.6370 -148.5480   10.1850 N.pl3  19  ARG19      -0.0865
     16  CZ        63.9080 -147.3420    9.7360 C.cat  19  ARG19       0.5346
     17  NH1       63.0810 -146.3530    9.4530 N.pl3  19  ARG19       0.1354
     18  NH2       65.1570 -147.2980    9.3280 N.pl3  19  ARG19       0.1354
     19  N         62.6250 -153.4920   12.0680 N.am   20  ALA20      -0.1966
     20  CA        61.7810 -154.0390   13.1260 C.3    20  ALA20       0.1728
     21  C         61.6270 -153.0060   14.2330 C.2    20  ALA20       0.2617
     22  O         62.6100 -152.3930   14.6520 O.2    20  ALA20      -0.2715
     23  CB        62.3830 -155.3140   13.6760 C.3    20  ALA20       0.0334
     24  N         60.4010 -152.8250   14.7130 N.am   21  SER21      -0.1936
     25  CA        60.1060 -151.7660   15.6730 C.3    21  SER21       0.2055
     26  C         59.5880 -152.2840   17.0100 C.2    21  SER21       0.2643
     27  O         58.9610 -153.3380   17.0890 O.2    21  SER21      -0.2714
     28  CB        59.1050 -150.7660   15.0770 C.3    21  SER21       0.2130
     29  OG        58.2060 -151.3990   14.1750 O.3    21  SER21      -0.2179
     30  N         59.8760 -151.5130   18.0530 N.am   22  ALA22      -0.1963
     31  CA        59.3850 -151.7580   19.4020 C.3    22  ALA22       0.1728
     32  C         58.8220 -150.4300   19.8960 C.2    22  ALA22       0.2616
     33  O         59.4180 -149.7580   20.7390 O.2    22  ALA22      -0.2715
     34  CB        60.5180 -152.2320   20.2970 C.3    22  ALA22       0.0334
     35  N         57.6720 -150.0540   19.3450 N.am   23  GLY23      -0.1955
     36  CA        57.1420 -148.7090   19.5180 C.3    23  GLY23       0.1869
     37  C         57.9380 -147.7690   18.6330 C.2    23  GLY23       0.2309
     38  O         58.0390 -147.9960   17.4300 O.2    23  GLY23      -0.2863
     39  N         64.2310 -151.7100   16.8260 N.3    27  SER27      -0.1202
     40  CA        64.8560 -152.8450   17.5020 C.3    27  SER27       0.2020
     41  C         65.8240 -153.6150   16.6080 C.2    27  SER27       0.2618
     42  O         66.8040 -154.1660   17.0980 O.2    27  SER27      -0.2717
     43  CB        63.7910 -153.7940   18.0540 C.3    27  SER27       0.2103
     44  OG        63.0010 -154.3430   17.0140 O.3    27  SER27      -0.2182
     45  N         65.5500 -153.6590   15.3070 N.am   28  ALA28      -0.1979
     46  CA        66.4310 -154.3550   14.3670 C.3    28  ALA28       0.1597
     47  C         66.5370 -153.6190   13.0390 C.2    28  ALA28       0.2287
     48  O         65.5300 -153.2340   12.4450 O.2    28  ALA28      -0.2864
     49  CB        65.9510 -155.7790   14.1410 C.3    28  ALA28       0.0319
     50  N         66.3880 -157.6140    9.4390 N.3    31  VAL31      -0.1231
     51  CA        65.7570 -158.8810    9.7180 C.3    31  VAL31       0.1692
     52  C         65.3870 -159.4150    8.3960 C.2    31  VAL31       0.2592
     53  O         65.2630 -158.6810    7.4520 O.2    31  VAL31      -0.2718
     54  CB        64.4440 -158.7730   10.4880 C.3    31  VAL31       0.0266
     55  CG1       64.6620 -159.0500   11.9450 C.3    31  VAL31       0.0020
     56  CG2       63.8050 -157.4370   10.2950 C.3    31  VAL31       0.0020
     57  N         65.2020 -160.7110    8.3340 N.am   32  ASN32      -0.1960
     58  CA        64.8350 -161.3320    7.1030 C.3    32  ASN32       0.1819
     59  C         63.3570 -161.5060    7.1030 C.2    32  ASN32       0.2621
     60  O         62.8290 -162.2590    7.8770 O.2    32  ASN32      -0.2715
     61  CB        65.5180 -162.6690    7.0060 C.3    32  ASN32       0.1195
     62  CG        65.4780 -163.2310    5.6260 C.2    32  ASN32       0.2630
     63  OD1       65.0250 -162.5840    4.7020 O.2    32  ASN32      -0.2716
     64  ND2       65.9410 -164.4480    5.4810 N.am   32  ASN32      -0.0877
     65  N         62.6850 -160.7880    6.2340 N.am   33  LYS33      -0.1977
     66  CA        61.2280 -160.8840    6.1540 C.3    33  LYS33       0.1596
     67  C         60.7510 -161.7710    5.0140 C.2    33  LYS33       0.2287
     68  O         59.6030 -161.6700    4.5720 O.2    33  LYS33      -0.2864
     69  CB        60.6340 -159.4920    6.0220 C.3    33  LYS33       0.0298
     70  CG        60.9470 -158.6430    7.2310 C.3    33  LYS33       0.0038
     71  CD        60.3830 -157.2560    7.1010 C.3    33  LYS33       0.0206
     72  CE        60.8410 -156.3950    8.2640 C.3    33  LYS33       0.1093
     73  NZ        60.4350 -154.9730    8.1740 N.3    33  LYS33      -0.1314
     74  N         56.6450 -161.5430    5.0180 N.3    45  MET45      -0.1230
     75  CA        56.2390 -161.4170    6.4200 C.3    45  MET45       0.1702
     76  C         55.8810 -159.9830    6.7950 C.2    45  MET45       0.2593
     77  O         56.6090 -159.0460    6.4750 O.2    45  MET45      -0.2718
     78  CB        57.3590 -161.8990    7.3440 C.3    45  MET45       0.0401
     79  CG        57.7930 -163.3400    7.1220 C.3    45  MET45       0.0596
     80  SD        59.0530 -163.8500    8.3070 S.3    45  MET45      -0.1393
     81  CE        59.2350 -165.5840    7.9080 C.3    45  MET45       0.0692
     82  N         54.7540 -159.8290    7.4830 N.am   46  SER46      -0.1938
     83  CA        54.3530 -158.5480    8.0570 C.3    46  SER46       0.2055
     84  C         53.4010 -158.8110    9.2210 C.2    46  SER46       0.2644
     85  O         52.5610 -159.7100    9.1460 O.2    46  SER46      -0.2714
     86  CB        53.6890 -157.6550    7.0010 C.3    46  SER46       0.2130
     87  OG        52.3750 -158.0920    6.6960 O.3    46  SER46      -0.2179
     88  N         53.5380 -158.0290   10.2910 N.am   47  GLY47      -0.1939
     89  CA        52.7570 -158.2320   11.5130 C.3    47  GLY47       0.2014
     90  C         53.6540 -158.6600   12.6550 C.2    47  GLY47       0.2639
     91  O         54.7910 -158.2020   12.7600 O.2    47  GLY47      -0.2714
     92  N         53.1420 -159.5400   13.5110 N.am   48  CYS48      -0.1953
     93  CA        53.9130 -160.0630   14.6360 C.3    48  CYS48       0.1843
     94  C         55.0230 -160.9670   14.1090 C.2    48  CYS48       0.2625
     95  O         54.7540 -161.9250   13.3830 O.2    48  CYS48      -0.2714
     96  CB        53.0060 -160.8390   15.5970 C.3    48  CYS48       0.0997
     97  SG        53.7230 -161.1690   17.2220 S.3    48  CYS48      -0.0797
     98  N         56.2620 -160.6440   14.4720 N.am   49  ALA49      -0.1977
     99  CA        57.4470 -161.3560   13.9870 C.3    49  ALA49       0.1597
    100  C         57.4060 -162.8420   14.3120 C.2    49  ALA49       0.2287
    101  O         57.6860 -163.6840   13.4550 O.2    49  ALA49      -0.2864
    102  CB        58.7040 -160.7410   14.5860 C.3    49  ALA49       0.0319
    103  N         54.7470 -164.7500   12.2210 N.3    52  CYS52      -0.1221
    104  CA        55.2290 -164.9360   10.8530 C.3    52  CYS52       0.1808
    105  C         56.2450 -166.0720   10.7680 C.2    52  CYS52       0.2601
    106  O         56.1320 -166.9460    9.9130 O.2    52  CYS52      -0.2717
    107  CB        55.8520 -163.6450   10.3190 C.3    52  CYS52       0.0970
    108  SG        54.6850 -162.2770   10.1460 S.3    52  CYS52      -0.0800
    109  N         57.2240 -166.0620   11.6670 N.am   53  GLN53      -0.1979
    110  CA        58.2840 -167.0710   11.6570 C.3    53  GLN53       0.1601
    111  C         57.7680 -168.4580   12.0140 C.2    53  GLN53       0.2287
    112  O         58.0580 -169.4230   11.3140 O.2    53  GLN53      -0.2864
    113  CB        59.4190 -166.6810   12.6040 C.3    53  GLN53       0.0394
    114  CG        60.3220 -165.5940   12.0470 C.3    53  GLN53       0.0908
    115  CD        61.5660 -165.3670   12.8850 C.2    53  GLN53       0.2608
    116  OE1       61.8420 -166.1080   13.8300 O.2    53  GLN53      -0.2717
    117  NE2       62.3300 -164.3370   12.5340 N.am   53  GLN53      -0.0878
    118  N         48.7080 -161.9900   14.5530 N.3    96  SER96      -0.1217
    119  CA        48.9270 -160.8770   13.6320 C.3    96  SER96       0.1889
    120  C         49.9650 -161.2860   12.5910 C.2    96  SER96       0.2288
    121  O         51.1550 -161.3860   12.8870 O.2    96  SER96      -0.2866
    122  CB        49.3720 -159.6210   14.3850 C.3    96  SER96       0.2089
    123  OG        49.4110 -158.4980   13.5230 O.3    96  SER96      -0.2183
    124  N         51.9150 -154.3820    4.9910 N.3   129  GLY129     -0.1210
    125  CA        52.6920 -153.6870    6.0100 C.3   129  GLY129      0.1956
    126  C         52.2860 -152.2340    6.1620 C.2   129  GLY129      0.2612
    127  O         51.4340 -151.7370    5.4300 O.2   129  GLY129     -0.2717
    128  N         52.9120 -151.5510    7.1160 N.am  130  SER130     -0.1952
    129  CA        52.6130 -150.1460    7.4060 C.3   130  SER130      0.1924
    130  C         52.9240 -149.1910    6.2470 C.2   130  SER130      0.2314
    131  O         52.3590 -148.0980    6.1800 O.2   130  SER130     -0.2863
    132  CB        53.3750 -149.6960    8.6550 C.3   130  SER130      0.2116
    133  OG        54.7380 -150.0800    8.5840 O.3   130  SER130     -0.2180
    134  N         58.2330 -146.5540   10.0580 N.3   169  TYR169     -0.1241
    135  CA        58.4180 -147.9330   10.5130 C.3   169  TYR169      0.1605
    136  C         58.8240 -148.8880    9.3860 C.2   169  TYR169      0.2264
    137  O         58.6530 -150.0990    9.5030 O.2   169  TYR169     -0.2867
    138  CB        57.1430 -148.4220   11.2050 C.3   169  TYR169      0.0534
    139  CG        56.7730 -147.5630   12.3900 C.ar  169  TYR169     -0.0201
    140  CD1       57.5250 -147.6030   13.5570 C.ar  169  TYR169     -0.0009
    141  CD2       55.6910 -146.6910   12.3380 C.ar  169  TYR169     -0.0009
    142  CE1       57.2050 -146.8100   14.6430 C.ar  169  TYR169      0.0417
    143  CE2       55.3630 -145.8940   13.4230 C.ar  169  TYR169      0.0417
    144  CZ        56.1250 -145.9590   14.5720 C.ar  169  TYR169      0.1957
    145  OH        55.8120 -145.1730   15.6560 O.3   169  TYR169     -0.2866
@<TRIPOS>BOND
     1    68    67    2
     2    63    62    2
     3   124   125    1
     4    67    66    1
     5    74    75    1
     6   127   126    2
     7    64    62   am
     8    62    61    1
     9   125   126    1
    10    69    66    1
    11    69    70    1
    12     7     5    1
    13     3     4    2
    14     3     2    1
    15    66    65    1
    16   126   128   am
    17   131   130    2
    18    65    59   am
    19   130   129    1
    20    75    76    1
    21    75    78    1
    22    77    76    2
    23    87    86    1
    24    76    82   am
    25    86    83    1
    26    61    58    1
    27    71    70    1
    28    71    72    1
    29    58    59    1
    30    58    57    1
    31    59    60    2
    32   128   129    1
    33    79    78    1
    34    79    80    1
    35     5     2    1
    36     5     6    1
    37   129   132    1
    38     2     1    1
    39    53    52    2
    40    82    83    1
    41    81    80    1
    42    83    84    1
    43    73    72    1
    44    57    52   am
    45    52    51    1
    46     8     9    1
    47   133   132    1
    48    85    84    2
    49    84    88   am
    50    18    16    1
    51   136   137    2
    52   136   135    1
    53    50    51    1
    54    17    16    1
    55    12     9    1
    56    12    13    1
    57    51    54    1
    58    16    15    2
    59     9    10    1
    60   106   105    2
    61   134   135    1
    62   108   107    1
    63    15    14    1
    64    88    89    1
    65    56    54    1
    66   107   104    1
    67    11    10    2
    68    54    55    1
    69   135   138    1
    70   105   104    1
    71   105   109   am
    72    10    19   am
    73    13    14    1
    74   104   103    1
    75   138   139    1
    76   112   111    2
    77    89    90    1
    78   110   109    1
    79   110   111    1
    80   110   113    1
    81   114   113    1
    82   114   115    1
    83    19    20    1
    84   141   139   ar
    85   141   143   ar
    86   139   140   ar
    87    48    47    2
    88   117   115   am
    89   120   121    2
    90   120   119    1
    91    90    91    2
    92    90    92   am
    93   115   116    2
    94    47    46    1
    95    20    23    1
    96    20    21    1
    97    95    94    2
    98   143   144   ar
    99   101   100    2
   100    92    93    1
   101   123   122    1
   102   140   142   ar
   103   119   122    1
   104   119   118    1
   105    99   100    1
   106    99    98    1
   107    99   102    1
   108    94    98   am
   109    94    93    1
   110    49    46    1
   111    29    28    1
   112    21    22    2
   113    21    24   am
   114    46    45    1
   115   144   142   ar
   116   144   145    1
   117    93    96    1
   118    24    25    1
   119    28    25    1
   120    45    41   am
   121    96    97    1
   122    25    26    1
   123    41    42    2
   124    41    40    1
   125    39    40    1
   126    26    27    2
   127    26    30   am
   128    44    43    1
   129    38    37    2
   130    40    43    1
   131    30    31    1
   132    37    36    1
   133    35    36    1
   134    35    32   am
   135    31    32    1
   136    31    34    1
   137    32    33    2
