@<TRIPOS>MOLECULE
tmp/5l5jV00.pdb
 139 131 0 0 0
SMALL
GASTEIGER

@<TRIPOS>ATOM
      1  N          4.7090 -159.9940   43.6590 N.3     1  THR1       -0.1218
      2  CA         4.1190 -160.8060   44.7720 C.3     1  THR1        0.1862
      3  C          4.1260 -160.4380   46.2530 C.2     1  THR1        0.2287
      4  O          5.1340 -160.0360   46.8160 O.2     1  THR1       -0.2866
      5  CB         4.8720 -162.1510   44.6880 C.3     1  THR1        0.1770
      6  OG1        4.8580 -162.5650   43.3230 O.3     1  THR1       -0.2211
      7  CG2        4.2160 -163.2690   45.4810 C.3     1  THR1        0.0375
      8  N         -1.3420 -161.8210   41.2440 N.3    19  ARG19      -0.1231
      9  CA        -0.8260 -160.9210   40.2100 C.3    19  ARG19       0.1694
     10  C          0.5480 -161.3610   39.7020 C.2    19  ARG19       0.2593
     11  O          1.4270 -161.7270   40.4810 O.2    19  ARG19      -0.2718
     12  CB        -0.7470 -159.4800   40.7230 C.3    19  ARG19       0.0321
     13  CG        -0.3110 -158.4740   39.6620 C.3    19  ARG19       0.0489
     14  CD        -0.2890 -157.0490   40.1910 C.3    19  ARG19       0.2205
     15  NE        -1.6010 -156.4070   40.1300 N.pl3  19  ARG19      -0.0865
     16  CZ        -1.8440 -155.1510   40.5010 C.cat  19  ARG19       0.5346
     17  NH1       -0.8660 -154.3810   40.9700 N.pl3  19  ARG19       0.1354
     18  NH2       -3.0730 -154.6580   40.4040 N.pl3  19  ARG19       0.1354
     19  N          0.7120 -161.2990   38.3840 N.am   20  SER20      -0.1938
     20  CA         1.9680 -161.6030   37.7080 C.3    20  SER20       0.2055
     21  C          2.3210 -160.4030   36.8370 C.2    20  SER20       0.2644
     22  O          1.4540 -159.8720   36.1430 O.2    20  SER20      -0.2714
     23  CB         1.7940 -162.8440   36.8350 C.3    20  SER20       0.2130
     24  OG         2.9540 -163.1040   36.0650 O.3    20  SER20      -0.2179
     25  N          3.5790 -159.9710   36.8650 N.am   21  THR21      -0.1936
     26  CA         3.9700 -158.7570   36.1430 C.3    21  THR21       0.2028
     27  C          5.0610 -158.9720   35.1030 C.2    21  THR21       0.2642
     28  O          5.8340 -159.9230   35.1740 O.2    21  THR21      -0.2714
     29  CB         4.4540 -157.6500   37.0990 C.3    21  THR21       0.1808
     30  OG1        5.6200 -158.0940   37.8050 O.3    21  THR21      -0.2208
     31  CG2        3.3610 -157.2750   38.0890 C.3    21  THR21       0.0379
     32  N          5.0920 -158.0570   34.1390 N.am   22  GLN22      -0.1963
     33  CA         6.1580 -157.9590   33.1500 C.3    22  GLN22       0.1733
     34  C          6.5820 -156.4980   33.0900 C.2    22  GLN22       0.2616
     35  O          6.2000 -155.7580   32.1810 O.2    22  GLN22      -0.2715
     36  CB         5.6780 -158.4460   31.7860 C.3    22  GLN22       0.0408
     37  CG         5.5740 -159.9580   31.6860 C.3    22  GLN22       0.0908
     38  CD         5.4490 -160.4410   30.2530 C.2    22  GLN22       0.2608
     39  OE1        4.7680 -159.8190   29.4350 O.2    22  GLN22      -0.2717
     40  NE2        6.1050 -161.5570   29.9420 N.am   22  GLN22      -0.0878
     41  N          7.3600 -156.0890   34.0860 N.am   23  GLY23      -0.1955
     42  CA         7.7050 -154.6890   34.2740 C.3    23  GLY23       0.1869
     43  C          6.5720 -154.0170   35.0270 C.2    23  GLY23       0.2309
     44  O          6.2220 -154.4530   36.1240 O.2    23  GLY23      -0.2863
     45  N          0.6100 -159.1800   33.4130 N.3    27  ALA27      -0.1245
     46  CA         0.4590 -160.2570   32.4330 C.3    27  ALA27       0.1562
     47  C         -0.7600 -161.1210   32.7420 C.2    27  ALA27       0.2260
     48  O         -1.5970 -161.3560   31.8670 O.2    27  ALA27      -0.2867
     49  CB         1.7100 -161.1170   32.3990 C.3    27  ALA27       0.0290
     50  N         -3.3670 -165.3750   38.6550 N.3    31  CYS31      -0.1221
     51  CA        -2.2680 -166.3220   38.6380 C.3    31  CYS31       0.1808
     52  C         -2.3140 -167.2570   39.8460 C.2    31  CYS31       0.2601
     53  O         -2.9500 -166.9480   40.8540 O.2    31  CYS31      -0.2717
     54  CB        -0.9790 -165.5110   38.6190 C.3    31  CYS31       0.0970
     55  SG         0.5430 -166.3690   39.0290 S.3    31  CYS31      -0.0800
     56  N         -1.6500 -168.4040   39.7360 N.am   32  ALA32      -0.1965
     57  CA        -1.6430 -169.4080   40.8050 C.3    32  ALA32       0.1728
     58  C         -0.2340 -169.5930   41.3640 C.2    32  ALA32       0.2616
     59  O          0.6130 -170.2410   40.7440 O.2    32  ALA32      -0.2715
     60  CB        -2.1930 -170.7300   40.2930 C.3    32  ALA32       0.0334
     61  N          0.0010 -169.0210   42.5430 N.am   33  LYS33      -0.1977
     62  CA         1.3230 -169.0310   43.1760 C.3    33  LYS33       0.1596
     63  C          1.4780 -170.1070   44.2420 C.2    33  LYS33       0.2287
     64  O          2.5860 -170.3510   44.7170 O.2    33  LYS33      -0.2864
     65  CB         1.6010 -167.6710   43.8000 C.3    33  LYS33       0.0298
     66  CG         1.6130 -166.5560   42.7780 C.3    33  LYS33       0.0038
     67  CD         1.7620 -165.2010   43.4310 C.3    33  LYS33       0.0206
     68  CE         1.4680 -164.1030   42.4290 C.3    33  LYS33       0.1093
     69  NZ         2.0630 -162.8120   42.8550 N.3    33  LYS33      -0.1314
     70  N          1.7580 -173.7360   45.0570 N.3    35  HIS35      -0.1241
     71  CA         2.1460 -174.9410   44.3470 C.3    35  HIS35       0.1621
     72  C          2.1330 -176.1490   45.2630 C.2    35  HIS35       0.2264
     73  O          2.4380 -176.0450   46.4530 O.2    35  HIS35      -0.2867
     74  CB         3.5410 -174.7830   43.7650 C.3    35  HIS35       0.0745
     75  CG         3.7120 -173.5570   42.9270 C.ar   35  HIS35       0.0817
     76  ND1        3.0120 -173.3550   41.7580 N.ar   35  HIS35      -0.2268
     77  CD2        4.5090 -172.4740   43.0830 C.ar   35  HIS35       0.1154
     78  CE1        3.3650 -172.1950   41.2330 C.ar   35  HIS35       0.1986
     79  NE2        4.2730 -171.6410   42.0160 N.ar   35  HIS35      -0.2212
     80  N          5.4870 -169.2310   46.0620 N.3    45  GLY45      -0.1210
     81  CA         6.7030 -168.7390   45.4250 C.3    45  GLY45       0.1956
     82  C          6.6270 -167.3010   44.9650 C.2    45  GLY45       0.2612
     83  O          5.5960 -166.8490   44.4670 O.2    45  GLY45      -0.2717
     84  N          7.7380 -166.5920   45.1450 N.am   46  ALA46      -0.1965
     85  CA         7.9160 -165.2360   44.6440 C.3    46  ALA46       0.1728
     86  C          9.2310 -165.1720   43.8830 C.2    46  ALA46       0.2617
     87  O         10.1000 -166.0270   44.0600 O.2    46  ALA46      -0.2715
     88  CB         7.9290 -164.2450   45.7930 C.3    46  ALA46       0.0334
     89  N          9.3730 -164.1560   43.0410 N.am   47  GLY47      -0.1940
     90  CA        10.5710 -163.9900   42.2260 C.3    47  GLY47       0.2014
     91  C         10.3000 -164.3910   40.7920 C.2    47  GLY47       0.2640
     92  O          9.2010 -164.1760   40.2810 O.2    47  GLY47      -0.2714
     93  N         11.3040 -164.9710   40.1400 N.am   48  THR48      -0.1936
     94  CA        11.1700 -165.4040   38.7530 C.3    48  THR48       0.2028
     95  C         10.1490 -166.5370   38.6910 C.2    48  THR48       0.2642
     96  O         10.3830 -167.6250   39.2090 O.2    48  THR48      -0.2714
     97  CB        12.5230 -165.8540   38.1710 C.3    48  THR48       0.1808
     98  OG1       13.5270 -164.8830   38.4910 O.3    48  THR48      -0.2208
     99  CG2       12.4380 -166.0090   36.6590 C.3    48  THR48       0.0379
    100  N          9.0110 -166.2550   38.0630 N.am   49  ALA49      -0.1963
    101  CA         7.8390 -167.1360   38.1010 C.3    49  ALA49       0.1728
    102  C          8.1030 -168.5400   37.5640 C.2    49  ALA49       0.2616
    103  O          7.6880 -169.5260   38.1720 O.2    49  ALA49      -0.2715
    104  CB         6.6910 -166.5010   37.3360 C.3    49  ALA49       0.0334
    105  N          8.7820 -168.6240   36.4230 N.am   50  ALA50      -0.1977
    106  CA         9.1260 -169.9170   35.8270 C.3    50  ALA50       0.1597
    107  C         10.0160 -170.7480   36.7520 C.2    50  ALA50       0.2287
    108  O          9.8900 -171.9740   36.8020 O.2    50  ALA50      -0.2864
    109  CB         9.8090 -169.7180   34.4840 C.3    50  ALA50       0.0319
    110  N         10.1240 -170.5790   40.1750 N.3    52  THR52      -0.1203
    111  CA         9.3620 -171.0510   41.3370 C.3    52  THR52       0.1994
    112  C          8.5260 -172.2780   40.9840 C.2    52  THR52       0.2617
    113  O          8.3580 -173.1750   41.8050 O.2    52  THR52      -0.2717
    114  CB         8.4170 -169.9720   41.9060 C.3    52  THR52       0.1784
    115  OG1        7.4500 -169.5940   40.9170 O.3    52  THR52      -0.2211
    116  CG2        9.2010 -168.7470   42.3610 C.3    52  THR52       0.0376
    117  N          8.0050 -172.2970   39.7580 N.am   53  GLU53      -0.1979
    118  CA         7.2080 -173.4110   39.2480 C.3    53  GLU53       0.1602
    119  C          8.0810 -174.6350   38.9720 C.2    53  GLU53       0.2287
    120  O          7.8040 -175.7340   39.4560 O.2    53  GLU53      -0.2864
    121  CB         6.5010 -172.9870   37.9550 C.3    53  GLU53       0.0415
    122  CG         5.6140 -174.0550   37.3200 C.3    53  GLU53       0.1163
    123  CD         4.2410 -174.1670   37.9660 C.2    53  GLU53       0.3649
    124  OE1        3.6890 -173.1300   38.3940 O.co2  53  GLU53      -0.2457
    125  OE2        3.7020 -175.2940   38.0310 O.co2  53  GLU53      -0.2457
    126  N          8.3440 -161.7050   49.0680 N.3   128  GLY128     -0.1210
    127  CA         7.9240 -160.9840   47.8690 C.3   128  GLY128      0.1956
    128  C          8.0380 -159.4780   48.0110 C.2   128  GLY128      0.2612
    129  O          8.5000 -158.9760   49.0330 O.2   128  GLY128     -0.2717
    130  N          7.6090 -158.7610   46.9750 N.am  129  SER129     -0.1952
    131  CA         7.6300 -157.2940   46.9740 C.3   129  SER129      0.1924
    132  C          6.7370 -156.6990   48.0640 C.2   129  SER129      0.2314
    133  O          7.0400 -155.6340   48.6030 O.2   129  SER129     -0.2863
    134  CB         7.2060 -156.7480   45.6050 C.3   129  SER129      0.2116
    135  OG         6.0080 -157.3600   45.1540 O.3   129  SER129     -0.2180
    136  N          3.2690 -154.2880   43.0660 N.3   168  GLY168     -0.1225
    137  CA         3.6390 -155.5930   42.5300 C.3   168  GLY168      0.1811
    138  C          2.7180 -156.7070   42.9970 C.2   168  GLY168      0.2280
    139  O          2.9680 -157.8730   42.7140 O.2   168  GLY168     -0.2866
@<TRIPOS>BOND
     1    39    38    2
     2    40    38   am
     3    38    37    1
     4    37    36    1
     5    36    33    1
     6    48    47    2
     7    35    34    2
     8    49    46    1
     9    46    47    1
    10    46    45    1
    11    34    33    1
    12    34    41   am
    13    33    32    1
    14    41    42    1
    15    32    27   am
    16    42    43    1
    17   109   106    1
    18    43    44    2
    19    27    28    2
    20    27    26    1
    21   106   105    1
    22   106   107    1
    23    24    23    1
    24    26    25    1
    25    26    29    1
    26    22    21    2
    27   105   102   am
    28    99    97    1
    29   107   108    2
    30    23    20    1
    31    21    25   am
    32    21    20    1
    33    29    30    1
    34    29    31    1
    35   122   121    1
    36   122   123    1
    37   104   101    1
    38   102   101    1
    39   102   103    2
    40    20    19    1
    41   121   118    1
    42   123   125   ar
    43   123   124   ar
    44   100   101    1
    45   100    95   am
    46    97    98    1
    47    97    94    1
    48    19    10   am
    49    54    51    1
    50    54    55    1
    51    51    50    1
    52    51    52    1
    53    95    94    1
    54    95    96    2
    55    94    93    1
    56   119   118    1
    57   119   120    2
    58   118   117    1
    59    13    14    1
    60    13    12    1
    61    10     9    1
    62    10    11    2
    63    56    52   am
    64    56    57    1
    65   117   112   am
    66    52    53    2
    67    15    14    1
    68    15    16    2
    69    93    91   am
    70   110   111    1
    71     9    12    1
    72     9     8    1
    73    92    91    2
    74    60    57    1
    75    18    16    1
    76    16    17    1
    77    59    58    2
    78    91    90    1
    79    57    58    1
    80   115   114    1
    81   112   111    1
    82   112   113    2
    83    78    76   ar
    84    78    79   ar
    85   111   114    1
    86    58    61   am
    87    76    75   ar
    88   114   116    1
    89    79    77   ar
    90    90    89    1
    91    68    69    1
    92    68    67    1
    93   137   138    1
    94   137   136    1
    95    61    62    1
    96   139   138    2
    97    66    67    1
    98    66    65    1
    99    75    77   ar
   100    75    74    1
   101    89    86   am
   102    62    65    1
   103    62    63    1
   104     6     5    1
   105     1     2    1
   106    74    71    1
   107    86    87    2
   108    86    85    1
   109    63    64    2
   110    71    70    1
   111    71    72    1
   112    83    82    2
   113    85    84    1
   114    85    88    1
   115     5     2    1
   116     5     7    1
   117     2     3    1
   118    82    84   am
   119    82    81    1
   120   135   134    1
   121    72    73    2
   122    81    80    1
   123   134   131    1
   124     3     4    2
   125   131   130    1
   126   131   132    1
   127   130   128   am
   128   127   128    1
   129   127   126    1
   130   128   129    2
   131   132   133    2
