@<TRIPOS>MOLECULE
tmp/5l5oH00.pdb
 155 146 0 0 0
SMALL
GASTEIGER

@<TRIPOS>ATOM
      1  N         64.3050 -139.7380   44.5500 N.3     1  THR1       -0.1218
      2  CA        64.9600 -139.0520   45.7080 C.3     1  THR1        0.1862
      3  C         65.0090 -139.5240   47.1710 C.2     1  THR1        0.2287
      4  O         64.0770 -140.0890   47.6790 O.2     1  THR1       -0.2866
      5  CB        64.2080 -137.7000   45.8650 C.3     1  THR1        0.1770
      6  OG1       64.3500 -137.0540   44.6920 O.3     1  THR1       -0.2211
      7  CG2       64.6740 -136.7230   46.9290 C.3     1  THR1        0.0375
      8  N         70.4170 -137.4800   42.3630 N.3    19  ARG19      -0.1231
      9  CA        69.8810 -138.1630   41.1810 C.3    19  ARG19       0.1694
     10  C         68.4860 -137.6580   40.8240 C.2    19  ARG19       0.2593
     11  O         67.6480 -137.4590   41.7020 O.2    19  ARG19      -0.2718
     12  CB        69.8200 -139.6740   41.4080 C.3    19  ARG19       0.0321
     13  CG        69.2610 -140.4490   40.2230 C.3    19  ARG19       0.0489
     14  CD        69.2310 -141.9410   40.4910 C.3    19  ARG19       0.2205
     15  NE        70.5470 -142.5610   40.3460 N.pl3  19  ARG19      -0.0865
     16  CZ        70.7940 -143.8570   40.5200 C.cat  19  ARG19       0.5346
     17  NH1       69.8150 -144.6930   40.8520 N.pl3  19  ARG19       0.1354
     18  NH2       72.0260 -144.3230   40.3610 N.pl3  19  ARG19       0.1354
     19  N         68.2450 -137.4700   39.5280 N.am   20  SER20      -0.1938
     20  CA        66.9230 -137.1030   39.0200 C.3    20  SER20       0.2055
     21  C         66.5480 -138.0900   37.9130 C.2    20  SER20       0.2644
     22  O         67.3790 -138.4070   37.0610 O.2    20  SER20      -0.2714
     23  CB        66.9230 -135.6570   38.5070 C.3    20  SER20       0.2130
     24  OG        67.0940 -135.5880   37.1040 O.3    20  SER20      -0.2179
     25  N         65.3090 -138.5780   37.9300 N.am   21  THR21      -0.1936
     26  CA        64.9030 -139.6660   37.0350 C.3    21  THR21       0.2028
     27  C         63.7310 -139.3340   36.1320 C.2    21  THR21       0.2642
     28  O         62.8580 -138.5610   36.4980 O.2    21  THR21      -0.2714
     29  CB        64.4850 -140.9260   37.8180 C.3    21  THR21       0.1808
     30  OG1       63.3440 -140.6360   38.6370 O.3    21  THR21      -0.2208
     31  CG2       65.6210 -141.4240   38.6840 C.3    21  THR21       0.0379
     32  N         63.7200 -139.9750   34.9670 N.am   22  GLN22      -0.1963
     33  CA        62.6000 -139.9420   34.0340 C.3    22  GLN22       0.1733
     34  C         62.2140 -141.3830   33.7540 C.2    22  GLN22       0.2616
     35  O         62.6280 -141.9680   32.7500 O.2    22  GLN22      -0.2715
     36  CB        63.0010 -139.2620   32.7340 C.3    22  GLN22       0.0408
     37  CG        63.1010 -137.7550   32.8190 C.3    22  GLN22       0.0908
     38  CD        63.1140 -137.1280   31.4410 C.2    22  GLN22       0.2608
     39  OE1       64.1160 -137.2090   30.7270 O.2    22  GLN22      -0.2717
     40  NE2       61.9960 -136.5080   31.0480 N.am   22  GLN22      -0.0878
     41  N         61.4320 -141.9570   34.6590 N.am   23  GLY23      -0.1955
     42  CA        61.1530 -143.3840   34.6240 C.3    23  GLY23       0.1869
     43  C         62.3750 -144.1160   35.1510 C.2    23  GLY23       0.2309
     44  O         62.8710 -143.7860   36.2290 O.2    23  GLY23      -0.2863
     45  N         68.1970 -138.6690   34.2760 N.3    27  ALA27      -0.1245
     46  CA        68.2900 -137.4380   33.4920 C.3    27  ALA27       0.1562
     47  C         69.5090 -136.6220   33.9180 C.2    27  ALA27       0.2260
     48  O         70.3140 -136.2190   33.0780 O.2    27  ALA27      -0.2867
     49  CB        67.0170 -136.6150   33.6410 C.3    27  ALA27       0.0290
     50  N         72.1830 -133.5020   40.3540 N.3    31  CYS31      -0.1221
     51  CA        71.1020 -132.5450   40.5530 C.3    31  CYS31       0.1808
     52  C         71.2110 -131.8610   41.9110 C.2    31  CYS31       0.2601
     53  O         71.8250 -132.3950   42.8350 O.2    31  CYS31      -0.2717
     54  CB        69.7540 -133.2460   40.4430 C.3    31  CYS31       0.0970
     55  SG        68.3880 -132.0800   40.3190 S.3    31  CYS31      -0.0800
     56  N         70.6110 -130.6780   42.0220 N.am   32  ALA32      -0.1965
     57  CA        70.6350 -129.8960   43.2610 C.3    32  ALA32       0.1728
     58  C         69.2320 -129.8010   43.8520 C.2    32  ALA32       0.2616
     59  O         68.3830 -129.0670   43.3450 O.2    32  ALA32      -0.2715
     60  CB        71.1980 -128.5080   43.0000 C.3    32  ALA32       0.0334
     61  N         69.0010 -130.5450   44.9300 N.am   33  LYS33      -0.1977
     62  CA        67.6820 -130.6350   45.5580 C.3    33  LYS33       0.1596
     63  C         67.5400 -129.7560   46.7930 C.2    33  LYS33       0.2287
     64  O         66.4340 -129.5730   47.2990 O.2    33  LYS33      -0.2864
     65  CB        67.3970 -132.0810   45.9360 C.3    33  LYS33       0.0298
     66  CG        67.4100 -133.0010   44.7380 C.3    33  LYS33       0.0038
     67  CD        67.2260 -134.4430   45.1440 C.3    33  LYS33       0.0206
     68  CE        67.5720 -135.3620   43.9900 C.3    33  LYS33       0.1093
     69  NZ        67.0010 -136.7120   44.2080 N.3    33  LYS33      -0.1314
     70  N         67.2750 -126.3350   48.2340 N.3    35  HIS35      -0.1241
     71  CA        66.8860 -125.0210   47.7550 C.3    35  HIS35       0.1621
     72  C         66.9080 -124.0010   48.8730 C.2    35  HIS35       0.2264
     73  O         66.6410 -124.3210   50.0310 O.2    35  HIS35      -0.2867
     74  CB        65.4890 -125.0650   47.1610 C.3    35  HIS35       0.0745
     75  CG        65.3050 -126.1250   46.1240 C.ar   35  HIS35       0.0817
     76  ND1       66.0210 -126.1430   44.9470 N.ar   35  HIS35      -0.2268
     77  CD2       64.4820 -127.1990   46.0830 C.ar   35  HIS35       0.1154
     78  CE1       65.6530 -127.1890   44.2290 C.ar   35  HIS35       0.1986
     79  NE2       64.7180 -127.8440   44.8930 N.ar   35  HIS35      -0.2212
     80  N         63.5220 -130.9470   48.5260 N.3    45  GLY45      -0.1210
     81  CA        62.2910 -131.3340   47.8490 C.3    45  GLY45       0.1956
     82  C         62.3560 -132.6840   47.1690 C.2    45  GLY45       0.2612
     83  O         63.3850 -133.0650   46.6080 O.2    45  GLY45      -0.2717
     84  N         61.2420 -133.4040   47.2360 N.am   46  ALA46      -0.1965
     85  CA        61.0560 -134.6560   46.5180 C.3    46  ALA46       0.1728
     86  C         59.7270 -134.5900   45.7800 C.2    46  ALA46       0.2617
     87  O         58.8580 -133.7860   46.1220 O.2    46  ALA46      -0.2715
     88  CB        61.0640 -135.8290   47.4830 C.3    46  ALA46       0.0334
     89  N         59.5760 -135.4420   44.7730 N.am   47  GLY47      -0.1940
     90  CA        58.3630 -135.4790   43.9620 C.3    47  GLY47       0.2014
     91  C         58.6100 -134.8300   42.6170 C.2    47  GLY47       0.2640
     92  O         59.6970 -134.9580   42.0530 O.2    47  GLY47      -0.2714
     93  N         57.6030 -134.1310   42.1030 N.am   48  THR48      -0.1936
     94  CA        57.7180 -133.4570   40.8150 C.3    48  THR48       0.2028
     95  C         58.7490 -132.3260   40.9240 C.2    48  THR48       0.2642
     96  O         58.5460 -131.3540   41.6490 O.2    48  THR48      -0.2714
     97  CB        56.3550 -132.9200   40.3390 C.3    48  THR48       0.1808
     98  OG1       55.3700 -133.9560   40.4510 O.3    48  THR48      -0.2208
     99  CG2       56.4260 -132.4560   38.8900 C.3    48  THR48       0.0379
    100  N         59.8560 -132.4810   40.2020 N.am   49  ALA49      -0.1963
    101  CA        61.0340 -131.6150   40.3460 C.3    49  ALA49       0.1728
    102  C         60.7660 -130.1330   40.0720 C.2    49  ALA49       0.2616
    103  O         61.2570 -129.2680   40.8000 O.2    49  ALA49      -0.2715
    104  CB        62.1550 -132.1120   39.4450 C.3    49  ALA49       0.0334
    105  N         60.0050 -129.8440   39.0190 N.am   50  ALA50      -0.1977
    106  CA        59.6610 -128.4620   38.6720 C.3    50  ALA50       0.1597
    107  C         58.8140 -127.8050   39.7630 C.2    50  ALA50       0.2287
    108  O         58.9690 -126.6160   40.0470 O.2    50  ALA50      -0.2864
    109  CB        58.9280 -128.4110   37.3430 C.3    50  ALA50       0.0319
    110  N         58.7880 -128.5360   43.0790 N.3    52  THR52      -0.1203
    111  CA        59.5750 -128.2690   44.2870 C.3    52  THR52       0.1994
    112  C         60.4020 -126.9980   44.1240 C.2    52  THR52       0.2617
    113  O         60.5740 -126.2390   45.0750 O.2    52  THR52      -0.2717
    114  CB        60.5260 -129.4310   44.6390 C.3    52  THR52       0.1784
    115  OG1       61.4420 -129.6530   43.5610 O.3    52  THR52      -0.2211
    116  CG2       59.7460 -130.7070   44.9130 C.3    52  THR52       0.0376
    117  N         60.9060 -126.7820   42.9110 N.am   53  GLU53      -0.1979
    118  CA        61.6950 -125.5980   42.5820 C.3    53  GLU53       0.1602
    119  C         60.8040 -124.3590   42.5340 C.2    53  GLU53       0.2287
    120  O         61.0830 -123.3620   43.1960 O.2    53  GLU53      -0.2864
    121  CB        62.3990 -125.7950   41.2310 C.3    53  GLU53       0.0415
    122  CG        63.2180 -124.6030   40.7350 C.3    53  GLU53       0.1163
    123  CD        64.5180 -124.3980   41.4930 C.2    53  GLU53       0.3649
    124  OE1       65.0530 -125.3750   42.0550 O.co2  53  GLU53      -0.2457
    125  OE2       65.0160 -123.2520   41.5160 O.co2  53  GLU53      -0.2457
    126  N         52.8390 -131.4650   42.9680 N.3    95  GLY95      -0.1225
    127  CA        53.4620 -132.6040   43.6410 C.3    95  GLY95       0.1811
    128  C         54.7840 -132.2710   44.3000 C.2    95  GLY95       0.2280
    129  O         55.8350 -132.7620   43.8850 O.2    95  GLY95      -0.2866
    130  N         56.8570 -132.4400   47.7930 N.3    97  TYR97      -0.1241
    131  CA        57.0270 -132.9870   49.1330 C.3    97  TYR97       0.1605
    132  C         58.3380 -132.4310   49.6660 C.2    97  TYR97       0.2264
    133  O         59.4040 -132.7420   49.1370 O.2    97  TYR97      -0.2867
    134  CB        57.0510 -134.5160   49.0860 C.3    97  TYR97       0.0534
    135  CG        55.7660 -135.1100   48.5570 C.ar   97  TYR97      -0.0201
    136  CD1       55.5210 -135.1810   47.1870 C.ar   97  TYR97      -0.0009
    137  CD2       54.7880 -135.5890   49.4240 C.ar   97  TYR97      -0.0009
    138  CE1       54.3420 -135.7160   46.6950 C.ar   97  TYR97       0.0417
    139  CE2       53.6060 -136.1290   48.9420 C.ar   97  TYR97       0.0417
    140  CZ        53.3860 -136.1890   47.5780 C.ar   97  TYR97       0.1957
    141  OH        52.2110 -136.7230   47.0960 O.3    97  TYR97      -0.2866
    142  N         60.8180 -138.9340   50.2390 N.3   128  GLY128     -0.1210
    143  CA        61.2320 -139.4490   48.9380 C.3   128  GLY128      0.1956
    144  C         61.1440 -140.9600   48.8450 C.2   128  GLY128      0.2612
    145  O         60.7590 -141.6310   49.8040 O.2   128  GLY128     -0.2717
    146  N         61.5120 -141.4910   47.6810 N.am  129  SER129     -0.1952
    147  CA        61.4750 -142.9330   47.4240 C.3   129  SER129      0.1924
    148  C         62.4040 -143.7120   48.3590 C.2   129  SER129      0.2314
    149  O         62.1220 -144.8630   48.7050 O.2   129  SER129     -0.2863
    150  CB        61.8360 -143.2280   45.9620 C.3   129  SER129      0.2116
    151  OG        63.0520 -142.6020   45.5920 O.3   129  SER129     -0.2180
    152  N         65.7330 -145.2120   42.9520 N.3   168  GLY168     -0.1225
    153  CA        65.3440 -143.8360   42.6740 C.3   168  GLY168      0.1811
    154  C         66.3050 -142.8050   43.2430 C.2   168  GLY168      0.2280
    155  O         66.1110 -141.6130   43.0380 O.2   168  GLY168     -0.2866
@<TRIPOS>BOND
     1    39    38    2
     2    40    38   am
     3    38    37    1
     4    36    37    1
     5    36    33    1
     6    35    34    2
     7    48    47    2
     8    46    49    1
     9    46    47    1
    10    46    45    1
    11    34    33    1
    12    34    41   am
    13    33    32    1
    14    42    41    1
    15    42    43    1
    16    32    27   am
    17    43    44    2
    18    27    28    2
    19    27    26    1
    20    26    29    1
    21    26    25    1
    22    22    21    2
    23    24    23    1
    24   109   106    1
    25    29    30    1
    26    29    31    1
    27    21    25   am
    28    21    20    1
    29    23    20    1
    30   106   105    1
    31   106   107    1
    32    99    97    1
    33   105   102   am
    34    20    19    1
    35   104   101    1
    36    19    10   am
    37   107   108    2
    38   102   101    1
    39   102   103    2
    40   100   101    1
    41   100    95   am
    42    13    14    1
    43    13    12    1
    44    55    54    1
    45    97    98    1
    46    97    94    1
    47    15    14    1
    48    15    16    2
    49    50    51    1
    50    18    16    1
    51    54    51    1
    52    16    17    1
    53    51    52    1
    54   122   121    1
    55   122   123    1
    56    94    95    1
    57    94    93    1
    58    10     9    1
    59    10    11    2
    60    95    96    2
    61     9    12    1
    62     9     8    1
    63   121   118    1
    64   123   125   ar
    65   123   124   ar
    66    52    56   am
    67    52    53    2
    68    56    57    1
    69    92    91    2
    70    93    91   am
    71   119   118    1
    72   119   120    2
    73   118   117    1
    74    91    90    1
    75   153   152    1
    76   153   154    1
    77   117   112   am
    78   126   127    1
    79    60    57    1
    80   155   154    2
    81   110   111    1
    82    57    58    1
    83    59    58    2
    84   115   114    1
    85   127   128    1
    86    58    61   am
    87   129   128    2
    88    90    89    1
    89    68    69    1
    90    68    67    1
    91   112   111    1
    92   112   113    2
    93    78    79   ar
    94    78    76   ar
    95   111   114    1
    96     1     2    1
    97   114   116    1
    98     6     5    1
    99    66    67    1
   100    66    65    1
   101    89    86   am
   102    79    77   ar
   103    61    62    1
   104    76    75   ar
   105    62    65    1
   106    62    63    1
   107   151   150    1
   108     2     5    1
   109     2     3    1
   110    86    87    2
   111    86    85    1
   112     5     7    1
   113   150   147    1
   114    77    75   ar
   115    75    74    1
   116    85    84    1
   117    85    88    1
   118    83    82    2
   119   138   136   ar
   120   138   140   ar
   121    63    64    2
   122   141   140    1
   123    74    71    1
   124    82    84   am
   125    82    81    1
   126     3     4    2
   127   136   135   ar
   128   147   146    1
   129   147   148    1
   130   140   139   ar
   131   146   144   am
   132    71    70    1
   133    71    72    1
   134   130   131    1
   135    81    80    1
   136   148   149    2
   137   135   134    1
   138   135   137   ar
   139   144   143    1
   140   144   145    2
   141    72    73    2
   142   143   142    1
   143   139   137   ar
   144   134   131    1
   145   131   132    1
   146   133   132    2
