@<TRIPOS>MOLECULE
tmp/5l5pK01.pdb
 87 80 0 0 0
SMALL
GASTEIGER

@<TRIPOS>ATOM
      1  N         11.4100 -140.1210   10.4250 N.3     1  THR1       -0.1218
      2  CA        10.9810 -139.3650    9.2260 C.3     1  THR1        0.1862
      3  C         11.5590 -139.5280    7.8490 C.2     1  THR1        0.2287
      4  O         12.6550 -139.9790    7.6830 O.2     1  THR1       -0.2866
      5  CB        11.4560 -137.9030    9.4970 C.3     1  THR1        0.1770
      6  OG1       10.8920 -137.4810   10.6460 O.3     1  THR1       -0.2211
      7  CG2       11.0020 -136.8380    8.5210 C.3     1  THR1        0.0375
      8  N         13.3040 -132.6060   10.2300 N.3    46  SER46      -0.1202
      9  CA        13.7040 -133.9740   10.5550 C.3    46  SER46       0.2020
     10  C         14.6330 -133.9390   11.7640 C.2    46  SER46       0.2619
     11  O         15.4730 -133.0450   11.8790 O.2    46  SER46      -0.2717
     12  CB        14.4040 -134.6380    9.3670 C.3    46  SER46       0.2103
     13  OG        15.7370 -134.1730    9.2260 O.3    46  SER46      -0.2182
     14  N         14.4800 -134.9110   12.6590 N.am   47  GLY47      -0.1956
     15  CA        15.2680 -134.9660   13.8900 C.3    47  GLY47       0.1869
     16  C         14.3880 -134.7320   15.1010 C.2    47  GLY47       0.2309
     17  O         13.2210 -135.1290   15.1120 O.2    47  GLY47      -0.2863
     18  N         19.4150 -131.8380   17.5350 N.3    96  SER96      -0.1217
     19  CA        19.1620 -132.7690   16.4390 C.3    96  SER96       0.1889
     20  C         18.1360 -132.1560   15.4930 C.2    96  SER96       0.2288
     21  O         16.9330 -132.1620   15.7650 O.2    96  SER96      -0.2866
     22  CB        18.6650 -134.1130   16.9730 C.3    96  SER96       0.2089
     23  OG        18.5090 -135.0500   15.9210 O.3    96  SER96      -0.2183
     24  N         17.6070 -131.5720   11.1540 N.3    98  GLY98      -0.1225
     25  CA        17.9510 -131.6370    9.7380 C.3    98  GLY98       0.1811
     26  C         16.8180 -131.0020    8.9610 C.2    98  GLY98       0.2280
     27  O         15.6660 -131.4250    9.0850 O.2    98  GLY98      -0.2866
     28  N         20.1590 -127.2390    2.1730 N.3   113  TYR113     -0.1241
     29  CA        20.1320 -128.2290    3.2450 C.3   113  TYR113      0.1605
     30  C         20.9340 -127.6830    4.4200 C.2   113  TYR113      0.2264
     31  O         22.0560 -127.2170    4.2380 O.2   113  TYR113     -0.2867
     32  CB        20.7310 -129.5540    2.7670 C.3   113  TYR113      0.0534
     33  CG        21.0500 -130.5330    3.8770 C.ar  113  TYR113     -0.0201
     34  CD1       20.0620 -131.3500    4.4180 C.ar  113  TYR113     -0.0009
     35  CD2       22.3430 -130.6460    4.3820 C.ar  113  TYR113     -0.0009
     36  CE1       20.3520 -132.2490    5.4310 C.ar  113  TYR113      0.0417
     37  CE2       22.6410 -131.5430    5.3970 C.ar  113  TYR113      0.0417
     38  CZ        21.6410 -132.3440    5.9170 C.ar  113  TYR113      0.1957
     39  OH        21.9230 -133.2390    6.9260 O.3   113  TYR113     -0.2866
     40  N         21.9160 -128.6840    8.6430 N.3   115  ASP115     -0.1225
     41  CA        21.8250 -129.6180    9.7710 C.3   115  ASP115      0.1805
     42  C         22.4650 -129.0760   11.0530 C.2   115  ASP115      0.2597
     43  O         23.0420 -127.9860   11.0600 O.2   115  ASP115     -0.2718
     44  CB        22.3830 -131.0070    9.3970 C.3   115  ASP115      0.1424
     45  CG        23.9010 -131.0330    9.2390 C.2   115  ASP115      0.3668
     46  OD1       24.6040 -130.2050    9.8510 O.co2 115  ASP115     -0.2456
     47  OD2       24.3960 -131.9140    8.5040 O.co2 115  ASP115     -0.2456
     48  N         22.3510 -129.8510   12.1300 N.am  116  GLU116     -0.1979
     49  CA        22.7840 -129.4290   13.4680 C.3   116  GLU116      0.1602
     50  C         24.2860 -129.1680   13.6220 C.2   116  GLU116      0.2287
     51  O         24.6990 -128.5200   14.5830 O.2   116  GLU116     -0.2864
     52  CB        22.3360 -130.4510   14.5260 C.3   116  GLU116      0.0415
     53  CG        23.0680 -131.7940   14.4950 C.3   116  GLU116      0.1163
     54  CD        22.4900 -132.8030   13.5110 C.2   116  GLU116      0.3649
     55  OE1       23.0440 -133.9190   13.4270 O.co2 116  GLU116     -0.2457
     56  OE2       21.4910 -132.4960   12.8210 O.co2 116  GLU116     -0.2457
     57  N         17.1110 -134.9600    0.4360 N.3   127  SER127     -0.1202
     58  CA        16.1860 -135.7880    1.1960 C.3   127  SER127      0.2020
     59  C         16.8100 -136.1150    2.5460 C.2   127  SER127      0.2619
     60  O         17.9720 -136.5210    2.6140 O.2   127  SER127     -0.2717
     61  CB        15.8580 -137.0750    0.4340 C.3   127  SER127      0.2103
     62  OG        14.8630 -137.8300    1.1070 O.3   127  SER127     -0.2182
     63  N         16.0390 -135.9310    3.6150 N.am  128  THR128     -0.1938
     64  CA        16.5400 -136.1460    4.9710 C.3   128  THR128      0.2028
     65  C         15.6410 -137.0980    5.7380 C.2   128  THR128      0.2643
     66  O         14.4760 -137.2970    5.3800 O.2   128  THR128     -0.2714
     67  CB        16.6370 -134.8270    5.7660 C.3   128  THR128      0.1808
     68  OG1       15.3310 -134.4050    6.1830 O.3   128  THR128     -0.2208
     69  CG2       17.2760 -133.7340    4.9260 C.3   128  THR128      0.0379
     70  N         16.2020 -137.6800    6.7940 N.am  129  GLY129     -0.1939
     71  CA        15.4590 -138.5450    7.7010 C.3   129  GLY129      0.2014
     72  C         15.8540 -140.0030    7.5750 C.2   129  GLY129      0.2639
     73  O         16.6630 -140.3680    6.7210 O.2   129  GLY129     -0.2714
     74  N         15.2660 -140.8330    8.4330 N.am  130  SER130     -0.1949
     75  CA        15.5200 -142.2740    8.4470 C.3   130  SER130      0.1924
     76  C         15.2350 -142.9600    7.1080 C.2   130  SER130      0.2314
     77  O         15.8740 -143.9600    6.7800 O.2   130  SER130     -0.2863
     78  CB        14.6840 -142.9390    9.5440 C.3   130  SER130      0.2116
     79  OG        13.3530 -142.4440    9.5410 O.3   130  SER130     -0.2180
     80  N         15.3840 -141.5000    3.9350 N.3   132  ASN132     -0.1240
     81  CA        15.8670 -140.7160    2.7920 C.3   132  ASN132      0.1653
     82  C         16.4520 -141.5660    1.6550 C.2   132  ASN132      0.2266
     83  O         16.3460 -141.1900    0.4870 O.2   132  ASN132     -0.2867
     84  CB        16.8730 -139.6400    3.2370 C.3   132  ASN132      0.1155
     85  CG        18.2470 -140.2000    3.5570 C.2   132  ASN132      0.2627
     86  OD1       19.1600 -140.1250    2.7380 O.2   132  ASN132     -0.2716
     87  ND2       18.4040 -140.7540    4.7490 N.am  132  ASN132     -0.0877
@<TRIPOS>BOND
     1    61    62    1
     2    61    58    1
     3    57    58    1
     4    83    82    2
     5    58    59    1
     6    82    81    1
     7    28    29    1
     8    59    60    2
     9    59    63   am
    10    86    85    2
    11    32    29    1
    12    32    33    1
    13    81    84    1
    14    81    80    1
    15    84    85    1
    16    29    30    1
    17    85    87   am
    18    63    64    1
    19    33    35   ar
    20    33    34   ar
    21    31    30    2
    22    35    37   ar
    23    34    36   ar
    24    69    67    1
    25    64    65    1
    26    64    67    1
    27    66    65    2
    28    37    38   ar
    29    36    38   ar
    30    65    70   am
    31    67    68    1
    32    38    39    1
    33    73    72    2
    34    77    76    2
    35    70    71    1
    36    76    75    1
    37    72    71    1
    38    72    74   am
    39     4     3    2
    40     3     2    1
    41    74    75    1
    42    75    78    1
    43    47    45   ar
    44     7     5    1
    45    40    41    1
    46    26    27    2
    47    26    25    1
    48    13    12    1
    49     2     5    1
    50     2     1    1
    51    45    44    1
    52    45    46   ar
    53    12     9    1
    54    44    41    1
    55     5     6    1
    56    79    78    1
    57    25    24    1
    58    41    42    1
    59     8     9    1
    60     9    10    1
    61    42    43    2
    62    42    48   am
    63    10    11    2
    64    10    14   am
    65    48    49    1
    66    14    15    1
    67    56    54   ar
    68    55    54   ar
    69    49    50    1
    70    49    52    1
    71    54    53    1
    72    50    51    2
    73    15    16    1
    74    53    52    1
    75    16    17    2
    76    20    21    2
    77    20    19    1
    78    23    22    1
    79    19    22    1
    80    19    18    1
