@<TRIPOS>MOLECULE
tmp/5l5pK00.pdb
 146 138 0 0 0
SMALL
GASTEIGER

@<TRIPOS>ATOM
      1  N         11.4100 -140.1210   10.4250 N.3     1  THR1       -0.1218
      2  CA        10.9810 -139.3650    9.2260 C.3     1  THR1        0.1862
      3  C         11.5590 -139.5280    7.8490 C.2     1  THR1        0.2287
      4  O         12.6550 -139.9790    7.6830 O.2     1  THR1       -0.2866
      5  CB        11.4560 -137.9030    9.4970 C.3     1  THR1        0.1770
      6  OG1       10.8920 -137.4810   10.6460 O.3     1  THR1       -0.2211
      7  CG2       11.0020 -136.8380    8.5210 C.3     1  THR1        0.0375
      8  N          4.7930 -139.1040   10.3120 N.3    19  ARG19      -0.1231
      9  CA         4.9230 -139.9790   11.4760 C.3    19  ARG19       0.1694
     10  C          5.8020 -139.3200   12.5320 C.2    19  ARG19       0.2592
     11  O          6.6700 -138.5150   12.2110 O.2    19  ARG19      -0.2718
     12  CB         5.5120 -141.3320   11.0650 C.3    19  ARG19       0.0321
     13  CG         5.5590 -142.3660   12.1810 C.3    19  ARG19       0.0489
     14  CD         5.6430 -143.7800   11.6290 C.3    19  ARG19       0.2205
     15  NE         4.3680 -144.2160   11.0630 N.pl3  19  ARG19      -0.0865
     16  CZ         4.1560 -145.3960   10.4840 C.cat  19  ARG19       0.5346
     17  NH1        5.1390 -146.2860   10.3800 N.pl3  19  ARG19       0.1354
     18  NH2        2.9520 -145.6870   10.0020 N.pl3  19  ARG19       0.1354
     19  N          5.5470 -139.6490   13.7940 N.am   20  ALA20      -0.1966
     20  CA         6.4300 -139.2740   14.8950 C.3    20  ALA20       0.1728
     21  C          6.5620 -140.4740   15.8180 C.2    20  ALA20       0.2617
     22  O          5.5850 -141.1890   16.0440 O.2    20  ALA20      -0.2715
     23  CB         5.8770 -138.0800   15.6530 C.3    20  ALA20       0.0334
     24  N          7.7600 -140.6940   16.3510 N.am   21  SER21      -0.1936
     25  CA         8.0200 -141.8820   17.1630 C.3    21  SER21       0.2055
     26  C          8.7480 -141.6000   18.4670 C.2    21  SER21       0.2642
     27  O          9.4510 -140.6000   18.6100 O.2    21  SER21      -0.2714
     28  CB         8.8040 -142.9270   16.3580 C.3    21  SER21       0.2130
     29  OG         9.5500 -142.3260   15.3090 O.3    21  SER21      -0.2179
     30  N          8.5530 -142.5130   19.4120 N.am   22  ALA22      -0.1977
     31  CA         9.2520 -142.5170   20.6850 C.3    22  ALA22       0.1597
     32  C          9.6160 -143.9720   20.9720 C.2    22  ALA22       0.2287
     33  O          8.8680 -144.6950   21.6340 O.2    22  ALA22      -0.2864
     34  CB         8.3660 -141.9450   21.7790 C.3    22  ALA22       0.0319
     35  N          4.1260 -142.2900   18.2600 N.3    27  SER27      -0.1202
     36  CA         3.5570 -141.2760   19.1420 C.3    27  SER27       0.2020
     37  C          2.5640 -140.3650   18.4270 C.2    27  SER27       0.2618
     38  O          1.6240 -139.8740   19.0470 O.2    27  SER27      -0.2717
     39  CB         4.6690 -140.4380   19.7780 C.3    27  SER27       0.2103
     40  OG         5.4780 -139.8260   18.7890 O.3    27  SER27      -0.2182
     41  N          2.7710 -140.1360   17.1330 N.am   28  ALA28      -0.1979
     42  CA         1.8490 -139.3140   16.3480 C.3    28  ALA28       0.1597
     43  C          1.6840 -139.8410   14.9280 C.2    28  ALA28       0.2287
     44  O          2.6590 -140.2110   14.2700 O.2    28  ALA28      -0.2864
     45  CB         2.3150 -137.8690   16.3200 C.3    28  ALA28       0.0319
     46  N          1.8110 -135.4170   12.1770 N.3    31  VAL31      -0.1231
     47  CA         2.5200 -134.1850   12.5350 C.3    31  VAL31       0.1692
     48  C          2.8530 -133.3710   11.3060 C.2    31  VAL31       0.2592
     49  O          3.0880 -133.9200   10.2230 O.2    31  VAL31      -0.2718
     50  CB         3.8150 -134.4300   13.3400 C.3    31  VAL31       0.0266
     51  CG1        3.4700 -134.9110   14.7330 C.3    31  VAL31       0.0020
     52  CG2        4.7420 -135.4110   12.6390 C.3    31  VAL31       0.0020
     53  N          2.8680 -132.0540   11.4810 N.am   32  ASN32      -0.1960
     54  CA         3.2800 -131.1900   10.4120 C.3    32  ASN32       0.1819
     55  C          4.7830 -130.9250   10.4500 C.2    32  ASN32       0.2621
     56  O          5.2900 -130.3040   11.3830 O.2    32  ASN32      -0.2715
     57  CB         2.5310 -129.8720   10.3770 C.3    32  ASN32       0.1195
     58  CG         2.7760 -129.1870    9.0480 C.2    32  ASN32       0.2630
     59  OD1        3.4360 -129.6970    8.2670 O.2    32  ASN32      -0.2716
     60  ND2        2.3030 -128.1180    8.8290 N.am   32  ASN32      -0.0877
     61  N          5.4790 -131.3800    9.4120 N.am   33  LYS33      -0.1977
     62  CA         6.9310 -131.2640    9.3380 C.3    33  LYS33       0.1596
     63  C          7.3870 -130.1600    8.3900 C.2    33  LYS33       0.2287
     64  O          8.5710 -130.0660    8.0620 O.2    33  LYS33      -0.2864
     65  CB         7.5280 -132.6040    8.9240 C.3    33  LYS33       0.0298
     66  CG         7.3450 -133.6620    9.9890 C.3    33  LYS33       0.0038
     67  CD         7.8060 -135.0190    9.5130 C.3    33  LYS33       0.0206
     68  CE         7.4800 -136.0680   10.5540 C.3    33  LYS33       0.1093
     69  NZ         7.9980 -137.3990   10.1720 N.3    33  LYS33      -0.1314
     70  N         11.3200 -130.4380    8.3250 N.3    45  MET45      -0.1230
     71  CA        11.7710 -130.8200    9.6620 C.3    45  MET45       0.1702
     72  C         12.1000 -132.3050    9.7510 C.2    45  MET45       0.2593
     73  O         11.2820 -133.1510    9.3960 O.2    45  MET45      -0.2718
     74  CB        10.6920 -130.4930   10.6920 C.3    45  MET45       0.0401
     75  CG        10.3210 -129.0220   10.7670 C.3    45  MET45       0.0596
     76  SD         8.9760 -128.7250   11.9300 S.3    45  MET45      -0.1393
     77  CE         8.9120 -126.9370   11.9150 C.3    45  MET45       0.0692
     78  N         13.3040 -132.6060   10.2300 N.am   46  SER46      -0.1938
     79  CA        13.7040 -133.9740   10.5550 C.3    46  SER46       0.2055
     80  C         14.6330 -133.9390   11.7640 C.2    46  SER46       0.2644
     81  O         15.4730 -133.0450   11.8790 O.2    46  SER46      -0.2714
     82  CB        14.4040 -134.6380    9.3670 C.3    46  SER46       0.2130
     83  OG        15.7370 -134.1730    9.2260 O.3    46  SER46      -0.2179
     84  N         14.4800 -134.9110   12.6590 N.am   47  GLY47      -0.1939
     85  CA        15.2680 -134.9660   13.8900 C.3    47  GLY47       0.2014
     86  C         14.3880 -134.7320   15.1010 C.2    47  GLY47       0.2639
     87  O         13.2210 -135.1290   15.1120 O.2    47  GLY47      -0.2714
     88  N         14.9470 -134.0910   16.1240 N.am   48  CYS48      -0.1953
     89  CA        14.1950 -133.7770   17.3350 C.3    48  CYS48       0.1843
     90  C         13.1150 -132.7490   17.0040 C.2    48  CYS48       0.2625
     91  O         13.4160 -131.6670   16.4970 O.2    48  CYS48      -0.2714
     92  CB        15.1240 -133.2410   18.4270 C.3    48  CYS48       0.0997
     93  SG        14.3150 -132.8990   20.0080 S.3    48  CYS48      -0.0797
     94  N         11.8620 -133.1080   17.2780 N.am   49  ALA49      -0.1963
     95  CA        10.7080 -132.2650   16.9520 C.3    49  ALA49       0.1728
     96  C         10.7690 -130.9010   17.6390 C.2    49  ALA49       0.2616
     97  O         10.4230 -129.8800   17.0400 O.2    49  ALA49      -0.2715
     98  CB         9.4180 -132.9780   17.3280 C.3    49  ALA49       0.0334
     99  N         11.2040 -130.8970   18.8970 N.am   50  ALA50      -0.1977
    100  CA        11.3230 -129.6660   19.6760 C.3    50  ALA50       0.1597
    101  C         12.3620 -128.7240   19.0800 C.2    50  ALA50       0.2287
    102  O         12.1130 -127.5260   18.9470 O.2    50  ALA50      -0.2864
    103  CB        11.6770 -129.9900   21.1170 C.3    50  ALA50       0.0319
    104  N         13.5030 -128.7650   15.9540 N.3    52  CYS52      -0.1221
    105  CA        12.9890 -128.3440   14.6500 C.3    52  CYS52       0.1808
    106  C         11.9610 -127.2200   14.7760 C.2    52  CYS52       0.2601
    107  O         12.0160 -126.2420   14.0360 O.2    52  CYS52      -0.2717
    108  CB        12.3750 -129.5320   13.9050 C.3    52  CYS52       0.0970
    109  SG        13.5840 -130.7450   13.3330 S.3    52  CYS52      -0.0800
    110  N         11.0380 -127.3550   15.7220 N.am   53  GLN53      -0.1979
    111  CA         9.9850 -126.3570   15.9060 C.3    53  GLN53       0.1601
    112  C         10.5070 -125.0490   16.4840 C.2    53  GLN53       0.2287
    113  O         10.1620 -123.9770   15.9980 O.2    53  GLN53      -0.2864
    114  CB         8.8690 -126.8990   16.7970 C.3    53  GLN53       0.0394
    115  CG         7.9290 -127.8480   16.0760 C.3    53  GLN53       0.0908
    116  CD         6.7710 -128.3100   16.9410 C.2    53  GLN53       0.2608
    117  OE1        6.5020 -127.7460   18.0030 O.2    53  GLN53      -0.2717
    118  NE2        6.0710 -129.3390   16.4820 N.am   53  GLN53      -0.0878
    119  N         19.4150 -131.8380   17.5350 N.3    96  SER96      -0.1217
    120  CA        19.1620 -132.7690   16.4390 C.3    96  SER96       0.1889
    121  C         18.1360 -132.1560   15.4930 C.2    96  SER96       0.2288
    122  O         16.9330 -132.1620   15.7650 O.2    96  SER96      -0.2866
    123  CB        18.6650 -134.1130   16.9730 C.3    96  SER96       0.2089
    124  OG        18.5090 -135.0500   15.9210 O.3    96  SER96      -0.2183
    125  N         16.2020 -137.6800    6.7940 N.3   129  GLY129     -0.1210
    126  CA        15.4590 -138.5450    7.7010 C.3   129  GLY129      0.1956
    127  C         15.8540 -140.0030    7.5750 C.2   129  GLY129      0.2612
    128  O         16.6630 -140.3680    6.7210 O.2   129  GLY129     -0.2717
    129  N         15.2660 -140.8330    8.4330 N.am  130  SER130     -0.1952
    130  CA        15.5200 -142.2740    8.4470 C.3   130  SER130      0.1924
    131  C         15.2350 -142.9600    7.1080 C.2   130  SER130      0.2314
    132  O         15.8740 -143.9600    6.7800 O.2   130  SER130     -0.2863
    133  CB        14.6840 -142.9390    9.5440 C.3   130  SER130      0.2116
    134  OG        13.3530 -142.4440    9.5410 O.3   130  SER130     -0.2180
    135  N          9.9610 -146.1850   10.5700 N.3   169  TYR169     -0.1241
    136  CA         9.8090 -144.9010   11.2610 C.3   169  TYR169      0.1605
    137  C          9.3630 -143.7690   10.3300 C.2   169  TYR169      0.2264
    138  O          9.5120 -142.5960   10.6600 O.2   169  TYR169     -0.2867
    139  CB        11.1170 -144.5480   11.9760 C.3   169  TYR169      0.0534
    140  CG        11.4920 -145.5970   12.9920 C.ar  169  TYR169     -0.0201
    141  CD1       10.8190 -145.6800   14.2030 C.ar  169  TYR169     -0.0009
    142  CD2       12.4870 -146.5320   12.7280 C.ar  169  TYR169     -0.0009
    143  CE1       11.1380 -146.6510   15.1330 C.ar  169  TYR169      0.0417
    144  CE2       12.8140 -147.5070   13.6560 C.ar  169  TYR169      0.0417
    145  CZ        12.1340 -147.5610   14.8570 C.ar  169  TYR169      0.1957
    146  OH        12.4430 -148.5220   15.7900 O.3   169  TYR169     -0.2866
@<TRIPOS>BOND
     1   128   127    2
     2   132   131    2
     3   125   126    1
     4   131   130    1
     5   127   126    1
     6   127   129   am
     7     4     3    2
     8     3     2    1
     9    64    63    2
    10    59    58    2
    11    70    71    1
    12    63    62    1
    13   129   130    1
    14   130   133    1
    15     7     5    1
    16    60    58   am
    17    65    62    1
    18    65    66    1
    19    58    57    1
    20     2     5    1
    21     2     1    1
    22    83    82    1
    23    62    61    1
    24    82    79    1
    25    73    72    2
    26    61    55   am
    27     5     6    1
    28    67    66    1
    29    67    68    1
    30   134   133    1
    31    71    72    1
    32    71    74    1
    33    72    78   am
    34    18    16    1
    35    69    68    1
    36    49    48    2
    37    78    79    1
    38     8     9    1
    39   137   138    2
    40   137   136    1
    41    57    54    1
    42    17    16    1
    43    54    55    1
    44    54    53    1
    45    55    56    2
    46    16    15    2
    47    79    80    1
    48   135   136    1
    49    74    75    1
    50    75    76    1
    51    15    14    1
    52    12     9    1
    53    12    13    1
    54   136   139    1
    55    48    53   am
    56    48    47    1
    57     9    10    1
    58    14    13    1
    59    80    81    2
    60    80    84   am
    61    77    76    1
    62   139   140    1
    63    46    47    1
    64    11    10    2
    65    10    19   am
    66    47    50    1
    67    52    50    1
    68    84    85    1
    69   142   140   ar
    70   142   144   ar
    71   140   141   ar
    72   109   108    1
    73    50    51    1
    74   144   145   ar
    75    19    20    1
    76    85    86    1
    77   108   105    1
    78   107   106    2
    79   141   143   ar
    80    44    43    2
    81   105   106    1
    82   105   104    1
    83   106   110   am
    84   145   143   ar
    85   145   146    1
    86    20    23    1
    87    20    21    1
    88    43    42    1
    89    86    87    2
    90    86    88   am
    91    29    28    1
    92   121   122    2
    93   121   120    1
    94   110   111    1
    95    21    22    2
    96    21    24   am
    97   111   112    1
    98   111   114    1
    99   124   123    1
   100   113   112    2
   101   115   114    1
   102   115   116    1
   103    88    89    1
   104    45    42    1
   105    42    41    1
   106    24    25    1
   107    28    25    1
   108   120   123    1
   109   120   119    1
   110   118   116   am
   111    91    90    2
   112   116   117    2
   113    95    94    1
   114    95    98    1
   115    95    96    1
   116    90    94   am
   117    90    89    1
   118    97    96    2
   119    41    37   am
   120    25    26    1
   121    89    92    1
   122    96    99   am
   123    35    36    1
   124    92    93    1
   125    37    38    2
   126    37    36    1
   127    26    27    2
   128    26    30   am
   129    40    39    1
   130    99   100    1
   131   102   101    2
   132   101   100    1
   133    36    39    1
   134    30    31    1
   135   100   103    1
   136    31    32    1
   137    31    34    1
   138    32    33    2
