@<TRIPOS>MOLECULE
tmp/5l5xN00.pdb
 144 135 0 0 0
SMALL
GASTEIGER

@<TRIPOS>ATOM
      1  N         43.9520 -142.6170   62.9910 N.3     1  THR1       -0.1218
      2  CA        43.7170 -142.0270   64.3630 C.3     1  THR1        0.1862
      3  C         42.7610 -142.6410   65.4110 C.2     1  THR1        0.2287
      4  O         41.6590 -143.0740   65.1050 O.2     1  THR1       -0.2866
      5  CB        43.2960 -140.5800   64.1550 C.3     1  THR1        0.1770
      6  OG1       44.2630 -140.0080   63.2970 O.3     1  THR1       -0.2211
      7  CG2       43.3070 -139.7460   65.4360 C.3     1  THR1        0.0375
      8  N         50.1180 -141.1500   65.9620 N.3    19  ARG19      -0.1231
      9  CA        50.4950 -141.8180   64.7170 C.3    19  ARG19       0.1694
     10  C         49.8800 -141.1550   63.4840 C.2    19  ARG19       0.2593
     11  O         48.6760 -140.8920   63.4400 O.2    19  ARG19      -0.2718
     12  CB        50.1010 -143.2970   64.7680 C.3    19  ARG19       0.0321
     13  CG        50.4740 -144.0850   63.5180 C.3    19  ARG19       0.0489
     14  CD        50.3460 -145.5860   63.7280 C.3    19  ARG19       0.2205
     15  NE        51.3600 -146.1070   64.6460 N.pl3  19  ARG19      -0.0865
     16  CZ        51.5670 -147.3990   64.8960 C.cat  19  ARG19       0.5346
     17  NH1       50.8350 -148.3350   64.2990 N.pl3  19  ARG19       0.1354
     18  NH2       52.5220 -147.7590   65.7460 N.pl3  19  ARG19       0.1354
     19  N         50.7290 -140.8990   62.4900 N.am   20  THR20      -0.1939
     20  CA        50.3170 -140.3890   61.1840 C.3    20  THR20       0.2028
     21  C         50.7810 -141.3960   60.1420 C.2    20  THR20       0.2643
     22  O         51.9510 -141.7850   60.1410 O.2    20  THR20      -0.2714
     23  CB        50.9770 -139.0300   60.8740 C.3    20  THR20       0.1808
     24  OG1       50.7860 -138.1320   61.9740 O.3    20  THR20      -0.2208
     25  CG2       50.3920 -138.4060   59.6080 C.3    20  THR20       0.0379
     26  N         49.8790 -141.8140   59.2570 N.am   21  THR21      -0.1936
     27  CA        50.2020 -142.8500   58.2790 C.3    21  THR21       0.2028
     28  C         50.0970 -142.3790   56.8360 C.2    21  THR21       0.2642
     29  O         49.2960 -141.5070   56.5080 O.2    21  THR21      -0.2714
     30  CB        49.2920 -144.0820   58.4410 C.3    21  THR21       0.1808
     31  OG1       47.9180 -143.6760   58.4160 O.3    21  THR21      -0.2208
     32  CG2       49.5940 -144.7980   59.7490 C.3    21  THR21       0.0379
     33  N         50.9380 -142.9740   55.9950 N.am   22  THR22      -0.1950
     34  CA        50.8300 -142.8880   54.5450 C.3    22  THR22       0.1897
     35  C         50.7190 -144.3290   54.0520 C.2    22  THR22       0.2313
     36  O         51.7220 -144.9660   53.7270 O.2    22  THR22      -0.2863
     37  CB        52.0600 -142.1960   53.9290 C.3    22  THR22       0.1794
     38  OG1       52.2060 -140.8900   54.4970 O.3    22  THR22      -0.2208
     39  CG2       51.9180 -142.0720   52.4130 C.3    22  THR22       0.0378
     40  N         54.4060 -142.1180   58.7700 N.3    27  ALA27      -0.1245
     41  CA        55.1230 -140.9000   58.3830 C.3    27  ALA27       0.1562
     42  C         55.5990 -140.0810   59.5890 C.2    27  ALA27       0.2260
     43  O         56.5980 -139.3650   59.5030 O.2    27  ALA27      -0.2867
     44  CB        54.2510 -140.0420   57.4780 C.3    27  ALA27       0.0290
     45  N         53.2440 -137.3860   66.4740 N.3    31  THR31      -0.1218
     46  CA        52.3620 -136.3070   66.0410 C.3    31  THR31       0.1862
     47  C         51.5920 -135.7030   67.2140 C.2    31  THR31       0.2287
     48  O         51.2500 -136.4050   68.1730 O.2    31  THR31      -0.2866
     49  CB        51.3470 -136.8210   65.0010 C.3    31  THR31       0.1770
     50  OG1       52.0050 -137.7110   64.0910 O.3    31  THR31      -0.2211
     51  CG2       50.7280 -135.6670   64.2190 C.3    31  THR31       0.0375
     52  N         48.1430 -134.1980   67.7480 N.3    33  LYS33      -0.1245
     53  CA        46.8200 -134.0800   67.1410 C.3    33  LYS33       0.1561
     54  C         45.8890 -133.2030   67.9730 C.2    33  LYS33       0.2260
     55  O         44.7740 -132.8930   67.5480 O.2    33  LYS33      -0.2867
     56  CB        46.2140 -135.4690   66.9700 C.3    33  LYS33       0.0271
     57  CG        47.1090 -136.4160   66.1890 C.3    33  LYS33       0.0035
     58  CD        46.5140 -137.8070   66.1060 C.3    33  LYS33       0.0206
     59  CE        47.3810 -138.7240   65.2600 C.3    33  LYS33       0.1093
     60  NZ        46.6370 -139.9310   64.8060 N.3    33  LYS33      -0.1314
     61  N         41.9720 -133.6620   66.1150 N.3    45  ARG45      -0.1231
     62  CA        41.8660 -133.7660   64.6610 C.3    45  ARG45       0.1694
     63  C         41.9800 -135.2080   64.1750 C.2    45  ARG45       0.2593
     64  O         42.8450 -135.9630   64.6330 O.2    45  ARG45      -0.2718
     65  CB        42.9380 -132.9070   63.9950 C.3    45  ARG45       0.0321
     66  CG        42.7780 -131.4250   64.2790 C.3    45  ARG45       0.0489
     67  CD        43.8280 -130.5920   63.5660 C.3    45  ARG45       0.2205
     68  NE        45.1770 -130.9180   64.0240 N.pl3  45  ARG45      -0.0865
     69  CZ        46.1510 -131.4280   63.2690 C.cat  45  ARG45       0.5346
     70  NH1       45.9690 -131.6970   61.9760 N.pl3  45  ARG45       0.1354
     71  NH2       47.3350 -131.6720   63.8210 N.pl3  45  ARG45       0.1354
     72  N         41.0910 -135.5720   63.2510 N.am   46  SER46      -0.1938
     73  CA        41.1220 -136.8710   62.5760 C.3    46  SER46       0.2055
     74  C         40.7260 -136.6950   61.1100 C.2    46  SER46       0.2644
     75  O         40.0120 -135.7530   60.7600 O.2    46  SER46      -0.2714
     76  CB        40.1840 -137.8690   63.2640 C.3    46  SER46       0.2130
     77  OG        38.8280 -137.6620   62.8960 O.3    46  SER46      -0.2179
     78  N         41.1900 -137.6080   60.2630 N.am   47  GLY47      -0.1939
     79  CA        40.9640 -137.5200   58.8220 C.3    47  GLY47       0.2014
     80  C         42.1930 -136.9750   58.1220 C.2    47  GLY47       0.2640
     81  O         43.3180 -137.2520   58.5360 O.2    47  GLY47      -0.2714
     82  N         41.9790 -136.1990   57.0620 N.am   48  SER48      -0.1935
     83  CA        43.0780 -135.6000   56.3030 C.3    48  SER48       0.2055
     84  C         43.8510 -134.6090   57.1660 C.2    48  SER48       0.2643
     85  O         43.2630 -133.6960   57.7480 O.2    48  SER48      -0.2714
     86  CB        42.5470 -134.8910   55.0540 C.3    48  SER48       0.2130
     87  OG        43.5590 -134.1180   54.4260 O.3    48  SER48      -0.2179
     88  N         45.1660 -134.7940   57.2460 N.am   49  ALA49      -0.1963
     89  CA        46.0190 -133.9160   58.0460 C.3    49  ALA49       0.1728
     90  C         46.0460 -132.5080   57.4680 C.2    49  ALA49       0.2616
     91  O         46.0090 -131.5290   58.2090 O.2    49  ALA49      -0.2715
     92  CB        47.4290 -134.4750   58.1280 C.3    49  ALA49       0.0334
     93  N         46.1020 -132.4150   56.1430 N.am   50  ALA50      -0.1963
     94  CA        46.0910 -131.1260   55.4590 C.3    50  ALA50       0.1728
     95  C         44.7760 -130.3780   55.6890 C.2    50  ALA50       0.2616
     96  O         44.7810 -129.1940   56.0340 O.2    50  ALA50      -0.2715
     97  CB        46.3350 -131.3170   53.9710 C.3    50  ALA50       0.0334
     98  N         43.6570 -131.0770   55.5050 N.am   51  ASP51      -0.1957
     99  CA        42.3290 -130.4780   55.6670 C.3    51  ASP51       0.1840
    100  C         42.0820 -129.9980   57.0940 C.2    51  ASP51       0.2623
    101  O         41.6160 -128.8780   57.3020 O.2    51  ASP51      -0.2715
    102  CB        41.2310 -131.4720   55.2770 C.3    51  ASP51       0.1450
    103  CG        41.2570 -131.8370   53.7970 C.2    51  ASP51       0.3671
    104  OD1       41.9410 -131.1480   53.0060 O.co2  51  ASP51      -0.2456
    105  OD2       40.5830 -132.8210   53.4200 O.co2  51  ASP51      -0.2456
    106  N         42.3990 -130.8400   58.0730 N.am   52  THR52      -0.1937
    107  CA        42.1770 -130.4900   59.4760 C.3    52  THR52       0.2028
    108  C         43.0800 -129.3430   59.9450 C.2    52  THR52       0.2642
    109  O         42.6580 -128.5220   60.7600 O.2    52  THR52      -0.2714
    110  CB        42.3540 -131.7060   60.4050 C.3    52  THR52       0.1808
    111  OG1       43.6520 -132.2840   60.2110 O.3    52  THR52      -0.2208
    112  CG2       41.2810 -132.7460   60.1320 C.3    52  THR52       0.0379
    113  N         44.3080 -129.2810   59.4280 N.am   53  GLN53      -0.1976
    114  CA        45.2210 -128.1670   59.7260 C.3    53  GLN53       0.1601
    115  C         44.7120 -126.8600   59.1340 C.2    53  GLN53       0.2287
    116  O         44.6640 -125.8380   59.8180 O.2    53  GLN53      -0.2864
    117  CB        46.6290 -128.4370   59.1880 C.3    53  GLN53       0.0394
    118  CG        47.4390 -129.3940   60.0410 C.3    53  GLN53       0.0908
    119  CD        48.8120 -129.6820   59.4630 C.2    53  GLN53       0.2608
    120  OE1       49.3840 -128.8580   58.7460 O.2    53  GLN53      -0.2717
    121  NE2       49.3540 -130.8560   59.7810 N.am   53  GLN53      -0.0878
    122  N         37.8440 -133.9920   54.2010 N.3    94  THR94      -0.1218
    123  CA        37.7540 -135.2510   54.9260 C.3    94  THR94       0.1862
    124  C         38.2990 -134.9870   56.3290 C.2    94  THR94       0.2287
    125  O         39.4690 -135.2460   56.6190 O.2    94  THR94      -0.2866
    126  CB        38.5440 -136.3700   54.2180 C.3    94  THR94       0.1770
    127  OG1       38.1070 -136.4780   52.8550 O.3    94  THR94      -0.2211
    128  CG2       38.3410 -137.7080   54.9180 C.3    94  THR94       0.0375
    129  N         37.8920 -141.1030   65.0660 N.3   128  GLY128     -0.1210
    130  CA        39.0490 -141.6780   64.3960 C.3   128  GLY128      0.1956
    131  C         38.8270 -143.1510   64.1080 C.2   128  GLY128      0.2612
    132  O         37.9140 -143.7690   64.6590 O.2   128  GLY128     -0.2717
    133  N         39.6700 -143.7120   63.2460 N.am  129  SER129     -0.1952
    134  CA        39.5700 -145.1180   62.8500 C.3   129  SER129      0.1924
    135  C         39.5540 -146.0750   64.0410 C.2   129  SER129      0.2314
    136  O         38.8000 -147.0490   64.0490 O.2   129  SER129     -0.2863
    137  CB        40.7290 -145.4860   61.9180 C.3   129  SER129      0.2116
    138  OG        41.9830 -145.1800   62.5070 O.3   129  SER129     -0.2180
    139  N         46.2690 -148.1460   62.4810 N.3   168  SER168     -0.1217
    140  CA        46.3630 -146.7310   62.1410 C.3   168  SER168      0.1889
    141  C         46.5200 -145.8470   63.3810 C.2   168  SER168      0.2288
    142  O         46.6630 -144.6360   63.2630 O.2   168  SER168     -0.2866
    143  CB        45.1300 -146.3000   61.3490 C.3   168  SER168      0.2089
    144  OG        44.9520 -147.1260   60.2110 O.3   168  SER168     -0.2183
@<TRIPOS>BOND
     1    39    37    1
     2   127   126    1
     3   104   103   ar
     4   105   103   ar
     5    36    35    2
     6   103   102    1
     7    37    38    1
     8    37    34    1
     9    97    94    1
    10    35    34    1
    11   122   123    1
    12   126   128    1
    13   126   123    1
    14    87    86    1
    15    34    33    1
    16   123   124    1
    17    86    83    1
    18   102    99    1
    19    94    95    1
    20    94    93    1
    21    98    99    1
    22    98    95   am
    23    99   100    1
    24    95    96    2
    25    33    28   am
    26    93    90   am
    27    83    82    1
    28    83    84    1
    29   124   125    2
    30    29    28    2
    31    28    27    1
    32    82    80   am
    33   100   101    2
    34   100   106   am
    35    84    88   am
    36    84    85    2
    37    88    89    1
    38    90    89    1
    39    90    91    2
    40    44    41    1
    41    89    92    1
    42   106   107    1
    43    80    81    2
    44    80    79    1
    45    27    30    1
    46    27    26    1
    47    41    40    1
    48    41    42    1
    49    31    30    1
    50    30    32    1
    51   120   119    2
    52    79    78    1
    53   115   114    1
    54   115   116    2
    55   117   114    1
    56   117   118    1
    57    26    21   am
    58   113   114    1
    59   113   108   am
    60   119   121   am
    61   119   118    1
    62   107   108    1
    63   107   110    1
    64    43    42    2
    65    25    23    1
    66   108   109    2
    67   112   110    1
    68    22    21    2
    69    21    20    1
    70   144   143    1
    71   111   110    1
    72    78    74   am
    73    75    74    2
    74    23    20    1
    75    23    24    1
    76    74    73    1
    77    20    19    1
    78   143   140    1
    79   137   138    1
    80   137   134    1
    81    70    69    1
    82   140   139    1
    83   140   141    1
    84    19    10   am
    85    73    72    1
    86    73    76    1
    87   134   133    1
    88   134   135    1
    89    77    76    1
    90     1     2    1
    91   133   131   am
    92    72    63   am
    93   142   141    2
    94    69    71    1
    95    69    68    2
    96     6     5    1
    97    11    10    2
    98    10     9    1
    99    13    14    1
   100    13    12    1
   101    67    68    1
   102    67    66    1
   103    14    15    1
   104    65    66    1
   105    65    62    1
   106   135   136    2
   107    50    49    1
   108   131   130    1
   109   131   132    2
   110     5     2    1
   111     5     7    1
   112    63    64    2
   113    63    62    1
   114    51    49    1
   115    17    16    1
   116     2     3    1
   117   130   129    1
   118    15    16    2
   119    62    61    1
   120     9    12    1
   121     9     8    1
   122    60    59    1
   123    16    18    1
   124    49    46    1
   125     4     3    2
   126    59    58    1
   127    46    45    1
   128    46    47    1
   129    58    57    1
   130    57    56    1
   131    56    53    1
   132    53    52    1
   133    53    54    1
   134    47    48    2
   135    55    54    2
