@<TRIPOS>MOLECULE
tmp/5l5zK00.pdb
 110 102 0 0 0
SMALL
GASTEIGER

@<TRIPOS>ATOM
      1  N         11.5160 -140.6120    9.9070 N.3     1  THR1       -0.1218
      2  CA        11.1770 -139.3420    9.1990 C.3     1  THR1        0.1862
      3  C         11.7040 -139.4160    7.7780 C.2     1  THR1        0.2287
      4  O         12.8110 -139.8970    7.5390 O.2     1  THR1       -0.2866
      5  CB        11.7950 -138.1170    9.8860 C.3     1  THR1        0.1770
      6  OG1       11.0920 -137.9040   11.1080 O.3     1  THR1       -0.2211
      7  CG2       11.6540 -136.8260    9.0510 C.3     1  THR1        0.0375
      8  N          5.0500 -138.7810   10.7130 N.3    19  ARG19      -0.1231
      9  CA         5.1880 -139.6850   11.8540 C.3    19  ARG19       0.1694
     10  C          6.1940 -139.1800   12.8860 C.2    19  ARG19       0.2592
     11  O          7.2750 -138.6990   12.5370 O.2    19  ARG19      -0.2718
     12  CB         5.5850 -141.0880   11.3940 C.3    19  ARG19       0.0321
     13  CG         5.6540 -142.0970   12.5320 C.3    19  ARG19       0.0489
     14  CD         5.8460 -143.5120   12.0210 C.3    19  ARG19       0.2205
     15  NE         4.6290 -144.0440   11.4140 N.pl3  19  ARG19      -0.0865
     16  CZ         4.5360 -145.2300   10.8150 C.cat  19  ARG19       0.5346
     17  NH1        5.5930 -146.0310   10.7290 N.pl3  19  ARG19       0.1354
     18  NH2        3.3760 -145.6170   10.2950 N.pl3  19  ARG19       0.1354
     19  N          5.8160 -139.2990   14.1570 N.am   20  ALA20      -0.1966
     20  CA         6.7060 -139.0340   15.2820 C.3    20  ALA20       0.1728
     21  C          6.7720 -140.2960   16.1220 C.2    20  ALA20       0.2617
     22  O          5.7410 -140.9020   16.4170 O.2    20  ALA20      -0.2715
     23  CB         6.1900 -137.8770   16.1170 C.3    20  ALA20       0.0334
     24  N          7.9810 -140.6840   16.5160 N.am   21  THR21      -0.1937
     25  CA         8.1830 -141.9620   17.1860 C.3    21  THR21       0.2028
     26  C          8.8730 -141.7750   18.5410 C.2    21  THR21       0.2642
     27  O          9.6900 -140.8700   18.7170 O.2    21  THR21      -0.2714
     28  CB         8.9760 -142.9320   16.2750 C.3    21  THR21       0.1808
     29  OG1        8.2280 -144.1410   16.0930 O.3    21  THR21      -0.2208
     30  CG2       10.3650 -143.2580   16.8390 C.3    21  THR21       0.0379
     31  N          8.5240 -142.6420   19.4880 N.am   22  ALA22      -0.1963
     32  CA         9.1570 -142.6800   20.8030 C.3    22  ALA22       0.1728
     33  C          9.5570 -144.1240   21.0900 C.2    22  ALA22       0.2616
     34  O          8.8120 -144.8790   21.7180 O.2    22  ALA22      -0.2715
     35  CB         8.2050 -142.1600   21.8690 C.3    22  ALA22       0.0334
     36  N         10.7370 -144.5030   20.6110 N.am   23  GLY23      -0.1955
     37  CA        11.1580 -145.8980   20.6270 C.3    23  GLY23       0.1869
     38  C         10.4080 -146.6450   19.5380 C.2    23  GLY23       0.2309
     39  O         10.4430 -146.2470   18.3750 O.2    23  GLY23      -0.2863
     40  N          4.0960 -142.0920   18.7010 N.3    27  ALA27      -0.1245
     41  CA         3.5310 -141.0160   19.5100 C.3    27  ALA27       0.1562
     42  C          2.4580 -140.2620   18.7380 C.2    27  ALA27       0.2260
     43  O          1.3390 -140.0950   19.2230 O.2    27  ALA27      -0.2867
     44  CB         4.6250 -140.0590   19.9610 C.3    27  ALA27       0.0290
     45  N          2.0470 -134.9090   12.4160 N.3    31  VAL31      -0.1245
     46  CA         3.0800 -133.8960   12.6490 C.3    31  VAL31       0.1561
     47  C          3.3270 -133.0470   11.4110 C.2    31  VAL31       0.2260
     48  O          3.5170 -133.5700   10.3100 O.2    31  VAL31      -0.2867
     49  CB         4.4180 -134.5110   13.1090 C.3    31  VAL31       0.0252
     50  CG1        5.3970 -133.4160   13.5110 C.3    31  VAL31       0.0019
     51  CG2        4.2020 -135.4520   14.2810 C.3    31  VAL31       0.0019
     52  N          5.9130 -131.2570    9.7090 N.3    33  LYS33      -0.1245
     53  CA         7.3680 -131.1820    9.6350 C.3    33  LYS33       0.1561
     54  C          7.8290 -130.1030    8.6730 C.2    33  LYS33       0.2260
     55  O          9.0210 -129.8240    8.5760 O.2    33  LYS33      -0.2867
     56  CB         7.9380 -132.5300    9.2210 C.3    33  LYS33       0.0271
     57  CG         7.6950 -133.5920   10.2680 C.3    33  LYS33       0.0035
     58  CD         8.1300 -134.9550    9.7870 C.3    33  LYS33       0.0206
     59  CE         7.7620 -136.0040   10.8150 C.3    33  LYS33       0.1093
     60  NZ         8.2310 -137.3490   10.4030 N.3    33  LYS33      -0.1314
     61  N         11.7050 -130.2540    8.9740 N.3    45  MET45      -0.1230
     62  CA        12.1200 -130.7210   10.2930 C.3    45  MET45       0.1702
     63  C         12.4460 -132.2090   10.2550 C.2    45  MET45       0.2592
     64  O         11.6890 -133.0040    9.6970 O.2    45  MET45      -0.2718
     65  CB        11.0070 -130.4880   11.3110 C.3    45  MET45       0.0401
     66  CG        10.5980 -129.0350   11.4870 C.3    45  MET45       0.0596
     67  SD         8.9990 -128.9000   12.3080 S.3    45  MET45      -0.1393
     68  CE         9.3430 -129.6130   13.9100 C.3    45  MET45       0.0692
     69  N         13.5750 -132.5760   10.8570 N.am   46  ALA46      -0.1966
     70  CA        13.9730 -133.9760   10.9890 C.3    46  ALA46       0.1728
     71  C         14.8990 -134.1450   12.1880 C.2    46  ALA46       0.2617
     72  O         15.7650 -133.3030   12.4390 O.2    46  ALA46      -0.2715
     73  CB        14.6550 -134.4600    9.7210 C.3    46  ALA46       0.0334
     74  N         14.7080 -135.2370   12.9230 N.am   47  GLY47      -0.1940
     75  CA        15.4540 -135.4910   14.1520 C.3    47  GLY47       0.2014
     76  C         14.6670 -135.0140   15.3570 C.2    47  GLY47       0.2639
     77  O         13.5790 -135.5250   15.6360 O.2    47  GLY47      -0.2714
     78  N         15.2110 -134.0280   16.0670 N.am   48  GLY48      -0.1939
     79  CA        14.5520 -133.4660   17.2440 C.3    48  GLY48       0.2014
     80  C         13.4390 -132.5030   16.8660 C.2    48  GLY48       0.2638
     81  O         13.6930 -131.4540   16.2720 O.2    48  GLY48      -0.2714
     82  N         12.2040 -132.8630   17.2100 N.am   49  ALA49      -0.1977
     83  CA        11.0380 -132.0190   16.9240 C.3    49  ALA49       0.1597
     84  C         11.1240 -130.6760   17.6390 C.2    49  ALA49       0.2287
     85  O         10.8780 -129.6290   17.0400 O.2    49  ALA49      -0.2864
     86  CB         9.7570 -132.7400   17.3170 C.3    49  ALA49       0.0319
     87  N         19.8510 -131.8090   17.8180 N.3    96  SER96      -0.1217
     88  CA        19.5900 -132.7940   16.7720 C.3    96  SER96       0.1889
     89  C         18.6420 -132.2030   15.7330 C.2    96  SER96       0.2288
     90  O         17.4220 -132.2060   15.9180 O.2    96  SER96      -0.2866
     91  CB        18.9950 -134.0680   17.3780 C.3    96  SER96       0.2089
     92  OG        18.8240 -135.0720   16.3930 O.3    96  SER96      -0.2183
     93  N         15.5170 -140.6380    8.5380 N.3   130  SER130     -0.1217
     94  CA        15.7770 -142.0790    8.5400 C.3   130  SER130      0.1889
     95  C         15.3720 -142.7590    7.2300 C.2   130  SER130      0.2288
     96  O         16.0040 -143.7300    6.8110 O.2   130  SER130     -0.2866
     97  CB        15.0460 -142.7440    9.7080 C.3   130  SER130      0.2089
     98  OG        13.6610 -142.4530    9.6730 O.3   130  SER130     -0.2183
     99  N         10.0160 -145.9800   10.8840 N.3   169  TYR169     -0.1241
    100  CA         9.9080 -144.6970   11.5850 C.3   169  TYR169      0.1605
    101  C          9.3990 -143.5660   10.6860 C.2   169  TYR169      0.2264
    102  O          9.4080 -142.3990   11.0820 O.2   169  TYR169     -0.2867
    103  CB        11.2610 -144.3480   12.2170 C.3   169  TYR169      0.0534
    104  CG        11.7020 -145.4050   13.2040 C.ar  169  TYR169     -0.0201
    105  CD1       10.9170 -145.7060   14.3120 C.ar  169  TYR169     -0.0009
    106  CD2       12.8780 -146.1280   13.0200 C.ar  169  TYR169     -0.0009
    107  CE1       11.2940 -146.6800   15.2180 C.ar  169  TYR169      0.0417
    108  CE2       13.2640 -147.1070   13.9250 C.ar  169  TYR169      0.0417
    109  CZ        12.4660 -147.3770   15.0220 C.ar  169  TYR169      0.1957
    110  OH        12.8300 -148.3420   15.9320 O.3   169  TYR169     -0.2866
@<TRIPOS>BOND
     1    96    95    2
     2    95    94    1
     3     4     3    2
     4     3     2    1
     5    93    94    1
     6    94    97    1
     7    55    54    2
     8    54    53    1
     9    61    62    1
    10     7     5    1
    11     2     5    1
    12     2     1    1
    13    56    53    1
    14    56    57    1
    15    53    52    1
    16    98    97    1
    17    64    63    2
    18    73    70    1
    19    58    57    1
    20    58    59    1
    21     5     6    1
    22    63    62    1
    23    63    69   am
    24    62    65    1
    25    18    16    1
    26    48    47    2
    27    60    59    1
    28   101   102    2
    29   101   100    1
    30     8     9    1
    31    17    16    1
    32    16    15    2
    33    69    70    1
    34    99   100    1
    35    70    71    1
    36    65    66    1
    37    12     9    1
    38    12    13    1
    39    47    46    1
    40    15    14    1
    41    66    67    1
    42   100   103    1
    43     9    10    1
    44    14    13    1
    45    71    72    2
    46    71    74   am
    47   103   104    1
    48    67    68    1
    49    45    46    1
    50    11    10    2
    51    46    49    1
    52    10    19   am
    53    74    75    1
    54   106   104   ar
    55   106   108   ar
    56    49    50    1
    57    49    51    1
    58   104   105   ar
    59   108   109   ar
    60    75    76    1
    61    19    20    1
    62   105   107   ar
    63   109   107   ar
    64   109   110    1
    65    20    23    1
    66    20    21    1
    67    76    77    2
    68    76    78   am
    69    89    90    2
    70    89    88    1
    71    78    79    1
    72    29    28    1
    73    21    22    2
    74    21    24   am
    75    81    80    2
    76    28    30    1
    77    28    25    1
    78    92    91    1
    79    24    25    1
    80    88    91    1
    81    88    87    1
    82    80    82   am
    83    80    79    1
    84    83    82    1
    85    83    86    1
    86    83    84    1
    87    85    84    2
    88    25    26    1
    89    39    38    2
    90    26    27    2
    91    26    31   am
    92    40    41    1
    93    42    43    2
    94    42    41    1
    95    31    32    1
    96    41    44    1
    97    38    37    1
    98    36    37    1
    99    36    33   am
   100    32    33    1
   101    32    35    1
   102    33    34    2
