@<TRIPOS>MOLECULE
tmp/5l62K00.pdb
 134 127 0 0 0
SMALL
GASTEIGER

@<TRIPOS>ATOM
      1  N         11.5210 -140.2160   10.5700 N.3     1  THR1       -0.1218
      2  CA        11.0830 -139.4130    9.3990 C.3     1  THR1        0.1862
      3  C         11.5950 -139.5710    7.9890 C.2     1  THR1        0.2287
      4  O         12.6450 -140.1010    7.7520 O.2     1  THR1       -0.2866
      5  CB        11.5920 -137.9970    9.7100 C.3     1  THR1        0.1770
      6  OG1       10.9220 -137.6720   10.8340 O.3     1  THR1       -0.2211
      7  CG2       11.3160 -136.8580    8.7510 C.3     1  THR1        0.0375
      8  N          4.8740 -138.9960   10.6260 N.3    19  ARG19      -0.1231
      9  CA         5.0170 -139.8980   11.7660 C.3    19  ARG19       0.1694
     10  C          5.9590 -139.3330   12.8200 C.2    19  ARG19       0.2592
     11  O          7.0160 -138.7970   12.4940 O.2    19  ARG19      -0.2718
     12  CB         5.5200 -141.2660   11.3190 C.3    19  ARG19       0.0321
     13  CG         5.5730 -142.2790   12.4520 C.3    19  ARG19       0.0489
     14  CD         5.6920 -143.7010   11.9370 C.3    19  ARG19       0.2205
     15  NE         4.4840 -144.1300   11.2340 N.pl3  19  ARG19      -0.0865
     16  CZ         4.2890 -145.3490   10.7370 C.cat  19  ARG19       0.5346
     17  NH1        5.2220 -146.2860   10.8560 N.pl3  19  ARG19       0.1354
     18  NH2        3.1500 -145.6320   10.1140 N.pl3  19  ARG19       0.1354
     19  N          5.5590 -139.4580   14.0830 N.am   20  ALA20      -0.1966
     20  CA         6.4140 -139.1160   15.2130 C.3    20  ALA20       0.1728
     21  C          6.6030 -140.3590   16.0640 C.2    20  ALA20       0.2617
     22  O          5.6530 -141.1020   16.3120 O.2    20  ALA20      -0.2715
     23  CB         5.8050 -137.9990   16.0390 C.3    20  ALA20       0.0334
     24  N          7.8320 -140.5670   16.5210 N.am   21  THR21      -0.1937
     25  CA         8.2170 -141.8140   17.1640 C.3    21  THR21       0.2028
     26  C          8.8250 -141.5790   18.5440 C.2    21  THR21       0.2642
     27  O          9.5280 -140.5970   18.7610 O.2    21  THR21      -0.2714
     28  CB         9.1900 -142.5960   16.2480 C.3    21  THR21       0.1808
     29  OG1        8.4830 -143.6750   15.6240 O.3    21  THR21      -0.2208
     30  CG2       10.4040 -143.1510   17.0130 C.3    21  THR21       0.0379
     31  N          8.5360 -142.4960   19.4630 N.am   22  ALA22      -0.1963
     32  CA         9.1590 -142.5240   20.7820 C.3    22  ALA22       0.1728
     33  C          9.5920 -143.9640   21.0500 C.2    22  ALA22       0.2616
     34  O          8.9040 -144.7200   21.7400 O.2    22  ALA22      -0.2715
     35  CB         8.1870 -142.0360   21.8450 C.3    22  ALA22       0.0334
     36  N         10.7360 -144.3350   20.4790 N.am   23  GLY23      -0.1955
     37  CA        11.1970 -145.7190   20.4930 C.3    23  GLY23       0.1869
     38  C         10.4640 -146.5110   19.4240 C.2    23  GLY23       0.2309
     39  O         10.4430 -146.1140   18.2610 O.2    23  GLY23      -0.2863
     40  N          4.1110 -142.1680   18.6060 N.3    27  ALA27      -0.1231
     41  CA         3.5330 -141.1140   19.4360 C.3    27  ALA27       0.1694
     42  C          2.4220 -140.3940   18.6910 C.2    27  ALA27       0.2592
     43  O          1.3140 -140.2450   19.2060 O.2    27  ALA27      -0.2718
     44  CB         4.6060 -140.1210   19.8610 C.3    27  ALA27       0.0304
     45  N          2.7270 -139.9520   17.4760 N.am   28  SER28      -0.1952
     46  CA         1.7700 -139.2220   16.6520 C.3    28  SER28       0.1924
     47  C          1.8250 -139.6870   15.2060 C.2    28  SER28       0.2314
     48  O          2.7770 -140.3410   14.7810 O.2    28  SER28      -0.2863
     49  CB         2.0460 -137.7190   16.7150 C.3    28  SER28       0.2116
     50  OG         1.0560 -136.9890   16.0100 O.3    28  SER28      -0.2180
     51  N          1.7510 -135.0490   12.4510 N.3    31  VAL31      -0.1231
     52  CA         2.6100 -133.9210   12.6950 C.3    31  VAL31       0.1692
     53  C          3.0360 -133.1510   11.4770 C.2    31  VAL31       0.2592
     54  O          3.2480 -133.7280   10.4440 O.2    31  VAL31      -0.2718
     55  CB         3.8760 -134.3360   13.4530 C.3    31  VAL31       0.0266
     56  CG1        3.6450 -134.2540   14.9280 C.3    31  VAL31       0.0020
     57  CG2        4.3000 -135.7280   13.1020 C.3    31  VAL31       0.0020
     58  N          3.1520 -131.8340   11.6250 N.am   32  LYS32      -0.1966
     59  CA         3.6550 -130.9710   10.5640 C.3    32  LYS32       0.1728
     60  C          5.1670 -130.8840   10.6740 C.2    32  LYS32       0.2616
     61  O          5.6980 -130.3610   11.6530 O.2    32  LYS32      -0.2715
     62  CB         3.0420 -129.5700   10.6440 C.3    32  LYS32       0.0311
     63  CG         1.5990 -129.5060   10.1630 C.3    32  LYS32       0.0038
     64  CD         1.3060 -128.2130    9.4090 C.3    32  LYS32       0.0206
     65  CE        -0.0440 -128.2720    8.7000 C.3    32  LYS32       0.1093
     66  NZ         0.0030 -129.0440    7.4210 N.3    32  LYS32      -0.1314
     67  N          5.8520 -131.4190    9.6690 N.am   33  LYS33      -0.1977
     68  CA         7.3090 -131.3730    9.6040 C.3    33  LYS33       0.1596
     69  C          7.7860 -130.2930    8.6460 C.2    33  LYS33       0.2287
     70  O          8.9860 -130.1250    8.4370 O.2    33  LYS33      -0.2864
     71  CB         7.8450 -132.7320    9.1830 C.3    33  LYS33       0.0298
     72  CG         7.6560 -133.7770   10.2600 C.3    33  LYS33       0.0038
     73  CD         7.7810 -135.1740    9.7030 C.3    33  LYS33       0.0206
     74  CE         7.6660 -136.1990   10.8100 C.3    33  LYS33       0.1093
     75  NZ         8.0190 -137.5450   10.3060 N.3    33  LYS33      -0.1314
     76  N         11.5960 -130.3470    8.9480 N.3    45  MET45      -0.1230
     77  CA        11.9960 -130.8460   10.2580 C.3    45  MET45       0.1702
     78  C         12.3570 -132.3240   10.1890 C.2    45  MET45       0.2592
     79  O         11.6000 -133.1320    9.6520 O.2    45  MET45      -0.2718
     80  CB        10.8590 -130.6690   11.2580 C.3    45  MET45       0.0401
     81  CG        10.3650 -129.2420   11.4160 C.3    45  MET45       0.0596
     82  SD         9.2450 -129.1150   12.8220 S.3    45  MET45      -0.1393
     83  CE         8.7950 -127.3880   12.7670 C.3    45  MET45       0.0692
     84  N         13.5160 -132.6670   10.7420 N.am   46  ALA46      -0.1966
     85  CA        13.9390 -134.0590   10.8690 C.3    46  ALA46       0.1728
     86  C         14.8770 -134.1860   12.0590 C.2    46  ALA46       0.2617
     87  O         15.7300 -133.3250   12.2800 O.2    46  ALA46      -0.2715
     88  CB        14.6240 -134.5320    9.5990 C.3    46  ALA46       0.0334
     89  N         14.7110 -135.2590   12.8250 N.am   47  GLY47      -0.1940
     90  CA        15.4770 -135.4590   14.0500 C.3    47  GLY47       0.2014
     91  C         14.6750 -134.9780   15.2420 C.2    47  GLY47       0.2639
     92  O         13.5100 -135.3510   15.4020 O.2    47  GLY47      -0.2714
     93  N         15.2930 -134.1410   16.0730 N.am   48  GLY48      -0.1939
     94  CA        14.6340 -133.5930   17.2550 C.3    48  GLY48       0.2014
     95  C         13.4940 -132.6650   16.8760 C.2    48  GLY48       0.2639
     96  O         13.7180 -131.6100   16.2790 O.2    48  GLY48      -0.2714
     97  N         12.2710 -133.0680   17.2140 N.am   49  ALA49      -0.1963
     98  CA        11.0680 -132.2890   16.9020 C.3    49  ALA49       0.1728
     99  C         11.1040 -130.9120   17.5610 C.2    49  ALA49       0.2616
    100  O         10.8300 -129.8980   16.9160 O.2    49  ALA49      -0.2715
    101  CB         9.8260 -133.0450   17.3460 C.3    49  ALA49       0.0334
    102  N         11.4390 -130.8920   18.8490 N.am   50  ALA50      -0.1977
    103  CA        11.5320 -129.6510   19.6160 C.3    50  ALA50       0.1597
    104  C         12.6250 -128.7340   19.0770 C.2    50  ALA50       0.2287
    105  O         12.4030 -127.5360   18.8960 O.2    50  ALA50      -0.2864
    106  CB        11.7850 -129.9610   21.0820 C.3    50  ALA50       0.0319
    107  N         19.8500 -132.0170   17.6880 N.3    96  SER96      -0.1217
    108  CA        19.6200 -132.9800   16.6210 C.3    96  SER96       0.1889
    109  C         18.6320 -132.3840   15.6250 C.2    96  SER96       0.2288
    110  O         17.4180 -132.4280   15.8350 O.2    96  SER96      -0.2866
    111  CB        19.0850 -134.2940   17.1980 C.3    96  SER96       0.2089
    112  OG        18.9980 -135.2890   16.1950 O.3    96  SER96      -0.2183
    113  N         16.3440 -137.7150    6.8440 N.3   129  GLY129     -0.1210
    114  CA        15.5310 -138.5330    7.7330 C.3   129  GLY129      0.1956
    115  C         15.9120 -139.9990    7.6150 C.2   129  GLY129      0.2612
    116  O         16.6520 -140.3890    6.7080 O.2   129  GLY129     -0.2717
    117  N         15.3950 -140.8110    8.5310 N.am  130  SER130     -0.1952
    118  CA        15.6600 -142.2500    8.5450 C.3   130  SER130      0.1924
    119  C         15.2560 -142.9470    7.2410 C.2   130  SER130      0.2314
    120  O         15.8620 -143.9490    6.8580 O.2   130  SER130     -0.2863
    121  CB        14.9380 -142.9090    9.7250 C.3   130  SER130      0.2116
    122  OG        13.5600 -142.5730    9.7360 O.3   130  SER130     -0.2180
    123  N          9.9500 -146.2230   10.8360 N.3   169  TYR169     -0.1241
    124  CA         9.8370 -144.9330   11.5180 C.3   169  TYR169      0.1605
    125  C          9.3620 -143.8040   10.5980 C.2   169  TYR169      0.2264
    126  O          9.4580 -142.6340   10.9510 O.2   169  TYR169     -0.2867
    127  CB        11.1790 -144.5790   12.1680 C.3   169  TYR169      0.0534
    128  CG        11.6220 -145.6330   13.1510 C.ar  169  TYR169     -0.0201
    129  CD1       10.9340 -145.8230   14.3410 C.ar  169  TYR169     -0.0009
    130  CD2       12.7080 -146.4600   12.8810 C.ar  169  TYR169     -0.0009
    131  CE1       11.3200 -146.7960   15.2440 C.ar  169  TYR169      0.0417
    132  CE2       13.1020 -147.4360   13.7820 C.ar  169  TYR169      0.0417
    133  CZ        12.4030 -147.5990   14.9610 C.ar  169  TYR169      0.1957
    134  OH        12.7830 -148.5640   15.8610 O.3   169  TYR169     -0.2866
@<TRIPOS>BOND
     1   116   115    2
     2   113   114    1
     3   120   119    2
     4   119   118    1
     5    66    65    1
     6   115   114    1
     7   115   117   am
     8     4     3    2
     9     3     2    1
    10    70    69    2
    11   117   118    1
    12   118   121    1
    13    69    68    1
    14    65    64    1
    15     7     5    1
    16    76    77    1
    17    71    68    1
    18    71    72    1
    19     2     5    1
    20     2     1    1
    21    64    63    1
    22    88    85    1
    23    68    67    1
    24    79    78    2
    25    67    60   am
    26    73    72    1
    27    73    74    1
    28     5     6    1
    29   121   122    1
    30    18    16    1
    31    63    62    1
    32    78    77    1
    33    78    84   am
    34    77    80    1
    35    75    74    1
    36    54    53    2
    37    59    62    1
    38    59    60    1
    39    59    58    1
    40   125   126    2
    41   125   124    1
    42     8     9    1
    43    60    61    2
    44    16    17    1
    45    16    15    2
    46    84    85    1
    47   123   124    1
    48    85    86    1
    49    15    14    1
    50    80    81    1
    51    12     9    1
    52    12    13    1
    53    81    82    1
    54    53    58   am
    55    53    52    1
    56   124   127    1
    57     9    10    1
    58    14    13    1
    59    86    87    2
    60    86    89   am
    61   127   128    1
    62    51    52    1
    63    11    10    2
    64    52    55    1
    65    83    82    1
    66    10    19   am
    67    89    90    1
    68   130   128   ar
    69   130   132   ar
    70    57    55    1
    71   128   129   ar
    72    55    56    1
    73   132   133   ar
    74    90    91    1
    75    19    20    1
    76   129   131   ar
    77    48    47    2
    78   133   131   ar
    79   133   134    1
    80    47    46    1
    81    20    23    1
    82    20    21    1
    83    91    92    2
    84    91    93   am
    85    29    28    1
    86   109   110    2
    87   109   108    1
    88    50    49    1
    89    21    22    2
    90    21    24   am
    91    93    94    1
    92   112   111    1
    93    28    30    1
    94    28    25    1
    95    96    95    2
    96    24    25    1
    97   108   111    1
    98   108   107    1
    99    46    49    1
   100    46    45    1
   101    95    97   am
   102    95    94    1
   103    98    97    1
   104    98   101    1
   105    98    99    1
   106   100    99    2
   107    25    26    1
   108    45    42   am
   109    99   102   am
   110    39    38    2
   111    26    27    2
   112    26    31   am
   113    40    41    1
   114    42    43    2
   115    42    41    1
   116   102   103    1
   117   105   104    2
   118   104   103    1
   119    38    37    1
   120    41    44    1
   121    31    32    1
   122   103   106    1
   123    36    37    1
   124    36    33   am
   125    32    33    1
   126    32    35    1
   127    33    34    2
