@<TRIPOS>MOLECULE
tmp/5l69Y00.pdb
 148 140 0 0 0
SMALL
GASTEIGER

@<TRIPOS>ATOM
      1  N         56.8550 -152.0550    8.9090 N.3     1  THR1       -0.1218
      2  CA        57.1570 -152.6460    7.5890 C.3     1  THR1        0.1862
      3  C         56.5190 -152.2400    6.3010 C.2     1  THR1        0.2287
      4  O         55.4290 -151.7480    6.2560 O.2     1  THR1       -0.2866
      5  CB        56.6450 -154.1040    7.6490 C.3     1  THR1        0.1770
      6  OG1       57.3250 -154.6670    8.6760 O.3     1  THR1       -0.2211
      7  CG2       56.9030 -155.0330    6.4660 C.3     1  THR1        0.0375
      8  N         63.2890 -153.2700    8.5070 N.3    19  ARG19      -0.1231
      9  CA        63.1960 -152.5920    9.7960 C.3    19  ARG19       0.1694
     10  C         62.3470 -153.3850   10.7830 C.2    19  ARG19       0.2592
     11  O         61.4310 -154.1070   10.3900 O.2    19  ARG19      -0.2718
     12  CB        62.6130 -151.1880    9.6240 C.3    19  ARG19       0.0321
     13  CG        62.5240 -150.3920   10.9170 C.3    19  ARG19       0.0489
     14  CD        62.4400 -148.9000   10.6520 C.3    19  ARG19       0.2205
     15  NE        63.7220 -148.3520   10.2120 N.pl3  19  ARG19      -0.0865
     16  CZ        63.9290 -147.0790    9.8800 C.cat  19  ARG19       0.5346
     17  NH1       62.9380 -146.1950    9.9330 N.pl3  19  ARG19       0.1354
     18  NH2       65.1360 -146.6870    9.4910 N.pl3  19  ARG19       0.1354
     19  N         62.6720 -153.2490   12.0660 N.am   20  ALA20      -0.1966
     20  CA        61.8630 -153.8080   13.1420 C.3    20  ALA20       0.1728
     21  C         61.7810 -152.7870   14.2620 C.2    20  ALA20       0.2617
     22  O         62.7920 -152.1920   14.6370 O.2    20  ALA20      -0.2715
     23  CB        62.4630 -155.1040   13.6520 C.3    20  ALA20       0.0334
     24  N         60.5770 -152.5890   14.7910 N.am   21  THR21      -0.1937
     25  CA        60.3520 -151.5890   15.8300 C.3    21  THR21       0.2028
     26  C         59.7020 -152.1620   17.0800 C.2    21  THR21       0.2642
     27  O         58.9900 -153.1630   17.0300 O.2    21  THR21      -0.2714
     28  CB        59.4830 -150.4230   15.3190 C.3    21  THR21       0.1808
     29  OG1       58.3720 -150.9320   14.5670 O.3    21  THR21      -0.2208
     30  CG2       60.3100 -149.4970   14.4450 C.3    21  THR21       0.0379
     31  N         59.9800 -151.5050   18.1990 N.am   22  ALA22      -0.1963
     32  CA        59.3560 -151.7950   19.4780 C.3    22  ALA22       0.1728
     33  C         58.9320 -150.4420   20.0390 C.2    22  ALA22       0.2616
     34  O         59.6630 -149.8120   20.8050 O.2    22  ALA22      -0.2715
     35  CB        60.3360 -152.4960   20.4060 C.3    22  ALA22       0.0334
     36  N         57.7530 -149.9940   19.6190 N.am   23  GLY23      -0.1955
     37  CA        57.3070 -148.6300   19.8790 C.3    23  GLY23       0.1869
     38  C         57.9580 -147.7070   18.8670 C.2    23  GLY23       0.2309
     39  O         57.9330 -147.9870   17.6680 O.2    23  GLY23      -0.2863
     40  N         64.2800 -151.5420   16.9450 N.3    27  SER27      -0.1202
     41  CA        64.8940 -152.7080   17.5690 C.3    27  SER27       0.2020
     42  C         65.8870 -153.3910   16.6320 C.2    27  SER27       0.2619
     43  O         66.9430 -153.8340   17.0760 O.2    27  SER27      -0.2717
     44  CB        63.8250 -153.7010   18.0350 C.3    27  SER27       0.2103
     45  OG        62.9860 -154.0940   16.9640 O.3    27  SER27      -0.2182
     46  N         65.5600 -153.4660   15.3430 N.am   28  SER28      -0.1951
     47  CA        66.4610 -154.0810   14.3640 C.3    28  SER28       0.1924
     48  C         66.6060 -153.2380   13.1000 C.2    28  SER28       0.2314
     49  O         65.6350 -152.6780   12.5950 O.2    28  SER28      -0.2863
     50  CB        65.9860 -155.4870   13.9920 C.3    28  SER28       0.2116
     51  OG        67.0130 -156.2160   13.3420 O.3    28  SER28      -0.2180
     52  N         66.2810 -157.1020    9.5110 N.3    31  MET31      -0.1230
     53  CA        65.5770 -158.3470    9.7990 C.3    31  MET31       0.1702
     54  C         65.0180 -158.9470    8.5100 C.2    31  MET31       0.2592
     55  O         64.4420 -158.2380    7.6890 O.2    31  MET31      -0.2718
     56  CB        64.4630 -158.0970   10.8140 C.3    31  MET31       0.0401
     57  CG        64.1960 -159.2850   11.7190 C.3    31  MET31       0.0596
     58  SD        63.9780 -158.7990   13.4360 S.3    31  MET31      -0.1393
     59  CE        63.8860 -160.4160   14.1840 C.3    31  MET31       0.0692
     60  N         65.2030 -160.2540    8.3400 N.am   32  ASN32      -0.1960
     61  CA        64.7830 -160.9700    7.1260 C.3    32  ASN32       0.1819
     62  C         63.2780 -161.2180    7.1910 C.2    32  ASN32       0.2621
     63  O         62.7900 -161.9170    8.0830 O.2    32  ASN32      -0.2715
     64  CB        65.5750 -162.2940    7.0500 C.3    32  ASN32       0.1195
     65  CG        65.3760 -163.1220    5.7670 C.2    32  ASN32       0.2630
     66  OD1       65.2550 -164.2700    5.8450 O.2    32  ASN32      -0.2716
     67  ND2       65.4120 -162.5860    4.6920 N.am   32  ASN32      -0.0877
     68  N         62.5500 -160.6110    6.2570 N.am   33  LYS33      -0.1977
     69  CA        61.0910 -160.6980    6.2130 C.3    33  LYS33       0.1596
     70  C         60.6100 -161.5530    5.0500 C.2    33  LYS33       0.2287
     71  O         59.4420 -161.4920    4.6620 O.2    33  LYS33      -0.2864
     72  CB        60.4980 -159.3020    6.1030 C.3    33  LYS33       0.0298
     73  CG        60.7880 -158.4510    7.3170 C.3    33  LYS33       0.0038
     74  CD        60.2720 -157.0460    7.1170 C.3    33  LYS33       0.0206
     75  CE        60.5040 -156.2200    8.3630 C.3    33  LYS33       0.1093
     76  NZ        60.2330 -154.7820    8.1360 N.3    33  LYS33      -0.1314
     77  N         56.6260 -161.2600    5.2770 N.3    45  MET45      -0.1230
     78  CA        56.2530 -161.1090    6.6800 C.3    45  MET45       0.1702
     79  C         55.8970 -159.6650    7.0150 C.2    45  MET45       0.2593
     80  O         56.6420 -158.7420    6.6870 O.2    45  MET45      -0.2718
     81  CB        57.3960 -161.5770    7.5800 C.3    45  MET45       0.0401
     82  CG        57.8030 -163.0230    7.3480 C.3    45  MET45       0.0596
     83  SD        59.0370 -163.6000    8.5270 S.3    45  MET45      -0.1393
     84  CE        59.3580 -165.2470    7.9030 C.3    45  MET45       0.0692
     85  N         54.7500 -159.4840    7.6650 N.am   46  SER46      -0.1938
     86  CA        54.3290 -158.1750    8.1570 C.3    46  SER46       0.2055
     87  C         53.4170 -158.3590    9.3660 C.2    46  SER46       0.2644
     88  O         52.5140 -159.1940    9.3450 O.2    46  SER46      -0.2714
     89  CB        53.6050 -157.3870    7.0600 C.3    46  SER46       0.2130
     90  OG        52.2470 -157.7810    6.9410 O.3    46  SER46      -0.2179
     91  N         53.6590 -157.5760   10.4140 N.am   47  GLY47      -0.1939
     92  CA        52.8920 -157.6760   11.6570 C.3    47  GLY47       0.2014
     93  C         53.7760 -158.1410   12.7960 C.2    47  GLY47       0.2639
     94  O         54.9180 -157.6950   12.9190 O.2    47  GLY47      -0.2714
     95  N         53.2540 -159.0390   13.6290 N.am   48  CYS48      -0.1953
     96  CA        54.0290 -159.5970   14.7340 C.3    48  CYS48       0.1843
     97  C         55.0910 -160.5370   14.1750 C.2    48  CYS48       0.2625
     98  O         54.7680 -161.5300   13.5170 O.2    48  CYS48      -0.2714
     99  CB        53.1250 -160.3400   15.7220 C.3    48  CYS48       0.0997
    100  SG        53.9550 -160.8600   17.2420 S.3    48  CYS48      -0.0797
    101  N         56.3550 -160.2030   14.4240 N.am   49  ALA49      -0.1977
    102  CA        57.4900 -160.9770   13.9180 C.3    49  ALA49       0.1597
    103  C         57.4140 -162.4350   14.3570 C.2    49  ALA49       0.2287
    104  O         57.6290 -163.3420   13.5540 O.2    49  ALA49      -0.2864
    105  CB        58.7980 -160.3590   14.3880 C.3    49  ALA49       0.0319
    106  N         54.6750 -164.2510   12.4740 N.3    52  CYS52      -0.1221
    107  CA        55.1050 -164.4380   11.0910 C.3    52  CYS52       0.1808
    108  C         56.1030 -165.5890   10.9630 C.2    52  CYS52       0.2601
    109  O         55.9280 -166.4740   10.1290 O.2    52  CYS52      -0.2717
    110  CB        55.7100 -163.1490   10.5310 C.3    52  CYS52       0.0970
    111  SG        54.4930 -161.8510   10.2290 S.3    52  CYS52      -0.0800
    112  N         57.1350 -165.5860   11.8010 N.am   53  GLN53      -0.1979
    113  CA        58.1620 -166.6270   11.7480 C.3    53  GLN53       0.1601
    114  C         57.6130 -168.0090   12.0990 C.2    53  GLN53       0.2287
    115  O         57.8820 -168.9820   11.3990 O.2    53  GLN53      -0.2864
    116  CB        59.3300 -166.2910   12.6760 C.3    53  GLN53       0.0394
    117  CG        60.2200 -165.1710   12.1630 C.3    53  GLN53       0.0908
    118  CD        61.4600 -164.9650   13.0150 C.2    53  GLN53       0.2608
    119  OE1       61.7020 -165.7000   13.9730 O.2    53  GLN53      -0.2717
    120  NE2       62.2560 -163.9610   12.6640 N.am   53  GLN53      -0.0878
    121  N         48.7140 -161.4470   14.8010 N.3    96  SER96      -0.1217
    122  CA        48.9180 -160.3240   13.8940 C.3    96  SER96       0.1889
    123  C         49.9210 -160.7280   12.8200 C.2    96  SER96       0.2288
    124  O         51.1310 -160.7510   13.0550 O.2    96  SER96      -0.2866
    125  CB        49.4060 -159.0940   14.6670 C.3    96  SER96       0.2089
    126  OG        49.3850 -157.9360   13.8530 O.3    96  SER96      -0.2183
    127  N         51.8260 -153.9630    5.1410 N.3   129  GLY129     -0.1210
    128  CA        52.6070 -153.2440    6.1440 C.3   129  GLY129      0.1956
    129  C         52.1930 -151.7920    6.2900 C.2   129  GLY129      0.2612
    130  O         51.3280 -151.3030    5.5630 O.2   129  GLY129     -0.2717
    131  N         52.8270 -151.1060    7.2370 N.am  130  SER130     -0.1952
    132  CA        52.5420 -149.6950    7.5220 C.3   130  SER130      0.1924
    133  C         52.8120 -148.7630    6.3390 C.2   130  SER130      0.2314
    134  O         52.1860 -147.7080    6.2320 O.2   130  SER130     -0.2863
    135  CB        53.3550 -149.2240    8.7330 C.3   130  SER130      0.2116
    136  OG        54.6910 -149.7000    8.6730 O.3   130  SER130     -0.2180
    137  N         58.1430 -146.2150   10.2490 N.3   169  TYR169     -0.1241
    138  CA        58.2580 -147.6060   10.6840 C.3   169  TYR169      0.1605
    139  C         58.6330 -148.5570    9.5440 C.2   169  TYR169      0.2264
    140  O         58.3690 -149.7540    9.6200 O.2   169  TYR169     -0.2867
    141  CB        56.9480 -148.0370   11.3460 C.3   169  TYR169      0.0534
    142  CG        56.6220 -147.1860   12.5480 C.ar  169  TYR169     -0.0201
    143  CD1       57.2100 -147.4440   13.7800 C.ar  169  TYR169     -0.0009
    144  CD2       55.7530 -146.1040   12.4490 C.ar  169  TYR169     -0.0009
    145  CE1       56.9310 -146.6610   14.8840 C.ar  169  TYR169      0.0417
    146  CE2       55.4680 -145.3140   13.5500 C.ar  169  TYR169      0.0417
    147  CZ        56.0610 -145.5980   14.7650 C.ar  169  TYR169      0.1957
    148  OH        55.7870 -144.8210   15.8660 O.3   169  TYR169     -0.2866
@<TRIPOS>BOND
     1    71    70    2
     2    67    65   am
     3    70    69    1
     4   127   128    1
     5    77    78    1
     6   130   129    2
     7    65    66    2
     8    65    64    1
     9    72    69    1
    10    72    73    1
    11   128   129    1
    12    69    68    1
    13   134   133    2
    14     4     3    2
    15    68    62   am
    16   129   131   am
    17     3     2    1
    18   133   132    1
    19     7     5    1
    20    78    79    1
    21    78    81    1
    22    80    79    2
    23    90    89    1
    24    79    85   am
    25    64    61    1
    26    89    86    1
    27    74    73    1
    28    74    75    1
    29    61    62    1
    30    61    60    1
    31    62    63    2
    32   131   132    1
    33    82    81    1
    34    82    83    1
    35   132   135    1
    36     2     5    1
    37     2     1    1
    38     5     6    1
    39    85    86    1
    40    55    54    2
    41    84    83    1
    42    76    75    1
    43    86    87    1
    44    60    54   am
    45     8     9    1
    46    54    53    1
    47   136   135    1
    48    88    87    2
    49    87    91   am
    50    18    16    1
    51    52    53    1
    52   139   140    2
    53   139   138    1
    54    12     9    1
    55    12    13    1
    56     9    10    1
    57    53    56    1
    58    16    17    1
    59    16    15    2
    60   109   108    2
    61    15    14    1
    62   111   110    1
    63   137   138    1
    64    11    10    2
    65    91    92    1
    66   110   107    1
    67    14    13    1
    68   138   141    1
    69    10    19   am
    70    56    57    1
    71   108   107    1
    72   108   112   am
    73   107   106    1
    74   141   142    1
    75   115   114    2
    76    92    93    1
    77    57    58    1
    78   113   112    1
    79   113   114    1
    80   113   116    1
    81    19    20    1
    82   117   116    1
    83   117   118    1
    84   144   142   ar
    85   144   146   ar
    86   142   143   ar
    87    49    48    2
    88   120   118   am
    89    93    94    2
    90    93    95   am
    91   123   124    2
    92   123   122    1
    93   118   119    2
    94    48    47    1
    95    20    23    1
    96    20    21    1
    97    51    50    1
    98    58    59    1
    99    98    97    2
   100   146   147   ar
   101   104   103    2
   102    95    96    1
   103   143   145   ar
   104   126   125    1
   105   122   125    1
   106   122   121    1
   107   102   103    1
   108   102   105    1
   109   102   101    1
   110    50    47    1
   111    97   101   am
   112    97    96    1
   113    21    22    2
   114    21    24   am
   115    47    46    1
   116    30    28    1
   117    29    28    1
   118    96    99    1
   119   147   145   ar
   120   147   148    1
   121    24    25    1
   122    28    25    1
   123    46    42   am
   124    99   100    1
   125    25    26    1
   126    42    43    2
   127    42    41    1
   128    40    41    1
   129    45    44    1
   130    27    26    2
   131    26    31   am
   132    41    44    1
   133    39    38    2
   134    31    32    1
   135    38    37    1
   136    32    33    1
   137    32    35    1
   138    36    37    1
   139    36    33   am
   140    33    34    2
