@<TRIPOS>MOLECULE
tmp/5l6aL00.pdb
 98 97 0 0 0
SMALL
GASTEIGER

@<TRIPOS>ATOM
      1  N          4.8130 -135.1630   30.2100 N.3   108  TYR108     -0.1241
      2  CA         3.9860 -135.1030   29.0140 C.3   108  TYR108      0.1605
      3  C          2.7650 -134.2740   29.3550 C.2   108  TYR108      0.2264
      4  O          1.9680 -134.6530   30.2120 O.2   108  TYR108     -0.2867
      5  CB         3.6060 -136.5050   28.5400 C.3   108  TYR108      0.0534
      6  CG         4.7630 -137.1880   27.8530 C.ar  108  TYR108     -0.0201
      7  CD1        5.7040 -137.9120   28.5820 C.ar  108  TYR108     -0.0009
      8  CD2        4.9440 -137.0720   26.4770 C.ar  108  TYR108     -0.0009
      9  CE1        6.7800 -138.5210   27.9560 C.ar  108  TYR108      0.0417
     10  CE2        6.0140 -137.6790   25.8410 C.ar  108  TYR108      0.0417
     11  CZ         6.9300 -138.4000   26.5850 C.ar  108  TYR108      0.1957
     12  OH         7.9950 -139.0040   25.9610 O.3   108  TYR108     -0.2866
     13  N         -1.2310 -131.0660   22.6750 N.3   124  SER124     -0.1202
     14  CA        -0.3650 -132.0660   23.2780 C.3   124  SER124      0.2020
     15  C          1.0830 -131.6260   23.1710 C.2   124  SER124      0.2619
     16  O          1.4960 -131.1200   22.1310 O.2   124  SER124     -0.2717
     17  CB        -0.5290 -133.3880   22.5410 C.3   124  SER124      0.2103
     18  OG        -0.4910 -134.4690   23.4570 O.3   124  SER124     -0.2182
     19  N          1.8520 -131.8420   24.2360 N.am  125  PHE125     -0.1961
     20  CA         3.2640 -131.4550   24.2760 C.3   125  PHE125      0.1771
     21  C          4.1390 -132.6380   24.6530 C.2   125  PHE125      0.2620
     22  O          3.6940 -133.5570   25.3440 O.2   125  PHE125     -0.2715
     23  CB         3.5060 -130.3520   25.3100 C.3   125  PHE125      0.0574
     24  CG         2.6410 -129.1420   25.1280 C.ar  125  PHE125     -0.0200
     25  CD1        1.3010 -129.1710   25.4930 C.ar  125  PHE125     -0.0042
     26  CD2        3.1640 -127.9720   24.6090 C.ar  125  PHE125     -0.0042
     27  CE1        0.4980 -128.0620   25.3290 C.ar  125  PHE125     -0.0003
     28  CE2        2.3650 -126.8570   24.4420 C.ar  125  PHE125     -0.0003
     29  CZ         1.0300 -126.9020   24.8030 C.ar  125  PHE125     -0.0000
     30  N          5.3900 -132.5970   24.2020 N.am  126  ASP126     -0.1958
     31  CA         6.4140 -133.5040   24.6990 C.3   126  ASP126      0.1825
     32  C          7.2260 -132.7520   25.7610 C.2   126  ASP126      0.2464
     33  O          6.9940 -131.5610   25.9750 O.2   126  ASP126     -0.2730
     34  CB         7.2770 -134.0380   23.5450 C.3   126  ASP126      0.1450
     35  CG         8.3310 -133.0510   23.0660 C.2   126  ASP126      0.3671
     36  OD1        8.1900 -131.8320   23.2940 O.co2 126  ASP126     -0.2456
     37  OD2        9.3000 -133.5070   22.4260 O.co2 126  ASP126     -0.2456
     38  N          8.1590 -133.4410   26.4460 N.am  127  PRO127     -0.2715
     39  CA         8.9380 -132.8050   27.5150 C.3   127  PRO127      0.1536
     40  C          9.8000 -131.6050   27.1040 C.2   127  PRO127      0.2598
     41  O         10.0900 -130.7510   27.9470 O.2   127  PRO127     -0.2715
     42  CB         9.8260 -133.9480   28.0120 C.3   127  PRO127      0.0310
     43  CG         9.0200 -135.1690   27.7460 C.3   127  PRO127      0.0237
     44  CD         8.3850 -134.8980   26.4170 C.3   127  PRO127      0.0939
     45  N         10.1920 -131.5310   25.8340 N.am  128  VAL128     -0.1978
     46  CA        11.0800 -130.4550   25.3620 C.3   128  VAL128      0.1596
     47  C         10.3630 -129.3350   24.5980 C.2   128  VAL128      0.2287
     48  O         11.0020 -128.3570   24.2050 O.2   128  VAL128     -0.2864
     49  CB        12.2740 -130.9790   24.5190 C.3   128  VAL128      0.0276
     50  CG1       13.4970 -131.1690   25.4010 C.3   128  VAL128      0.0022
     51  CG2       11.9320 -132.2630   23.7740 C.3   128  VAL128      0.0022
     52  N          7.8100 -129.5860   21.8180 N.3   130  SER130     -0.1202
     53  CA         7.1190 -129.7930   20.5470 C.3   130  SER130      0.2020
     54  C          5.6510 -130.0020   20.8510 C.2   130  SER130      0.2619
     55  O          5.3040 -130.8110   21.7120 O.2   130  SER130     -0.2717
     56  CB         7.6570 -131.0010   19.7790 C.3   130  SER130      0.2103
     57  OG         7.3570 -132.2160   20.4380 O.3   130  SER130     -0.2182
     58  N          4.7930 -129.2640   20.1580 N.am  131  TYR131     -0.1961
     59  CA         3.3640 -129.3840   20.3790 C.3   131  TYR131      0.1771
     60  C          2.5840 -129.3630   19.0840 C.2   131  TYR131      0.2619
     61  O          3.1030 -129.0290   18.0190 O.2   131  TYR131     -0.2715
     62  CB         2.8620 -128.2850   21.3210 C.3   131  TYR131      0.0574
     63  CG         2.6070 -126.9400   20.6730 C.ar  131  TYR131     -0.0198
     64  CD1        3.5920 -125.9610   20.6540 C.ar  131  TYR131     -0.0009
     65  CD2        1.3730 -126.6390   20.1010 C.ar  131  TYR131     -0.0009
     66  CE1        3.3600 -124.7240   20.0780 C.ar  131  TYR131      0.0417
     67  CE2        1.1350 -125.4070   19.5160 C.ar  131  TYR131      0.0417
     68  CZ         2.1320 -124.4520   19.5070 C.ar  131  TYR131      0.1957
     69  OH         1.9040 -123.2240   18.9300 O.3   131  TYR131     -0.2866
     70  N          1.3300 -129.7590   19.1730 N.am  132  GLN132     -0.1977
     71  CA         0.4250 -129.7970   18.0380 C.3   132  GLN132      0.1601
     72  C         -1.0050 -129.9890   18.5130 C.2   132  GLN132      0.2287
     73  O         -1.2380 -130.6630   19.4830 O.2   132  GLN132     -0.2864
     74  CB         0.8570 -130.8700   17.0250 C.3   132  GLN132      0.0394
     75  CG        -0.1890 -131.8650   16.5480 C.3   132  GLN132      0.0908
     76  CD        -0.2970 -131.9580   15.0510 C.2   132  GLN132      0.2608
     77  OE1       -0.4900 -130.9750   14.3640 O.2   132  GLN132     -0.2717
     78  NE2       -0.2030 -133.1550   14.5430 N.am  132  GLN132     -0.0878
     79  N         -4.6490 -131.5210   18.5230 N.3   134  GLU134     -0.1245
     80  CA        -5.1920 -132.8080   18.1920 C.3   134  GLU134      0.1567
     81  C         -6.6320 -132.9400   18.6360 C.2   134  GLU134      0.2260
     82  O         -7.1610 -132.0970   19.3010 O.2   134  GLU134     -0.2867
     83  CB        -4.3840 -133.8630   18.9120 C.3   134  GLU134      0.0388
     84  CG        -3.3350 -134.5780   18.0920 C.3   134  GLU134      0.1160
     85  CD        -2.1240 -134.9100   18.9260 C.2   134  GLU134      0.3649
     86  OE1       -1.0170 -135.0380   18.3820 O.co2 134  GLU134     -0.2457
     87  OE2       -2.2840 -135.0250   20.1440 O.co2 134  GLU134     -0.2457
     88  N         -5.9980 -137.6220   22.6050 N.3   137  ARG137     -0.1245
     89  CA        -4.6970 -137.9380   23.1100 C.3   137  ARG137      0.1563
     90  C         -4.6320 -138.4440   24.5260 C.2   137  ARG137      0.2260
     91  O         -5.0810 -137.8150   25.4370 O.2   137  ARG137     -0.2867
     92  CB        -3.7910 -136.7270   22.9670 C.3   137  ARG137      0.0307
     93  CG        -2.4550 -136.8300   23.6640 C.3   137  ARG137      0.0489
     94  CD        -1.5980 -137.8680   23.0080 C.3   137  ARG137      0.2205
     95  NE        -1.2830 -137.4690   21.6600 N.pl3 137  ARG137     -0.0865
     96  CZ        -0.6330 -138.2170   20.7930 C.cat 137  ARG137      0.5346
     97  NH1       -0.2220 -139.4160   21.1200 N.pl3 137  ARG137      0.1354
     98  NH2       -0.3970 -137.7610   19.5930 N.pl3 137  ARG137      0.1354
@<TRIPOS>BOND
     1    77    76    2
     2    78    76   am
     3    76    75    1
     4    75    74    1
     5    74    71    1
     6    61    60    2
     7    71    72    1
     8    71    70    1
     9    84    83    1
    10    84    85    1
    11    80    79    1
    12    80    81    1
    13    80    83    1
    14    86    85   ar
    15    72    73    2
    16    81    82    2
    17    85    87   ar
    18    69    68    1
    19    60    70   am
    20    60    59    1
    21    68    67   ar
    22    68    66   ar
    23    67    65   ar
    24    98    96    1
    25    56    57    1
    26    56    53    1
    27    66    64   ar
    28    65    63   ar
    29    58    59    1
    30    58    54   am
    31    59    62    1
    32    53    54    1
    33    53    52    1
    34    64    63   ar
    35    63    62    1
    36    96    97    1
    37    96    95    2
    38    54    55    2
    39    95    94    1
    40    16    15    2
    41    37    35   ar
    42    17    14    1
    43    17    18    1
    44    88    89    1
    45    13    14    1
    46    92    89    1
    47    92    93    1
    48    94    93    1
    49    35    36   ar
    50    35    34    1
    51    89    90    1
    52    15    14    1
    53    15    19   am
    54    34    31    1
    55    51    49    1
    56    30    21   am
    57    30    31    1
    58    48    47    2
    59    19    20    1
    60    20    21    1
    61    20    23    1
    62    28    26   ar
    63    28    29   ar
    64    49    46    1
    65    49    50    1
    66    90    91    2
    67    47    46    1
    68    26    24   ar
    69    21    22    2
    70    31    32    1
    71    29    27   ar
    72    24    23    1
    73    24    25   ar
    74    27    25   ar
    75    46    45    1
    76    32    33    2
    77    32    38   am
    78    45    40   am
    79    10     8   ar
    80    10    11   ar
    81    12    11    1
    82    44    38    1
    83    44    43    1
    84    38    39    1
    85     8     6   ar
    86    11     9   ar
    87    40    39    1
    88    40    41    2
    89    39    42    1
    90    43    42    1
    91     6     5    1
    92     6     7   ar
    93     9     7   ar
    94     5     2    1
    95     2     3    1
    96     2     1    1
    97     3     4    2
