@<TRIPOS>MOLECULE
tmp/5l6cY00.pdb
 144 136 0 0 0
SMALL
GASTEIGER

@<TRIPOS>ATOM
      1  N         56.8970 -152.9650    8.9720 N.3     1  THR1       -0.1218
      2  CA        57.1870 -153.5300    7.6260 C.3     1  THR1        0.1862
      3  C         56.5210 -153.1500    6.3330 C.2     1  THR1        0.2287
      4  O         55.4160 -152.6660    6.2940 O.2     1  THR1       -0.2866
      5  CB        56.7080 -155.0070    7.6570 C.3     1  THR1        0.1770
      6  OG1       57.3850 -155.5510    8.6510 O.3     1  THR1       -0.2211
      7  CG2       57.0490 -155.9250    6.4890 C.3     1  THR1        0.0375
      8  N         63.2580 -154.1750    8.5190 N.3    19  ARG19      -0.1231
      9  CA        63.1530 -153.4840    9.8010 C.3    19  ARG19       0.1694
     10  C         62.2270 -154.2190   10.7620 C.2    19  ARG19       0.2592
     11  O         61.2370 -154.8210   10.3520 O.2    19  ARG19      -0.2718
     12  CB        62.6480 -152.0560    9.6060 C.3    19  ARG19       0.0321
     13  CG        62.6030 -151.2470   10.8940 C.3    19  ARG19       0.0489
     14  CD        62.4690 -149.7610   10.6170 C.3    19  ARG19       0.2205
     15  NE        63.7360 -149.1600   10.2010 N.pl3  19  ARG19      -0.0865
     16  CZ        63.8900 -147.8830    9.8570 C.cat  19  ARG19       0.5346
     17  NH1       62.8560 -147.0480    9.8710 N.pl3  19  ARG19       0.1354
     18  NH2       65.0860 -147.4350    9.4940 N.pl3  19  ARG19       0.1354
     19  N         62.5620 -154.1570   12.0460 N.am   20  ALA20      -0.1966
     20  CA        61.7180 -154.7000   13.1000 C.3    20  ALA20       0.1728
     21  C         61.6600 -153.6770   14.2230 C.2    20  ALA20       0.2617
     22  O         62.6900 -153.1300   14.6220 O.2    20  ALA20      -0.2715
     23  CB        62.2710 -156.0200   13.6070 C.3    20  ALA20       0.0334
     24  N         60.4560 -153.4100   14.7190 N.am   21  THR21      -0.1937
     25  CA        60.2680 -152.4130   15.7660 C.3    21  THR21       0.2028
     26  C         59.5540 -152.9610   16.9930 C.2    21  THR21       0.2642
     27  O         58.7030 -153.8500   16.9010 O.2    21  THR21      -0.2714
     28  CB        59.4850 -151.1880   15.2530 C.3    21  THR21       0.1808
     29  OG1       58.3310 -151.6180   14.5180 O.3    21  THR21      -0.2208
     30  CG2       60.3660 -150.3390   14.3600 C.3    21  THR21       0.0379
     31  N         59.9310 -152.4090   18.1410 N.am   22  ALA22      -0.1977
     32  CA        59.2870 -152.6820   19.4140 C.3    22  ALA22       0.1597
     33  C         58.8490 -151.3260   19.9590 C.2    22  ALA22       0.2287
     34  O         59.5550 -150.6990   20.7540 O.2    22  ALA22      -0.2864
     35  CB        60.2570 -153.3710   20.3600 C.3    22  ALA22       0.0319
     36  N         64.2460 -152.3320   16.9420 N.3    27  SER27      -0.1202
     37  CA        64.8540 -153.4880   17.5830 C.3    27  SER27       0.2020
     38  C         65.8270 -154.2030   16.6510 C.2    27  SER27       0.2619
     39  O         66.8380 -154.7260   17.1060 O.2    27  SER27      -0.2717
     40  CB        63.7760 -154.4570   18.0800 C.3    27  SER27       0.2103
     41  OG        62.9410 -154.8880   17.0210 O.3    27  SER27      -0.2182
     42  N         65.5330 -154.2190   15.3530 N.am   28  SER28      -0.1951
     43  CA        66.3960 -154.8960   14.3810 C.3    28  SER28       0.1924
     44  C         66.5460 -154.0870   13.0970 C.2    28  SER28       0.2314
     45  O         65.5630 -153.5920   12.5460 O.2    28  SER28      -0.2863
     46  CB        65.8470 -156.2870   14.0550 C.3    28  SER28       0.2116
     47  OG        66.8470 -157.1060   13.4740 O.3    28  SER28      -0.2180
     48  N         66.3290 -157.9100    9.4700 N.3    31  MET31      -0.1230
     49  CA        65.6310 -159.1480    9.7680 C.3    31  MET31       0.1702
     50  C         65.1070 -159.7810    8.4890 C.2    31  MET31       0.2592
     51  O         64.5450 -159.0950    7.6350 O.2    31  MET31      -0.2718
     52  CB        64.4880 -158.8900   10.7440 C.3    31  MET31       0.0401
     53  CG        64.0590 -160.1340   11.4990 C.3    31  MET31       0.0596
     54  SD        63.9570 -159.8840   13.2780 S.3    31  MET31      -0.1393
     55  CE        63.7720 -161.5880   13.7820 C.3    31  MET31       0.0692
     56  N         65.3040 -161.0900    8.3610 N.am   32  ASN32      -0.1960
     57  CA        64.8590 -161.8140    7.1800 C.3    32  ASN32       0.1819
     58  C         63.3500 -162.0200    7.2580 C.2    32  ASN32       0.2621
     59  O         62.8500 -162.6760    8.1750 O.2    32  ASN32      -0.2715
     60  CB        65.5910 -163.1600    7.0600 C.3    32  ASN32       0.1195
     61  CG        65.4550 -163.8100    5.6810 C.2    32  ASN32       0.2630
     62  OD1       65.7070 -165.0080    5.5460 O.2    32  ASN32      -0.2716
     63  ND2       65.0740 -163.0410    4.6560 N.am   32  ASN32      -0.0877
     64  N         62.6340 -161.4290    6.3050 N.am   33  LYS33      -0.1977
     65  CA        61.1760 -161.4870    6.2700 C.3    33  LYS33       0.1596
     66  C         60.6770 -162.3550    5.1360 C.2    33  LYS33       0.2287
     67  O         59.5030 -162.3010    4.7650 O.2    33  LYS33      -0.2864
     68  CB        60.6130 -160.0870    6.1260 C.3    33  LYS33       0.0298
     69  CG        60.8320 -159.2650    7.3670 C.3    33  LYS33       0.0038
     70  CD        60.3340 -157.8580    7.1710 C.3    33  LYS33       0.0206
     71  CE        60.5860 -157.0590    8.4260 C.3    33  LYS33       0.1093
     72  NZ        60.1170 -155.6660    8.2710 N.3    33  LYS33      -0.1314
     73  N         56.6830 -162.2560    5.2630 N.3    45  MET45      -0.1230
     74  CA        56.2860 -162.1190    6.6660 C.3    45  MET45       0.1702
     75  C         55.9360 -160.6800    7.0270 C.2    45  MET45       0.2593
     76  O         56.7380 -159.7670    6.8300 O.2    45  MET45      -0.2718
     77  CB        57.4080 -162.6030    7.5810 C.3    45  MET45       0.0401
     78  CG        57.8410 -164.0360    7.3260 C.3    45  MET45       0.0596
     79  SD        59.0880 -164.5890    8.5020 S.3    45  MET45      -0.1393
     80  CE        59.5070 -166.1750    7.7960 C.3    45  MET45       0.0692
     81  N         54.7340 -160.4920    7.5620 N.am   46  SER46      -0.1938
     82  CA        54.3070 -159.2000    8.0930 C.3    46  SER46       0.2055
     83  C         53.3790 -159.4360    9.2830 C.2    46  SER46       0.2644
     84  O         52.5290 -160.3270    9.2440 O.2    46  SER46      -0.2714
     85  CB        53.6070 -158.3680    7.0120 C.3    46  SER46       0.2130
     86  OG        52.2410 -158.7260    6.8700 O.3    46  SER46      -0.2179
     87  N         53.5530 -158.6420   10.3360 N.am   47  GLY47      -0.1939
     88  CA        52.7980 -158.8150   11.5790 C.3    47  GLY47       0.2014
     89  C         53.7200 -159.2780   12.6910 C.2    47  GLY47       0.2639
     90  O         54.8770 -158.8590   12.7570 O.2    47  GLY47      -0.2714
     91  N         53.2090 -160.1390   13.5680 N.am   48  CYS48      -0.1953
     92  CA        54.0140 -160.6950   14.6530 C.3    48  CYS48       0.1843
     93  C         55.0950 -161.5970   14.0620 C.2    48  CYS48       0.2625
     94  O         54.7890 -162.5470   13.3390 O.2    48  CYS48      -0.2714
     95  CB        53.1340 -161.4800   15.6300 C.3    48  CYS48       0.0997
     96  SG        53.9630 -162.0250   17.1420 S.3    48  CYS48      -0.0797
     97  N         56.3540 -161.2780   14.3600 N.am   49  ALA49      -0.1977
     98  CA        57.5010 -162.0180   13.8240 C.3    49  ALA49       0.1597
     99  C         57.4610 -163.4880   14.2270 C.2    49  ALA49       0.2287
    100  O         57.7040 -164.3690   13.4030 O.2    49  ALA49      -0.2864
    101  CB        58.8040 -161.3830   14.2920 C.3    49  ALA49       0.0319
    102  N         54.7700 -165.4120   12.3410 N.3    52  CYS52      -0.1221
    103  CA        55.1790 -165.6010   10.9520 C.3    52  CYS52       0.1808
    104  C         56.1970 -166.7330   10.8170 C.2    52  CYS52       0.2601
    105  O         56.0450 -167.6070    9.9650 O.2    52  CYS52      -0.2717
    106  CB        55.7400 -164.3000   10.3690 C.3    52  CYS52       0.0970
    107  SG        54.4740 -163.0650    9.9910 S.3    52  CYS52      -0.0800
    108  N         57.2210 -166.7220   11.6680 N.am   53  GLN53      -0.1979
    109  CA        58.2720 -167.7410   11.6180 C.3    53  GLN53       0.1601
    110  C         57.7450 -169.1310   11.9610 C.2    53  GLN53       0.2287
    111  O         58.0030 -170.0880   11.2350 O.2    53  GLN53      -0.2864
    112  CB        59.4230 -167.3930   12.5640 C.3    53  GLN53       0.0394
    113  CG        60.2790 -166.2270   12.1000 C.3    53  GLN53       0.0908
    114  CD        61.4970 -166.0070   12.9780 C.2    53  GLN53       0.2608
    115  OE1       61.7460 -166.7610   13.9210 O.2    53  GLN53      -0.2717
    116  NE2       62.2670 -164.9670   12.6700 N.am   53  GLN53      -0.0878
    117  N         48.7670 -162.5320   14.7300 N.3    96  SER96      -0.1217
    118  CA        48.9550 -161.4360   13.7900 C.3    96  SER96       0.1889
    119  C         49.9460 -161.8770   12.7230 C.2    96  SER96       0.2288
    120  O         51.1550 -161.9130   12.9560 O.2    96  SER96      -0.2866
    121  CB        49.4580 -160.1840   14.5120 C.3    96  SER96       0.2089
    122  OG        49.4770 -159.0670   13.6400 O.3    96  SER96      -0.2183
    123  N         51.8400 -154.9430    5.0800 N.3   129  GLY129     -0.1210
    124  CA        52.6100 -154.2190    6.0850 C.3   129  GLY129      0.1956
    125  C         52.2180 -152.7580    6.1880 C.2   129  GLY129      0.2612
    126  O         51.4140 -152.2610    5.3990 O.2   129  GLY129     -0.2717
    127  N         52.8060 -152.0710    7.1630 N.am  130  SER130     -0.1952
    128  CA        52.5100 -150.6610    7.4290 C.3   130  SER130      0.1924
    129  C         52.7920 -149.7340    6.2440 C.2   130  SER130      0.2314
    130  O         52.1690 -148.6790    6.1260 O.2   130  SER130     -0.2863
    131  CB        53.2960 -150.1750    8.6520 C.3   130  SER130      0.2116
    132  OG        54.6420 -150.6230    8.6090 O.3   130  SER130     -0.2180
    133  N         58.1120 -147.1330   10.1630 N.3   169  TYR169     -0.1241
    134  CA        58.2350 -148.5240   10.6050 C.3   169  TYR169      0.1605
    135  C         58.6520 -149.4740    9.4790 C.2   169  TYR169      0.2264
    136  O         58.4670 -150.6900    9.5760 O.2   169  TYR169     -0.2867
    137  CB        56.9200 -148.9650   11.2520 C.3   169  TYR169      0.0534
    138  CG        56.5670 -148.0810   12.4230 C.ar  169  TYR169     -0.0201
    139  CD1       57.2250 -148.2210   13.6380 C.ar  169  TYR169     -0.0009
    140  CD2       55.6140 -147.0750   12.3050 C.ar  169  TYR169     -0.0009
    141  CE1       56.9280 -147.4030   14.7120 C.ar  169  TYR169      0.0417
    142  CE2       55.3090 -146.2500   13.3760 C.ar  169  TYR169      0.0417
    143  CZ        55.9710 -146.4200   14.5760 C.ar  169  TYR169      0.1957
    144  OH        55.6800 -145.6100   15.6480 O.3   169  TYR169     -0.2866
@<TRIPOS>BOND
     1    63    61   am
     2    67    66    2
     3   123   124    1
     4    66    65    1
     5    73    74    1
     6   126   125    2
     7    62    61    2
     8    61    60    1
     9   124   125    1
    10    68    65    1
    11    68    69    1
    12   130   129    2
    13   125   127   am
    14   129   128    1
    15    65    64    1
    16     4     3    2
    17    64    58   am
    18     3     2    1
    19     7     5    1
    20    74    75    1
    21    74    77    1
    22    76    75    2
    23    86    85    1
    24    85    82    1
    25    75    81   am
    26    60    57    1
    27   127   128    1
    28    70    69    1
    29    70    71    1
    30    57    58    1
    31    57    56    1
    32    58    59    2
    33    78    77    1
    34    78    79    1
    35   128   131    1
    36    81    82    1
    37     2     5    1
    38     2     1    1
    39    51    50    2
    40     5     6    1
    41    80    79    1
    42    82    83    1
    43    72    71    1
    44    56    50   am
    45    50    49    1
    46     8     9    1
    47   132   131    1
    48    84    83    2
    49    83    87   am
    50    48    49    1
    51   135   136    2
    52   135   134    1
    53    18    16    1
    54    12     9    1
    55    12    13    1
    56    49    52    1
    57     9    10    1
    58    16    17    1
    59    16    15    2
    60   105   104    2
    61   107   106    1
    62   133   134    1
    63    15    14    1
    64    87    88    1
    65    11    10    2
    66   106   103    1
    67   134   137    1
    68    14    13    1
    69    52    53    1
    70    10    19   am
    71   104   103    1
    72   104   108   am
    73   103   102    1
    74   111   110    2
    75   137   138    1
    76    53    54    1
    77    88    89    1
    78   109   108    1
    79   109   110    1
    80   109   112    1
    81    19    20    1
    82   113   112    1
    83   113   114    1
    84   140   138   ar
    85   140   142   ar
    86   138   139   ar
    87    45    44    2
    88   116   114   am
    89    89    90    2
    90    89    91   am
    91   119   120    2
    92   119   118    1
    93   114   115    2
    94    44    43    1
    95    20    23    1
    96    20    21    1
    97    54    55    1
    98    94    93    2
    99   142   143   ar
   100   100    99    2
   101    47    46    1
   102    91    92    1
   103   139   141   ar
   104   122   121    1
   105   118   121    1
   106   118   117    1
   107    98    99    1
   108    98   101    1
   109    98    97    1
   110    46    43    1
   111    93    97   am
   112    93    92    1
   113    21    22    2
   114    21    24   am
   115    30    28    1
   116    43    42    1
   117    29    28    1
   118   143   141   ar
   119   143   144    1
   120    92    95    1
   121    24    25    1
   122    28    25    1
   123    42    38   am
   124    95    96    1
   125    25    26    1
   126    38    39    2
   127    38    37    1
   128    27    26    2
   129    36    37    1
   130    26    31   am
   131    41    40    1
   132    37    40    1
   133    31    32    1
   134    32    33    1
   135    32    35    1
   136    33    34    2
