@<TRIPOS>MOLECULE
tmp/5l6cL00.pdb
 109 107 0 0 0
SMALL
GASTEIGER

@<TRIPOS>ATOM
      1  N         15.8870 -126.7850   27.7500 N.3   101  ARG101     -0.1245
      2  CA        16.2770 -127.7710   26.7470 C.3   101  ARG101      0.1563
      3  C         17.4080 -128.6870   27.2370 C.2   101  ARG101      0.2260
      4  O         17.4450 -129.8690   26.8940 O.2   101  ARG101     -0.2867
      5  CB        16.6860 -127.0570   25.4530 C.3   101  ARG101      0.0307
      6  CG        17.2750 -127.9510   24.3730 C.3   101  ARG101      0.0489
      7  CD        16.3030 -129.0370   23.9430 C.3   101  ARG101      0.2205
      8  NE        16.8820 -129.9100   22.9270 N.pl3 101  ARG101     -0.0865
      9  CZ        17.7750 -130.8700   23.1610 C.cat 101  ARG101      0.5346
     10  NH1       18.2220 -131.1070   24.3920 N.pl3 101  ARG101      0.1354
     11  NH2       18.2320 -131.6000   22.1510 N.pl3 101  ARG101      0.1354
     12  N          5.0670 -135.0420   30.2500 N.3   108  TYR108     -0.1241
     13  CA         4.2790 -135.0020   29.0290 C.3   108  TYR108      0.1605
     14  C          3.0360 -134.1890   29.3160 C.2   108  TYR108      0.2264
     15  O          2.1820 -134.5920   30.1070 O.2   108  TYR108     -0.2867
     16  CB         3.9370 -136.4110   28.5580 C.3   108  TYR108      0.0534
     17  CG         5.1360 -137.0770   27.9400 C.ar  108  TYR108     -0.0201
     18  CD1        6.0290 -137.8100   28.7190 C.ar  108  TYR108     -0.0009
     19  CD2        5.4110 -136.9320   26.5860 C.ar  108  TYR108     -0.0009
     20  CE1        7.1460 -138.4050   28.1560 C.ar  108  TYR108      0.0417
     21  CE2        6.5230 -137.5250   26.0170 C.ar  108  TYR108      0.0417
     22  CZ         7.3870 -138.2580   26.8030 C.ar  108  TYR108      0.1957
     23  OH         8.4930 -138.8440   26.2340 O.3   108  TYR108     -0.2866
     24  N         -0.9020 -130.9900   22.7060 N.3   124  SER124     -0.1202
     25  CA        -0.0730 -131.9880   23.3640 C.3   124  SER124      0.2020
     26  C          1.4030 -131.6640   23.1850 C.2   124  SER124      0.2619
     27  O          1.8260 -131.2620   22.1020 O.2   124  SER124     -0.2717
     28  CB        -0.3850 -133.3620   22.7900 C.3   124  SER124      0.2103
     29  OG         0.2230 -134.3740   23.5680 O.3   124  SER124     -0.2182
     30  N          2.1790 -131.8510   24.2520 N.am  125  PHE125     -0.1961
     31  CA         3.5890 -131.4570   24.2840 C.3   125  PHE125      0.1771
     32  C          4.4850 -132.6280   24.6630 C.2   125  PHE125      0.2620
     33  O          4.0570 -133.5430   25.3710 O.2   125  PHE125     -0.2715
     34  CB         3.8130 -130.3420   25.3110 C.3   125  PHE125      0.0574
     35  CG         2.9340 -129.1410   25.1150 C.ar  125  PHE125     -0.0200
     36  CD1        1.5930 -129.1770   25.4740 C.ar  125  PHE125     -0.0042
     37  CD2        3.4520 -127.9650   24.5970 C.ar  125  PHE125     -0.0042
     38  CE1        0.7820 -128.0740   25.2990 C.ar  125  PHE125     -0.0003
     39  CE2        2.6470 -126.8570   24.4190 C.ar  125  PHE125     -0.0003
     40  CZ         1.3090 -126.9110   24.7730 C.ar  125  PHE125     -0.0000
     41  N          5.7550 -132.5460   24.2920 N.am  126  ASP126     -0.1958
     42  CA         6.7480 -133.5160   24.7110 C.3   126  ASP126      0.1825
     43  C          7.5840 -132.7600   25.7430 C.2   126  ASP126      0.2464
     44  O          7.3550 -131.5880   25.9140 O.2   126  ASP126     -0.2730
     45  CB         7.5220 -134.1470   23.5560 C.3   126  ASP126      0.1450
     46  CG         8.5800 -133.2710   22.9900 C.2   126  ASP126      0.3671
     47  OD1        8.7380 -132.1250   23.3900 O.co2 126  ASP126     -0.2456
     48  OD2        9.2770 -133.7470   22.1070 O.co2 126  ASP126     -0.2456
     49  N          8.5150 -133.4030   26.4410 N.am  127  PRO127     -0.2715
     50  CA         9.2860 -132.7640   27.5160 C.3   127  PRO127      0.1536
     51  C         10.1190 -131.5490   27.1030 C.2   127  PRO127      0.2598
     52  O         10.2930 -130.6280   27.9060 O.2   127  PRO127     -0.2715
     53  CB        10.2040 -133.8930   27.9930 C.3   127  PRO127      0.0310
     54  CG         9.4220 -135.1270   27.7190 C.3   127  PRO127      0.0237
     55  CD         8.7660 -134.8550   26.3990 C.3   127  PRO127      0.0939
     56  N         10.6130 -131.5420   25.8670 N.am  128  VAL128     -0.1978
     57  CA        11.5020 -130.4660   25.3980 C.3   128  VAL128      0.1596
     58  C         10.7770 -129.3380   24.6510 C.2   128  VAL128      0.2287
     59  O         11.3930 -128.3220   24.3330 O.2   128  VAL128     -0.2864
     60  CB        12.7010 -130.9850   24.5550 C.3   128  VAL128      0.0276
     61  CG1       13.9110 -131.2050   25.4480 C.3   128  VAL128      0.0022
     62  CG2       12.3640 -132.2540   23.7800 C.3   128  VAL128      0.0022
     63  N          8.1410 -129.6280   21.8590 N.3   130  SER130     -0.1202
     64  CA         7.4190 -129.8210   20.6030 C.3   130  SER130      0.2020
     65  C          5.9480 -129.9410   20.9390 C.2   130  SER130      0.2619
     66  O          5.5850 -130.6430   21.8820 O.2   130  SER130     -0.2717
     67  CB         7.8770 -131.0710   19.8490 C.3   130  SER130      0.2103
     68  OG         7.5300 -132.2560   20.5400 O.3   130  SER130     -0.2182
     69  N          5.1060 -129.2430   20.1880 N.am  131  TYR131     -0.1961
     70  CA         3.6740 -129.3110   20.4220 C.3   131  TYR131      0.1771
     71  C          2.8820 -129.2810   19.1330 C.2   131  TYR131      0.2619
     72  O          3.3910 -128.9350   18.0670 O.2   131  TYR131     -0.2715
     73  CB         3.2160 -128.1970   21.3670 C.3   131  TYR131      0.0574
     74  CG         2.9390 -126.8610   20.7140 C.ar  131  TYR131     -0.0198
     75  CD1        3.9490 -125.9220   20.5540 C.ar  131  TYR131     -0.0009
     76  CD2        1.6590 -126.5280   20.2800 C.ar  131  TYR131     -0.0009
     77  CE1        3.6950 -124.6910   19.9730 C.ar  131  TYR131      0.0417
     78  CE2        1.3970 -125.3020   19.6910 C.ar  131  TYR131      0.0417
     79  CZ         2.4190 -124.3880   19.5390 C.ar  131  TYR131      0.1957
     80  OH         2.1690 -123.1670   18.9580 O.3   131  TYR131     -0.2866
     81  N          1.6340 -129.6840   19.2550 N.am  132  GLN132     -0.1977
     82  CA         0.7470 -129.7700   18.1370 C.3   132  GLN132      0.1601
     83  C         -0.6790 -129.9510   18.5890 C.2   132  GLN132      0.2287
     84  O         -0.9210 -130.5880   19.5760 O.2   132  GLN132     -0.2864
     85  CB         1.2280 -130.9280   17.2700 C.3   132  GLN132      0.0394
     86  CG         0.2380 -131.9760   16.8180 C.3   132  GLN132      0.0908
     87  CD         0.5470 -132.4570   15.4330 C.2   132  GLN132      0.2608
     88  OE1        1.5470 -132.0880   14.8520 O.2   132  GLN132     -0.2717
     89  NE2       -0.3160 -133.2690   14.8930 N.am  132  GLN132     -0.0878
     90  N         -4.3300 -131.5060   18.5860 N.3   134  GLU134     -0.1245
     91  CA        -4.8080 -132.8570   18.3480 C.3   134  GLU134      0.1567
     92  C         -6.2710 -132.9890   18.7230 C.2   134  GLU134      0.2260
     93  O         -6.8230 -132.1520   19.4350 O.2   134  GLU134     -0.2867
     94  CB        -3.9610 -133.8540   19.1410 C.3   134  GLU134      0.0388
     95  CG        -2.5600 -134.0220   18.5680 C.3   134  GLU134      0.1160
     96  CD        -1.6680 -134.9310   19.3900 C.2   134  GLU134      0.3649
     97  OE1       -0.7870 -135.5880   18.7950 O.co2 134  GLU134     -0.2457
     98  OE2       -1.8340 -134.9890   20.6260 O.co2 134  GLU134     -0.2457
     99  N         -5.6200 -137.5710   22.5450 N.3   137  ARG137     -0.1245
    100  CA        -4.2780 -137.8500   23.0530 C.3   137  ARG137      0.1563
    101  C         -4.2730 -138.4040   24.4730 C.2   137  ARG137      0.2260
    102  O         -4.7770 -137.7690   25.4000 O.2   137  ARG137     -0.2867
    103  CB        -3.4080 -136.5920   22.9980 C.3   137  ARG137      0.0307
    104  CG        -2.0590 -136.7140   23.7040 C.3   137  ARG137      0.0489
    105  CD        -1.1720 -137.7980   23.1050 C.3   137  ARG137      0.2205
    106  NE        -0.6130 -137.4080   21.8110 N.pl3 137  ARG137     -0.0865
    107  CZ         0.0830 -138.2130   21.0110 C.cat 137  ARG137      0.5346
    108  NH1        0.3190 -139.4770   21.3560 N.pl3 137  ARG137      0.1354
    109  NH2        0.5460 -137.7540   19.8510 N.pl3 137  ARG137      0.1354
@<TRIPOS>BOND
     1    88    87    2
     2    89    87   am
     3    87    86    1
     4    86    85    1
     5    85    82    1
     6    72    71    2
     7    82    83    1
     8    82    81    1
     9    91    90    1
    10    91    92    1
    11    91    94    1
    12    95    94    1
    13    95    96    1
    14    83    84    2
    15    92    93    2
    16    97    96   ar
    17    80    79    1
    18    71    81   am
    19    71    70    1
    20    96    98   ar
    21    79    78   ar
    22    79    77   ar
    23    78    76   ar
    24    67    68    1
    25    67    64    1
    26   109   107    1
    27    77    75   ar
    28    69    70    1
    29    69    65   am
    30    76    74   ar
    31    70    73    1
    32    75    74   ar
    33    64    65    1
    34    64    63    1
    35    74    73    1
    36    65    66    2
    37   107   108    1
    38   107   106    2
    39   106   105    1
    40    27    26    2
    41    48    46   ar
    42    11     9    1
    43    99   100    1
    44    24    25    1
    45    28    25    1
    46    28    29    1
    47     8     9    2
    48     8     7    1
    49    46    47   ar
    50    46    45    1
    51   103   100    1
    52   103   104    1
    53   100   101    1
    54   105   104    1
    55     9    10    1
    56    26    25    1
    57    26    30   am
    58    45    42    1
    59    62    60    1
    60     7     6    1
    61    30    31    1
    62    31    32    1
    63    31    34    1
    64    41    32   am
    65    41    42    1
    66    59    58    2
    67     6     5    1
    68    39    37   ar
    69    39    40   ar
    70   101   102    2
    71    60    57    1
    72    60    61    1
    73    37    35   ar
    74    58    57    1
    75    32    33    2
    76    42    43    1
    77    40    38   ar
    78    35    34    1
    79    35    36   ar
    80    38    36   ar
    81    57    56    1
    82     5     2    1
    83    43    44    2
    84    43    49   am
    85    56    51   am
    86    21    19   ar
    87    21    22   ar
    88    23    22    1
    89    55    49    1
    90    55    54    1
    91    49    50    1
    92    19    17   ar
    93     2     3    1
    94     2     1    1
    95    22    20   ar
    96     4     3    2
    97    51    50    1
    98    51    52    2
    99    50    53    1
   100    54    53    1
   101    17    16    1
   102    17    18   ar
   103    20    18   ar
   104    16    13    1
   105    13    14    1
   106    13    12    1
   107    14    15    2
