@<TRIPOS>MOLECULE
tmp/5l6fA07.pdb
 160 152 0 0 0
SMALL
GASTEIGER

@<TRIPOS>ATOM
      1  N         48.7210    8.4600   43.0900 N.3    72  TYR72      -0.1241
      2  CA        48.4230    8.2370   41.6880 C.3    72  TYR72       0.1605
      3  C         49.6190    8.4560   40.7580 C.2    72  TYR72       0.2264
      4  O         49.5950    8.0130   39.5950 O.2    72  TYR72      -0.2867
      5  CB        47.2580    9.1260   41.2540 C.3    72  TYR72       0.0534
      6  CG        45.8800    8.7300   41.7720 C.ar   72  TYR72      -0.0201
      7  CD1       45.7030    7.7090   42.7200 C.ar   72  TYR72      -0.0009
      8  CD2       44.7540    9.4160   41.3440 C.ar   72  TYR72      -0.0009
      9  CE1       44.4570    7.3600   43.1740 C.ar   72  TYR72       0.0417
     10  CE2       43.4880    9.0750   41.7970 C.ar   72  TYR72       0.0417
     11  CZ        43.3370    8.0550   42.7200 C.ar   72  TYR72       0.1957
     12  OH        42.0730    7.6820   43.1740 O.3    72  TYR72      -0.2866
     13  N         37.0940    6.9920   51.3800 N.3   130  THR130     -0.1203
     14  CA        36.6190    5.6620   51.1530 C.3   130  THR130      0.1994
     15  C         37.9060    4.9660   50.7460 C.2   130  THR130      0.2618
     16  O         38.8640    5.6110   50.3280 O.2   130  THR130     -0.2717
     17  CB        35.6320    5.6330   49.9540 C.3   130  THR130      0.1784
     18  OG1       36.3650    5.8740   48.7380 O.3   130  THR130     -0.2211
     19  CG2       34.5260    6.7220   50.0890 C.3   130  THR130      0.0376
     20  N         37.9690    3.6630   50.8050 N.am  131  CYS131     -0.1969
     21  CA        39.1710    3.0170   50.2880 C.3   131  CYS131      0.1712
     22  C         39.9870    2.5630   51.4920 C.2   131  CYS131      0.2296
     23  O         40.8250    3.3140   52.0210 O.2   131  CYS131     -0.2864
     24  CB        40.0350    3.9210   49.3710 C.3   131  CYS131      0.0983
     25  SG        39.4790    4.2620   47.6560 S.3   131  CYS131     -0.0798
     26  N         38.9380   13.4230   51.6080 N.3   145  PHE145     -0.1241
     27  CA        37.5140   13.6600   51.4450 C.3   145  PHE145      0.1605
     28  C         36.7390   12.3290   51.3260 C.2   145  PHE145      0.2264
     29  O         37.0850   11.4570   50.5180 O.2   145  PHE145     -0.2867
     30  CB        37.2560   14.5200   50.2050 C.3   145  PHE145      0.0534
     31  CG        35.8130   14.9540   50.0740 C.ar  145  PHE145     -0.0203
     32  CD1       34.8570   14.0990   49.5130 C.ar  145  PHE145     -0.0042
     33  CD2       35.4070   16.1960   50.5400 C.ar  145  PHE145     -0.0042
     34  CE1       33.5160   14.4860   49.4270 C.ar  145  PHE145     -0.0003
     35  CE2       34.0720   16.5910   50.4470 C.ar  145  PHE145     -0.0003
     36  CZ        33.1270   15.7310   49.9170 C.ar  145  PHE145     -0.0000
     37  N         27.7280   12.7370   46.2240 N.3   248  ARG248     -0.1245
     38  CA        28.5370   12.9710   45.0470 C.3   248  ARG248      0.1563
     39  C         27.8010   12.4640   43.8250 C.2   248  ARG248      0.2260
     40  O         26.9130   11.6060   43.9230 O.2   248  ARG248     -0.2867
     41  CB        29.8570   12.1930   45.1650 C.3   248  ARG248      0.0307
     42  CG        29.7120   10.6790   44.9820 C.3   248  ARG248      0.0489
     43  CD        30.9800    9.9340   45.3770 C.3   248  ARG248      0.2205
     44  NE        30.8950    8.4910   45.1640 N.pl3 248  ARG248     -0.0865
     45  CZ        31.8460    7.6380   45.5160 C.cat 248  ARG248      0.5346
     46  NH1       32.9500    8.0760   46.1300 N.pl3 248  ARG248      0.1354
     47  NH2       31.6970    6.3460   45.2910 N.pl3 248  ARG248      0.1354
     48  N         28.5110   10.2070   40.6750 N.3   250  LEU250     -0.1245
     49  CA        29.4070    9.2540   40.0320 C.3   250  LEU250      0.1561
     50  C         28.8930    9.0370   38.6170 C.2   250  LEU250      0.2260
     51  O         27.7790    8.5790   38.4270 O.2   250  LEU250     -0.2867
     52  CB        29.4420    7.9120   40.7750 C.3   250  LEU250      0.0270
     53  CG        30.2160    6.7900   40.0510 C.3   250  LEU250      0.0019
     54  CD1       31.6840    7.1880   39.9280 C.3   250  LEU250      0.0001
     55  CD2       30.0850    5.4440   40.7520 C.3   250  LEU250      0.0001
     56  N         29.9040    7.3840   34.6760 N.3   252  ASN252     -0.1240
     57  CA        30.7410    6.6380   33.7380 C.3   252  ASN252      0.1653
     58  C         29.9430    6.5750   32.4340 C.2   252  ASN252      0.2266
     59  O         28.8640    7.2040   32.3390 O.2   252  ASN252     -0.2867
     60  CB        31.1550    5.2670   34.3010 C.3   252  ASN252      0.1155
     61  CG        29.9700    4.3630   34.6350 C.2   252  ASN252      0.2627
     62  OD1       29.0920    4.1170   33.7990 O.2   252  ASN252     -0.2716
     63  ND2       29.9580    3.8350   35.8600 N.am  252  ASN252     -0.0877
     64  N         30.7240    1.5680   50.6760 N.3   299  TYR299     -0.1241
     65  CA        31.4480    2.3830   49.6960 C.3   299  TYR299      0.1605
     66  C         32.9540    2.0690   49.5800 C.2   299  TYR299      0.2264
     67  O         33.6880    2.7920   48.9130 O.2   299  TYR299     -0.2867
     68  CB        31.2220    3.8630   50.0070 C.3   299  TYR299      0.0534
     69  CG        29.8300    4.3710   49.5940 C.ar  299  TYR299     -0.0201
     70  CD1       29.3820    4.2490   48.2670 C.ar  299  TYR299     -0.0009
     71  CD2       28.9870    4.9860   50.5110 C.ar  299  TYR299     -0.0009
     72  CE1       28.1240    4.7170   47.8900 C.ar  299  TYR299      0.0417
     73  CE2       27.7290    5.4550   50.1340 C.ar  299  TYR299      0.0417
     74  CZ        27.3080    5.3210   48.8240 C.ar  299  TYR299      0.1957
     75  OH        26.0690    5.7910   48.4470 O.3   299  TYR299     -0.2866
     76  N         34.3620   -0.6420   48.2240 N.3   301  TYR301     -0.1241
     77  CA        34.6760   -1.3040   46.9360 C.3   301  TYR301      0.1605
     78  C         35.8800   -2.2300   47.1130 C.2   301  TYR301      0.2264
     79  O         36.7960   -2.2690   46.2720 O.2   301  TYR301     -0.2867
     80  CB        34.9300   -0.2780   45.7990 C.3   301  TYR301      0.0534
     81  CG        33.7000    0.5270   45.3790 C.ar  301  TYR301     -0.0201
     82  CD1       32.8150    0.0500   44.4040 C.ar  301  TYR301     -0.0009
     83  CD2       33.4300    1.7670   45.9540 C.ar  301  TYR301     -0.0009
     84  CE1       31.6920    0.7940   44.0280 C.ar  301  TYR301      0.0417
     85  CE2       32.3140    2.5160   45.5880 C.ar  301  TYR301      0.0417
     86  CZ        31.4490    2.0340   44.6320 C.ar  301  TYR301      0.1957
     87  OH        30.3570    2.8030   44.2880 O.3   301  TYR301     -0.2866
     88  N         46.2940   -0.8940   39.9810 N.3   316  GLU316     -0.1245
     89  CA        45.5290   -0.6620   38.7430 C.3   316  GLU316      0.1567
     90  C         46.4240    0.0930   37.7960 C.2   316  GLU316      0.2260
     91  O         47.4810    0.5920   38.2070 O.2   316  GLU316     -0.2867
     92  CB        44.2750    0.1680   39.0200 C.3   316  GLU316      0.0388
     93  CG        43.3330   -0.4720   40.0190 C.3   316  GLU316      0.1160
     94  CD        42.0750    0.3330   40.2690 C.2   316  GLU316      0.3649
     95  OE1       41.8420    1.4040   39.6600 O.co2 316  GLU316     -0.2457
     96  OE2       41.3110   -0.1120   41.1300 O.co2 316  GLU316     -0.2457
     97  N         35.8060    6.9660   34.8530 N.3   352  TYR352     -0.1241
     98  CA        34.7150    7.5640   35.6200 C.3   352  TYR352      0.1605
     99  C         35.0380    8.9860   35.9960 C.2   352  TYR352      0.2264
    100  O         36.1950    9.4160   35.9260 O.2   352  TYR352     -0.2867
    101  CB        34.3330    6.7270   36.8500 C.3   352  TYR352      0.0534
    102  CG        35.4100    6.5420   37.9090 C.ar  352  TYR352     -0.0201
    103  CD1       35.6490    7.5320   38.8620 C.ar  352  TYR352     -0.0009
    104  CD2       36.1670    5.3760   37.9640 C.ar  352  TYR352     -0.0009
    105  CE1       36.6350    7.3670   39.8370 C.ar  352  TYR352      0.0417
    106  CE2       37.1450    5.2100   38.9470 C.ar  352  TYR352      0.0417
    107  CZ        37.3530    6.2180   39.8720 C.ar  352  TYR352      0.1957
    108  OH        38.3060    6.1160   40.8560 O.3   352  TYR352     -0.2866
    109  N         33.9310   11.6320   39.2610 N.3   354  ILE354     -0.1245
    110  CA        33.2200   11.8860   40.5050 C.3   354  ILE354      0.1561
    111  C         33.1700   13.3870   40.7090 C.2   354  ILE354      0.2260
    112  O         34.1910   14.0780   40.5750 O.2   354  ILE354     -0.2867
    113  CB        33.9350   11.2170   41.6840 C.3   354  ILE354      0.0252
    114  CG1       33.7570    9.7180   41.5910 C.3   354  ILE354      0.0019
    115  CG2       33.4190   11.7450   43.0170 C.3   354  ILE354      0.0019
    116  CD1       34.4840    8.9660   42.6860 C.3   354  ILE354      0.0001
    117  N         37.2080   14.0040   40.7820 N.3   388  GLU388     -0.1245
    118  CA        38.1550   12.9980   40.3560 C.3   388  GLU388      0.1567
    119  C         37.7830   12.5420   38.9480 C.2   388  GLU388      0.2260
    120  O         36.6580   12.1250   38.7260 O.2   388  GLU388     -0.2867
    121  CB        38.1330   11.7870   41.2740 C.3   388  GLU388      0.0388
    122  CG        39.2630   10.8020   40.9990 C.3   388  GLU388      0.1160
    123  CD        39.2060    9.5870   41.9030 C.2   388  GLU388      0.3649
    124  OE1       38.2660    9.4700   42.7270 O.co2 388  GLU388     -0.2457
    125  OE2       40.1040    8.7320   41.7880 O.co2 388  GLU388     -0.2457
    126  N         39.0960    9.7320   36.1680 N.3   390  TYR390     -0.1241
    127  CA        39.8890    8.5130   36.2460 C.3   390  TYR390      0.1605
    128  C         39.7460    7.7350   34.9480 C.2   390  TYR390      0.2264
    129  O         38.6120    7.5070   34.4450 O.2   390  TYR390     -0.2867
    130  CB        39.3940    7.6810   37.4280 C.3   390  TYR390      0.0534
    131  CG        40.3460    6.6860   38.0530 C.ar  390  TYR390     -0.0201
    132  CD1       41.1690    7.0510   39.1210 C.ar  390  TYR390     -0.0009
    133  CD2       40.3560    5.3540   37.6550 C.ar  390  TYR390     -0.0009
    134  CE1       41.9850    6.1280   39.7350 C.ar  390  TYR390      0.0417
    135  CE2       41.1860    4.4270   38.2640 C.ar  390  TYR390      0.0417
    136  CZ        41.9880    4.8260   39.3190 C.ar  390  TYR390      0.1957
    137  OH        42.7860    3.9080   39.9640 O.3   390  TYR390     -0.2866
    138  N         41.1280    4.2400   33.2180 N.3   392  ARG392     -0.1245
    139  CA        41.7820    3.0000   33.6270 C.3   392  ARG392      0.1563
    140  C         41.8550    2.0310   32.4630 C.2   392  ARG392      0.2260
    141  O         40.8470    1.7990   31.7830 O.2   392  ARG392     -0.2867
    142  CB        41.0260    2.3580   34.7920 C.3   392  ARG392      0.0307
    143  CG        41.5230    0.9640   35.1510 C.3   392  ARG392      0.0489
    144  CD        40.7820    0.4120   36.3500 C.3   392  ARG392      0.2205
    145  NE        41.2740   -0.9000   36.7740 N.pl3 392  ARG392     -0.0865
    146  CZ        40.6650   -1.6800   37.6700 C.cat 392  ARG392      0.5346
    147  NH1       39.5340   -1.3010   38.2660 N.pl3 392  ARG392      0.1354
    148  NH2       41.1950   -2.8520   37.9850 N.pl3 392  ARG392      0.1354
    149  N         44.7200   13.3270   44.3070 N.3   427  TYR427     -0.1241
    150  CA        44.6220   12.6640   43.0040 C.3   427  TYR427      0.1605
    151  C         45.7550   13.2150   42.1210 C.2   427  TYR427      0.2264
    152  O         45.5360   13.9190   41.1150 O.2   427  TYR427     -0.2867
    153  CB        43.2600   12.9010   42.3560 C.3   427  TYR427      0.0534
    154  CG        42.0870   12.5670   43.2400 C.ar  427  TYR427     -0.0201
    155  CD1       42.0620   11.3860   43.9430 C.ar  427  TYR427     -0.0009
    156  CD2       41.0130   13.4280   43.3630 C.ar  427  TYR427     -0.0009
    157  CE1       40.9930   11.0620   44.7600 C.ar  427  TYR427      0.0417
    158  CE2       39.9560   13.1340   44.1970 C.ar  427  TYR427      0.0417
    159  CZ        39.9510   11.9430   44.8930 C.ar  427  TYR427      0.1957
    160  OH        38.9150   11.5870   45.7240 O.3   427  TYR427     -0.2866
@<TRIPOS>BOND
     1   141   140    2
     2    59    58    2
     3    58    57    1
     4   140   139    1
     5   138   139    1
     6   139   142    1
     7    57    60    1
     8    57    56    1
     9    62    61    2
    10    60    61    1
    11   129   128    2
    12    61    63   am
    13   142   143    1
    14    97    98    1
    15   128   127    1
    16   143   144    1
    17    98    99    1
    18    98   101    1
    19   100    99    2
    20   126   127    1
    21   127   130    1
    22   144   145    1
    23   145   146    2
    24   101   102    1
    25   130   131    1
    26   133   131   ar
    27   133   135   ar
    28   146   148    1
    29   146   147    1
    30    90    91    2
    31    90    89    1
    32   102   104   ar
    33   102   103   ar
    34   104   106   ar
    35   131   132   ar
    36   135   136   ar
    37    51    50    2
    38    50    49    1
    39   120   119    2
    40    89    92    1
    41    89    88    1
    42   103   105   ar
    43   106   107   ar
    44   119   118    1
    45    92    93    1
    46   132   134   ar
    47   109   110    1
    48   136   134   ar
    49   136   137    1
    50     4     3    2
    51    95    94   ar
    52   105   107   ar
    53   107   108    1
    54    54    53    1
    55    93    94    1
    56    49    48    1
    57    49    52    1
    58    53    55    1
    59    53    52    1
    60    94    96   ar
    61   118   117    1
    62   118   121    1
    63   110   111    1
    64   110   113    1
    65   112   111    2
    66     3     2    1
    67   122   121    1
    68   122   123    1
    69   152   151    2
    70     5     2    1
    71     5     6    1
    72     8     6   ar
    73     8    10   ar
    74   114   113    1
    75   114   116    1
    76   113   115    1
    77     2     1    1
    78     6     7   ar
    79   125   123   ar
    80    10    11   ar
    81   123   124   ar
    82   151   150    1
    83   153   150    1
    84   153   154    1
    85     7     9   ar
    86    11     9   ar
    87    11    12    1
    88   150   149    1
    89   154   156   ar
    90   154   155   ar
    91   156   158   ar
    92    39    40    2
    93    39    38    1
    94   155   157   ar
    95    84    82   ar
    96    84    86   ar
    97   158   159   ar
    98    87    86    1
    99    82    81   ar
   100    86    85   ar
   101   157   159   ar
   102   159   160    1
   103    42    41    1
   104    42    43    1
   105    38    41    1
   106    38    37    1
   107    44    43    1
   108    44    45    2
   109    47    45    1
   110    81    80    1
   111    81    83   ar
   112    45    46    1
   113    85    83   ar
   114    80    77    1
   115    79    78    2
   116    77    78    1
   117    77    76    1
   118    25    24    1
   119    72    70   ar
   120    72    74   ar
   121    70    69   ar
   122    75    74    1
   123    18    17    1
   124    74    73   ar
   125    67    66    2
   126    24    21    1
   127    34    32   ar
   128    34    36   ar
   129    32    31   ar
   130    66    65    1
   131    69    68    1
   132    69    71   ar
   133    65    68    1
   134    65    64    1
   135    36    35   ar
   136    17    19    1
   137    17    14    1
   138    31    30    1
   139    31    33   ar
   140    73    71   ar
   141    30    27    1
   142    21    20    1
   143    21    22    1
   144    16    15    2
   145    35    33   ar
   146    29    28    2
   147    15    20   am
   148    15    14    1
   149    14    13    1
   150    28    27    1
   151    27    26    1
   152    22    23    2
