@<TRIPOS>MOLECULE
tmp/5l6gA06.pdb
 132 127 0 0 0
SMALL
GASTEIGER

@<TRIPOS>ATOM
      1  N         48.3820    8.4970   43.0710 N.3    72  TYR72      -0.1241
      2  CA        48.0710    8.2150   41.6660 C.3    72  TYR72       0.1605
      3  C         49.2940    8.4380   40.7440 C.2    72  TYR72       0.2264
      4  O         49.3050    8.0120   39.5780 O.2    72  TYR72      -0.2867
      5  CB        46.9200    9.0880   41.2200 C.3    72  TYR72       0.0534
      6  CG        45.5450    8.7100   41.7760 C.ar   72  TYR72      -0.0201
      7  CD1       45.3720    7.6980   42.7300 C.ar   72  TYR72      -0.0009
      8  CD2       44.4270    9.3790   41.3390 C.ar   72  TYR72      -0.0009
      9  CE1       44.1040    7.3790   43.2090 C.ar   72  TYR72       0.0417
     10  CE2       43.1640    9.0630   41.8010 C.ar   72  TYR72       0.0417
     11  CZ        43.0070    8.0690   42.7370 C.ar   72  TYR72       0.1957
     12  OH        41.7560    7.7540   43.2040 O.3    72  TYR72      -0.2866
     13  N         36.8410    7.0520   51.2770 N.3   130  THR130     -0.1203
     14  CA        36.3780    5.7060   51.0920 C.3   130  THR130      0.1994
     15  C         37.6380    4.9910   50.6420 C.2   130  THR130      0.2618
     16  O         38.5600    5.6190   50.1270 O.2   130  THR130     -0.2717
     17  CB        35.3510    5.6320   49.9440 C.3   130  THR130      0.1784
     18  OG1       36.0260    5.8160   48.6940 O.3   130  THR130     -0.2211
     19  CG2       34.2660    6.7250   50.0720 C.3   130  THR130      0.0376
     20  N         37.6980    3.6880   50.7680 N.am  131  CYS131     -0.1969
     21  CA        38.8850    2.9920   50.2800 C.3   131  CYS131      0.1712
     22  C         39.6880    2.5680   51.5000 C.2   131  CYS131      0.2296
     23  O         40.5220    3.3280   51.9890 O.2   131  CYS131     -0.2864
     24  CB        39.7790    3.8620   49.3590 C.3   131  CYS131      0.0983
     25  SG        39.2250    4.2000   47.6560 S.3   131  CYS131     -0.0798
     26  N         38.6370   13.4800   51.5010 N.3   145  PHE145     -0.1241
     27  CA        37.2200   13.7250   51.3610 C.3   145  PHE145      0.1605
     28  C         36.4870   12.3840   51.2340 C.2   145  PHE145      0.2264
     29  O         36.8700   11.5240   50.4170 O.2   145  PHE145     -0.2867
     30  CB        36.9630   14.5360   50.0880 C.3   145  PHE145      0.0534
     31  CG        35.5390   14.9720   49.9510 C.ar  145  PHE145     -0.0203
     32  CD1       34.5770   14.1080   49.4120 C.ar  145  PHE145     -0.0042
     33  CD2       35.1560   16.2220   50.3700 C.ar  145  PHE145     -0.0042
     34  CE1       33.2510   14.5090   49.3050 C.ar  145  PHE145     -0.0003
     35  CE2       33.8320   16.6230   50.2740 C.ar  145  PHE145     -0.0003
     36  CZ        32.8830   15.7600   49.7510 C.ar  145  PHE145     -0.0000
     37  N         27.5880   12.7150   46.1120 N.3   248  ARG248     -0.1245
     38  CA        28.3550   12.9660   44.9140 C.3   248  ARG248      0.1563
     39  C         27.5950   12.4480   43.6900 C.2   248  ARG248      0.2260
     40  O         26.7070   11.6090   43.8040 O.2   248  ARG248     -0.2867
     41  CB        29.6730   12.2270   45.0010 C.3   248  ARG248      0.0307
     42  CG        29.5290   10.7120   44.8410 C.3   248  ARG248      0.0489
     43  CD        30.8130   10.0090   45.2920 C.3   248  ARG248      0.2205
     44  NE        30.7530    8.5750   45.0990 N.pl3 248  ARG248     -0.0865
     45  CZ        31.7000    7.7280   45.4780 C.cat 248  ARG248      0.5346
     46  NH1       32.7820    8.1700   46.0970 N.pl3 248  ARG248      0.1354
     47  NH2       31.5490    6.4330   45.2580 N.pl3 248  ARG248      0.1354
     48  N         30.5330    1.6350   50.6280 N.3   299  TYR299     -0.1241
     49  CA        31.2560    2.4260   49.6180 C.3   299  TYR299      0.1605
     50  C         32.7430    2.0830   49.5160 C.2   299  TYR299      0.2264
     51  O         33.5030    2.7820   48.8280 O.2   299  TYR299     -0.2867
     52  CB        31.0830    3.9240   49.8920 C.3   299  TYR299      0.0534
     53  CG        29.7120    4.4390   49.5160 C.ar  299  TYR299     -0.0201
     54  CD1       29.2740    4.3830   48.1920 C.ar  299  TYR299     -0.0009
     55  CD2       28.8570    4.9890   50.4750 C.ar  299  TYR299     -0.0009
     56  CE1       28.0200    4.8520   47.8340 C.ar  299  TYR299      0.0417
     57  CE2       27.6040    5.4650   50.1180 C.ar  299  TYR299      0.0417
     58  CZ        27.1920    5.3910   48.8010 C.ar  299  TYR299      0.1957
     59  OH        25.9630    5.8480   48.4030 O.3   299  TYR299     -0.2866
     60  N         34.0740   -0.9010   48.4130 N.3   301  TYR301     -0.1241
     61  CA        34.3270   -1.6150   47.1470 C.3   301  TYR301      0.1605
     62  C         35.5940   -2.4680   47.2570 C.2   301  TYR301      0.2264
     63  O         36.4870   -2.4300   46.4040 O.2   301  TYR301     -0.2867
     64  CB        34.4210   -0.6410   45.9540 C.3   301  TYR301      0.0534
     65  CG        33.1920    0.2260   45.7460 C.ar  301  TYR301     -0.0201
     66  CD1       31.9100   -0.3250   45.7450 C.ar  301  TYR301     -0.0009
     67  CD2       33.3140    1.5940   45.5240 C.ar  301  TYR301     -0.0009
     68  CE1       30.7900    0.4680   45.5470 C.ar  301  TYR301      0.0417
     69  CE2       32.1980    2.3940   45.3290 C.ar  301  TYR301      0.0417
     70  CZ        30.9440    1.8300   45.3390 C.ar  301  TYR301      0.1957
     71  OH        29.8450    2.6270   45.1310 O.3   301  TYR301     -0.2866
     72  N         35.5800    6.9720   34.7660 N.3   352  TYR352     -0.1241
     73  CA        34.4830    7.5620   35.5380 C.3   352  TYR352      0.1605
     74  C         34.8130    8.9900   35.8990 C.2   352  TYR352      0.2264
     75  O         35.9770    9.4110   35.8300 O.2   352  TYR352     -0.2867
     76  CB        34.1290    6.7510   36.8000 C.3   352  TYR352      0.0534
     77  CG        35.1940    6.6610   37.8880 C.ar  352  TYR352     -0.0201
     78  CD1       35.4110    7.7270   38.7750 C.ar  352  TYR352     -0.0009
     79  CD2       35.9410    5.5000   38.0670 C.ar  352  TYR352     -0.0009
     80  CE1       36.3650    7.6430   39.7860 C.ar  352  TYR352      0.0417
     81  CE2       36.8930    5.4120   39.0920 C.ar  352  TYR352      0.0417
     82  CZ        37.0960    6.4980   39.9340 C.ar  352  TYR352      0.1957
     83  OH        38.0410    6.4500   40.9450 O.3   352  TYR352     -0.2866
     84  N         33.7420   11.6500   39.1720 N.3   354  ILE354     -0.1245
     85  CA        33.0400   11.9000   40.4160 C.3   354  ILE354      0.1561
     86  C         32.9490   13.4110   40.5830 C.2   354  ILE354      0.2260
     87  O         33.9270   14.1110   40.3910 O.2   354  ILE354     -0.2867
     88  CB        33.7480   11.2540   41.6010 C.3   354  ILE354      0.0252
     89  CG1       33.5310    9.7450   41.5720 C.3   354  ILE354      0.0019
     90  CG2       33.2560   11.8480   42.9140 C.3   354  ILE354      0.0019
     91  CD1       34.2360    9.0100   42.6970 C.3   354  ILE354      0.0001
     92  N         31.8970   15.6790   43.5940 N.3   356  ASP356     -0.1239
     93  CA        31.4950   15.6540   44.9920 C.3   356  ASP356      0.1674
     94  C         30.7020   16.8990   45.3090 C.2   356  ASP356      0.2266
     95  O         31.0810   17.9910   44.8860 O.2   356  ASP356     -0.2867
     96  CB        32.7210   15.6100   45.9020 C.3   356  ASP356      0.1410
     97  CG        33.4000   14.2720   45.8870 C.2   356  ASP356      0.3668
     98  OD1       32.7290   13.2560   46.1010 O.co2 356  ASP356     -0.2456
     99  OD2       34.6160   14.2310   45.7170 O.co2 356  ASP356     -0.2456
    100  N         36.9300   13.9920   40.6780 N.3   388  GLU388     -0.1245
    101  CA        37.8960   12.9880   40.3300 C.3   388  GLU388      0.1567
    102  C         37.5420   12.5130   38.9210 C.2   388  GLU388      0.2260
    103  O         36.3990   12.1260   38.6730 O.2   388  GLU388     -0.2867
    104  CB        37.8550   11.7960   41.2830 C.3   388  GLU388      0.0388
    105  CG        38.9760   10.8010   41.0160 C.3   388  GLU388      0.1160
    106  CD        38.9250    9.5760   41.9120 C.2   388  GLU388      0.3649
    107  OE1       37.9200    9.3840   42.6540 O.co2 388  GLU388     -0.2457
    108  OE2       39.8920    8.7860   41.8440 O.co2 388  GLU388     -0.2457
    109  N         38.8850    9.7320   36.1130 N.3   390  TYR390     -0.1241
    110  CA        39.6470    8.4950   36.2310 C.3   390  TYR390      0.1605
    111  C         39.5110    7.7150   34.9500 C.2   390  TYR390      0.2264
    112  O         38.4050    7.4790   34.4810 O.2   390  TYR390     -0.2867
    113  CB        39.1010    7.6890   37.3980 C.3   390  TYR390      0.0534
    114  CG        40.0320    6.6770   38.0170 C.ar  390  TYR390     -0.0201
    115  CD1       40.8430    7.0250   39.0910 C.ar  390  TYR390     -0.0009
    116  CD2       40.0480    5.3570   37.5970 C.ar  390  TYR390     -0.0009
    117  CE1       41.6760    6.0990   39.6950 C.ar  390  TYR390      0.0417
    118  CE2       40.8830    4.4190   38.2060 C.ar  390  TYR390      0.0417
    119  CZ        41.6830    4.8070   39.2650 C.ar  390  TYR390      0.1957
    120  OH        42.4860    3.9040   39.9060 O.3   390  TYR390     -0.2866
    121  N         44.4210   13.3170   44.2960 N.3   427  TYR427     -0.1241
    122  CA        44.3100   12.6810   42.9740 C.3   427  TYR427      0.1605
    123  C         45.4440   13.2240   42.0680 C.2   427  TYR427      0.2264
    124  O         45.2280   13.9160   41.0550 O.2   427  TYR427     -0.2867
    125  CB        42.9520   12.9330   42.3600 C.3   427  TYR427      0.0534
    126  CG        41.7840   12.5280   43.2320 C.ar  427  TYR427     -0.0201
    127  CD1       41.7650   11.3160   43.8900 C.ar  427  TYR427     -0.0009
    128  CD2       40.7120   13.3790   43.4250 C.ar  427  TYR427     -0.0009
    129  CE1       40.6900   10.9490   44.6950 C.ar  427  TYR427      0.0417
    130  CE2       39.6520   13.0230   44.2470 C.ar  427  TYR427      0.0417
    131  CZ        39.6500   11.8140   44.8770 C.ar  427  TYR427      0.1957
    132  OH        38.5920   11.4480   45.6950 O.3   427  TYR427     -0.2866
@<TRIPOS>BOND
     1   112   111    2
     2    72    73    1
     3   111   110    1
     4    73    74    1
     5    73    76    1
     6    75    74    2
     7   109   110    1
     8   110   113    1
     9    76    77    1
    10   113   114    1
    11   116   114   ar
    12   116   118   ar
    13    77    79   ar
    14    77    78   ar
    15   114   115   ar
    16    79    81   ar
    17   118   119   ar
    18   103   102    2
    19    78    80   ar
    20   102   101    1
    21   115   117   ar
    22    81    82   ar
    23    84    85    1
    24   119   117   ar
    25   119   120    1
    26     4     3    2
    27    80    82   ar
    28    82    83    1
    29   101   100    1
    30   101   104    1
    31    87    86    2
    32    85    86    1
    33    85    88    1
    34     3     2    1
    35   105   104    1
    36   105   106    1
    37   124   123    2
    38     5     2    1
    39     5     6    1
    40     8     6   ar
    41     8    10   ar
    42    89    88    1
    43    89    91    1
    44    88    90    1
    45     2     1    1
    46     6     7   ar
    47    10    11   ar
    48   108   106   ar
    49   106   107   ar
    50   123   122    1
    51   125   122    1
    52   125   126    1
    53     7     9   ar
    54    11    12    1
    55    11     9   ar
    56   122   121    1
    57   126   128   ar
    58   126   127   ar
    59   128   130   ar
    60    92    93    1
    61    39    40    2
    62    39    38    1
    63   127   129   ar
    64   130   131   ar
    65   129   131   ar
    66    42    41    1
    67    42    43    1
    68   131   132    1
    69    95    94    2
    70    38    41    1
    71    38    37    1
    72    93    94    1
    73    93    96    1
    74    44    43    1
    75    44    45    2
    76    71    70    1
    77    47    45    1
    78    69    70   ar
    79    69    67   ar
    80    70    68   ar
    81    45    46    1
    82    67    65   ar
    83    68    66   ar
    84    99    97   ar
    85    66    65   ar
    86    65    64    1
    87    97    96    1
    88    97    98   ar
    89    64    61    1
    90    63    62    2
    91    61    62    1
    92    61    60    1
    93    25    24    1
    94    56    54   ar
    95    56    58   ar
    96    54    53   ar
    97    59    58    1
    98    18    17    1
    99    58    57   ar
   100    51    50    2
   101    34    32   ar
   102    34    36   ar
   103    24    21    1
   104    32    31   ar
   105    53    52    1
   106    53    55   ar
   107    50    49    1
   108    49    52    1
   109    49    48    1
   110    36    35   ar
   111    17    19    1
   112    17    14    1
   113    31    30    1
   114    31    33   ar
   115    30    27    1
   116    57    55   ar
   117    16    15    2
   118    35    33   ar
   119    21    20    1
   120    21    22    1
   121    29    28    2
   122    15    20   am
   123    15    14    1
   124    14    13    1
   125    28    27    1
   126    27    26    1
   127    22    23    2
