@<TRIPOS>MOLECULE
tmp/5l6oA00.pdb
 153 144 0 0 0
SMALL
GASTEIGER

@<TRIPOS>ATOM
      1  N         14.9060   11.9280   -3.9750 N.3     8  ILE8       -0.1245
      2  CA        15.3040   11.5670   -5.3440 C.3     8  ILE8        0.1561
      3  C         14.2430   12.0000   -6.3730 C.2     8  ILE8        0.2260
      4  O         14.5820   12.6680   -7.3520 O.2     8  ILE8       -0.2867
      5  CB        15.6900   10.0580   -5.4790 C.3     8  ILE8        0.0252
      6  CG1       16.7840    9.6500   -4.4590 C.3     8  ILE8        0.0019
      7  CG2       16.1230    9.7220   -6.9150 C.3     8  ILE8        0.0019
      8  CD1       16.8210    8.1440   -4.1000 C.3     8  ILE8        0.0001
      9  N         10.1830    8.9340   -3.5940 N.3    13  VAL13      -0.1245
     10  CA        11.3270    8.0220   -3.5130 C.3    13  VAL13       0.1561
     11  C         12.5020    8.8320   -2.9280 C.2    13  VAL13       0.2260
     12  O         12.8760    9.8620   -3.4930 O.2    13  VAL13      -0.2867
     13  CB        11.6730    7.3610   -4.8790 C.3    13  VAL13       0.0252
     14  CG1       12.9350    6.5060   -4.7810 C.3    13  VAL13       0.0019
     15  CG2       10.5050    6.5270   -5.4040 C.3    13  VAL13       0.0019
     16  N         16.7630    2.8790    0.0080 N.3    29  ALA29      -0.1245
     17  CA        15.8360    3.6730   -0.7920 C.3    29  ALA29       0.1562
     18  C         14.4970    3.5500   -0.0730 C.2    29  ALA29       0.2260
     19  O         14.1090    2.4490    0.3300 O.2    29  ALA29      -0.2867
     20  CB        15.7320    3.1340   -2.2090 C.3    29  ALA29       0.0290
     21  N         10.4480    4.3470   -0.2260 N.3    31  LYS31      -0.1245
     22  CA         9.2510    4.6630   -0.9940 C.3    31  LYS31       0.1561
     23  C          8.1770    5.0550    0.0200 C.2    31  LYS31       0.2260
     24  O          7.8010    4.2500    0.8780 O.2    31  LYS31      -0.2867
     25  CB         8.8040    3.4790   -1.8690 C.3    31  LYS31       0.0271
     26  CG         7.7710    3.8690   -2.9180 C.3    31  LYS31       0.0035
     27  CD         6.9080    2.6940   -3.3350 C.3    31  LYS31       0.0206
     28  CE         5.6940    3.1490   -4.1110 C.3    31  LYS31       0.1093
     29  NZ         4.9680    2.0030   -4.7230 N.3    31  LYS31      -0.1314
     30  N          7.0190   -8.0630   -2.8640 N.3    52  MET52      -0.1245
     31  CA         8.4800   -7.9140   -2.8430 C.3    52  MET52       0.1570
     32  C          9.1670   -8.7450   -1.7460 C.2    52  MET52       0.2261
     33  O         10.2780   -9.2310   -1.9610 O.2    52  MET52      -0.2867
     34  CB         8.8660   -6.4400   -2.6720 C.3    52  MET52       0.0387
     35  CG         8.4530   -5.5560   -3.8290 C.3    52  MET52       0.0595
     36  SD         8.6620   -3.8210   -3.3740 S.3    52  MET52      -0.1393
     37  CE        10.3580   -3.5900   -3.8200 C.3    52  MET52       0.0692
     38  N         15.2690   -7.0220   -6.5820 N.3    61  ILE61      -0.1245
     39  CA        15.4880   -5.9840   -5.5750 C.3    61  ILE61       0.1561
     40  C         15.2050   -6.5280   -4.1520 C.2    61  ILE61       0.2260
     41  O         14.2180   -7.2370   -3.9410 O.2    61  ILE61      -0.2867
     42  CB        14.7060   -4.6870   -5.9340 C.3    61  ILE61       0.0252
     43  CG1       15.1150   -3.4950   -5.0540 C.3    61  ILE61       0.0019
     44  CG2       13.1980   -4.8990   -5.9270 C.3    61  ILE61       0.0019
     45  CD1       16.5240   -2.9920   -5.2820 C.3    61  ILE61       0.0001
     46  N          8.3640    1.8090    2.4480 N.3    75  ILE75      -0.1245
     47  CA         8.9020    0.6070    1.8140 C.3    75  ILE75       0.1561
     48  C         10.4030    0.8680    1.7030 C.2    75  ILE75       0.2260
     49  O         10.8160    1.8270    1.0500 O.2    75  ILE75      -0.2867
     50  CB         8.2370    0.2460    0.4550 C.3    75  ILE75       0.0252
     51  CG1        6.7750   -0.2190    0.6570 C.3    75  ILE75       0.0019
     52  CG2        9.0550   -0.8280   -0.2880 C.3    75  ILE75       0.0019
     53  CD1        5.9170   -0.3820   -0.6690 C.3    75  ILE75       0.0001
     54  N         14.1750   -0.4790    0.6880 N.3    77  THR77      -0.1203
     55  CA        14.9310   -1.3840   -0.1820 C.3    77  THR77       0.1994
     56  C         16.4080   -0.9990   -0.1620 C.2    77  THR77       0.2618
     57  O         16.7220    0.1390    0.1660 O.2    77  THR77      -0.2717
     58  CB        14.3970   -1.3290   -1.6270 C.3    77  THR77       0.1784
     59  OG1       14.4190    0.0210   -2.0870 O.3    77  THR77      -0.2211
     60  CG2       12.9980   -1.9150   -1.7720 C.3    77  THR77       0.0376
     61  N         17.3040   -1.9360   -0.5360 N.am   78  GLU78      -0.1965
     62  CA        18.7550   -1.7130   -0.6310 C.3    78  GLU78       0.1733
     63  C         19.0110   -0.6750   -1.7420 C.2    78  GLU78       0.2616
     64  O         18.4710   -0.8210   -2.8350 O.2    78  GLU78      -0.2715
     65  CB        19.5020   -3.0390   -0.9290 C.3    78  GLU78       0.0429
     66  CG        18.9510   -3.7880   -2.1440 C.3    78  GLU78       0.1163
     67  CD        19.8000   -4.8440   -2.8260 C.2    78  GLU78       0.3649
     68  OE1       21.0390   -4.8570   -2.6410 O.co2  78  GLU78      -0.2457
     69  OE2       19.2140   -5.6360   -3.5970 O.co2  78  GLU78      -0.2457
     70  N         19.7790    0.3890   -1.4450 N.am   79  PHE79      -0.1960
     71  CA        20.0670    1.4490   -2.4150 C.3    79  PHE79       0.1771
     72  C         20.9480    0.9680   -3.5650 C.2    79  PHE79       0.2619
     73  O         22.0020    0.3670   -3.3450 O.2    79  PHE79      -0.2715
     74  CB        20.6490    2.7030   -1.7300 C.3    79  PHE79       0.0574
     75  CG        20.7510    3.9140   -2.6330 C.ar   79  PHE79      -0.0200
     76  CD1       19.6090    4.5950   -3.0450 C.ar   79  PHE79      -0.0042
     77  CD2       21.9900    4.3940   -3.0430 C.ar   79  PHE79      -0.0042
     78  CE1       19.7030    5.7120   -3.8810 C.ar   79  PHE79      -0.0003
     79  CE2       22.0820    5.5130   -3.8790 C.ar   79  PHE79      -0.0003
     80  CZ        20.9380    6.1640   -4.2920 C.ar   79  PHE79      -0.0000
     81  N         20.4430    1.1830   -4.7680 N.am   80  MET80      -0.1963
     82  CA        21.1020    0.7830   -5.9750 C.3    80  MET80       0.1736
     83  C         21.6850    2.0060   -6.5710 C.2    80  MET80       0.2616
     84  O         21.0190    2.8230   -7.1460 O.2    80  MET80      -0.2715
     85  CB        20.1340    0.0850   -6.9250 C.3    80  MET80       0.0427
     86  CG        19.3340   -1.0050   -6.2490 C.3    80  MET80       0.0599
     87  SD        20.2090   -2.5530   -5.9770 S.3    80  MET80      -0.1393
     88  CE        21.3400   -2.4650   -7.3220 C.3    80  MET80       0.0692
     89  N         22.9790    2.1030   -6.3990 N.am   81  GLU81      -0.1977
     90  CA        23.7750    3.2190   -6.8300 C.3    81  GLU81       0.1602
     91  C         23.5850    3.7800   -8.2130 C.2    81  GLU81       0.2287
     92  O         23.5610    4.9790   -8.3740 O.2    81  GLU81      -0.2864
     93  CB        25.2470    2.8620   -6.6260 C.3    81  GLU81       0.0415
     94  CG        25.6530    2.7300   -5.1730 C.3    81  GLU81       0.1163
     95  CD        25.3150    1.3780   -4.5710 C.2    81  GLU81       0.3649
     96  OE1       24.9780    0.4390   -5.3290 O.co2  81  GLU81      -0.2457
     97  OE2       25.3940    1.2490   -3.3240 O.co2  81  GLU81      -0.2457
     98  N         21.0400    3.5510  -10.1890 N.3    83  CYS83      -0.1221
     99  CA        19.6130    3.8190  -10.4110 C.3    83  CYS83       0.1808
    100  C         18.9880    2.9450  -11.5370 C.2    83  CYS83       0.2601
    101  O         19.4420    1.8180  -11.7190 O.2    83  CYS83      -0.2717
    102  CB        19.3840    5.3150  -10.6330 C.3    83  CYS83       0.0970
    103  SG        20.3320    6.3930   -9.5020 S.3    83  CYS83      -0.0800
    104  N         17.9540    3.4460  -12.2580 N.am   84  ALA84      -0.1979
    105  CA        17.2710    2.7160  -13.3380 C.3    84  ALA84       0.1597
    106  C         18.1810    2.4500  -14.5350 C.2    84  ALA84       0.2287
    107  O         18.9530    3.3200  -14.9340 O.2    84  ALA84      -0.2864
    108  CB        16.0290    3.4700  -13.7800 C.3    84  ALA84       0.0319
    109  N         16.9270   -1.9950  -11.7380 N.3   131  LEU131     -0.1245
    110  CA        17.8520   -1.1460  -10.9810 C.3   131  LEU131      0.1561
    111  C         19.2800   -1.6720  -11.0770 C.2   131  LEU131      0.2260
    112  O         19.4860   -2.8810  -11.1700 O.2   131  LEU131     -0.2867
    113  CB        17.3900   -0.9560   -9.5220 C.3   131  LEU131      0.0270
    114  CG        16.0150   -0.2770   -9.3440 C.3   131  LEU131      0.0019
    115  CD1       15.4790   -0.4950   -7.9540 C.3   131  LEU131      0.0001
    116  CD2       16.0780    1.2220   -9.6370 C.3   131  LEU131      0.0001
    117  N         12.8970   -4.9890  -10.5010 N.3   141  SER141     -0.1202
    118  CA        12.1030   -4.2310   -9.5600 C.3   141  SER141      0.2020
    119  C         10.7280   -3.9590  -10.1720 C.2   141  SER141      0.2619
    120  O         10.4510   -4.3700  -11.3010 O.2   141  SER141     -0.2717
    121  CB        12.8150   -2.9160   -9.2500 C.3   141  SER141      0.2103
    122  OG        12.1210   -2.1300   -8.2960 O.3   141  SER141     -0.2182
    123  N          9.8750   -3.2700   -9.4070 N.am  142  ASP142     -0.1959
    124  CA         8.5470   -2.7840   -9.7650 C.3   142  ASP142      0.1840
    125  C          8.0870   -1.8350   -8.6590 C.2   142  ASP142      0.2622
    126  O          8.7040   -1.7970   -7.5920 O.2   142  ASP142     -0.2715
    127  CB         7.5310   -3.9350   -9.9630 C.3   142  ASP142      0.1450
    128  CG         6.3170   -3.5580  -10.7980 C.2   142  ASP142      0.3671
    129  OD1        6.2400   -2.3920  -11.2550 O.co2 142  ASP142     -0.2456
    130  OD2        5.4260   -4.4080  -10.9600 O.co2 142  ASP142     -0.2456
    131  N          7.0080   -1.0700   -8.9160 N.am  143  PHE143     -0.1960
    132  CA         6.3580   -0.1300   -7.9900 C.3   143  PHE143      0.1771
    133  C          7.2840    1.0310   -7.5390 C.2   143  PHE143      0.2620
    134  O          7.1700    1.5140   -6.4130 O.2   143  PHE143     -0.2715
    135  CB         5.7240   -0.8650   -6.7690 C.3   143  PHE143      0.0574
    136  CG         5.3940   -2.3380   -6.9180 C.ar  143  PHE143     -0.0200
    137  CD1        4.4160   -2.7650   -7.8110 C.ar  143  PHE143     -0.0042
    138  CD2        6.0490   -3.2950   -6.1520 C.ar  143  PHE143     -0.0042
    139  CE1        4.1010   -4.1230   -7.9330 C.ar  143  PHE143     -0.0003
    140  CE2        5.7340   -4.6530   -6.2770 C.ar  143  PHE143     -0.0003
    141  CZ         4.7630   -5.0560   -7.1680 C.ar  143  PHE143     -0.0000
    142  N          8.1540    1.4880   -8.4370 N.am  144  GLY144     -0.1940
    143  CA         9.0770    2.5870   -8.1600 C.3   144  GLY144      0.2014
    144  C          8.8190    3.8140   -9.0130 C.2   144  GLY144      0.2638
    145  O          7.7950    3.8890   -9.7030 O.2   144  GLY144     -0.2714
    146  N          9.7580    4.7840   -8.9730 N.am  145  LEU145     -0.1977
    147  CA         9.7090    6.0460   -9.7230 C.3   145  LEU145      0.1596
    148  C          9.7330    5.7980  -11.2370 C.2   145  LEU145      0.2287
    149  O          9.0120    6.4610  -11.9790 O.2   145  LEU145     -0.2864
    150  CB        10.8930    6.9450   -9.3100 C.3   145  LEU145      0.0297
    151  CG        10.9140    8.3800   -9.8520 C.3   145  LEU145      0.0022
    152  CD1       10.0260    9.2990   -9.0300 C.3   145  LEU145      0.0001
    153  CD2       12.3290    8.9180   -9.9100 C.3   145  LEU145      0.0001
@<TRIPOS>BOND
     1   107   106    2
     2   106   105    1
     3   108   105    1
     4   105   104    1
     5   104   100   am
     6   149   148    2
     7   109   110    1
     8   101   100    2
     9   100    99    1
    10   120   119    2
    11   129   128   ar
    12   148   147    1
    13   112   111    2
    14   111   110    1
    15   110   113    1
    16   130   128   ar
    17   128   127    1
    18   102    99    1
    19   102   103    1
    20   117   118    1
    21    99    98    1
    22   119   118    1
    23   119   123   am
    24   127   124    1
    25   153   151    1
    26   151   150    1
    27   151   152    1
    28   124   123    1
    29   124   125    1
    30   147   150    1
    31   147   146    1
    32   145   144    2
    33   116   114    1
    34   118   121    1
    35   113   114    1
    36   114   115    1
    37   121   122    1
    38   144   146   am
    39   144   143    1
    40   131   125   am
    41   131   132    1
    42   125   126    2
    43   142   143    1
    44   142   133   am
    45    92    91    2
    46    91    90    1
    47   132   133    1
    48   132   135    1
    49   139   137   ar
    50   139   141   ar
    51   137   136   ar
    52   133   134    2
    53     4     3    2
    54    88    87    1
    55   141   140   ar
    56    84    83    2
    57    85    86    1
    58    85    82    1
    59   136   135    1
    60   136   138   ar
    61     7     5    1
    62    90    93    1
    63    90    89    1
    64    93    94    1
    65    38    39    1
    66    83    89   am
    67    83    82    1
    68     3     2    1
    69   140   138   ar
    70    86    87    1
    71    82    81    1
    72    42    44    1
    73    42    39    1
    74    42    43    1
    75    39    40    1
    76     5     2    1
    77     5     6    1
    78    15    13    1
    79     2     1    1
    80    96    95   ar
    81    45    43    1
    82    94    95    1
    83    13    14    1
    84    13    10    1
    85    81    72   am
    86    29    28    1
    87    95    97   ar
    88     6     8    1
    89    80    78   ar
    90    80    79   ar
    91    40    41    2
    92    28    27    1
    93    78    76   ar
    94    79    77   ar
    95    35    36    1
    96    35    34    1
    97    37    36    1
    98    69    67   ar
    99     9    10    1
   100    72    73    2
   101    72    71    1
   102    10    11    1
   103    12    11    2
   104    27    26    1
   105    76    75   ar
   106    77    75   ar
   107    26    25    1
   108    30    31    1
   109    31    34    1
   110    31    32    1
   111    64    63    2
   112    67    68   ar
   113    67    66    1
   114    75    74    1
   115    71    74    1
   116    71    70    1
   117    20    17    1
   118    66    65    1
   119    59    58    1
   120    33    32    2
   121    25    22    1
   122    60    58    1
   123    63    70   am
   124    63    62    1
   125    58    55    1
   126    22    21    1
   127    22    23    1
   128    65    62    1
   129    17    18    1
   130    17    16    1
   131    53    51    1
   132    62    61    1
   133    61    56   am
   134    52    50    1
   135    55    56    1
   136    55    54    1
   137    56    57    2
   138    18    19    2
   139    23    24    2
   140    50    51    1
   141    50    47    1
   142    49    48    2
   143    48    47    1
   144    47    46    1
