@<TRIPOS>MOLECULE
tmp/5l6vP00.pdb
 103 97 0 0 0
SMALL
GASTEIGER

@<TRIPOS>ATOM
      1  N         61.3500   73.6080  184.8820 N.3    32  LYS32      -0.1231
      2  CA        61.1410   72.5140  183.9420 C.3    32  LYS32       0.1693
      3  C         60.4970   72.9920  182.6450 C.2    32  LYS32       0.2591
      4  O         59.7960   72.2300  181.9750 O.2    32  LYS32      -0.2718
      5  CB        60.2960   71.4160  184.5840 C.3    32  LYS32       0.0285
      6  CG        60.8590   70.8970  185.8950 C.3    32  LYS32       0.0035
      7  CD        59.8410   70.0480  186.6340 C.3    32  LYS32       0.0206
      8  CE        60.3150   68.6150  186.7770 C.3    32  LYS32       0.1093
      9  NZ        59.3400   67.7890  187.5410 N.3    32  LYS32      -0.1314
     10  N         60.7250   74.2500  182.2770 N.am   33  ARG33      -0.1980
     11  CA        60.2090   74.7720  181.0200 C.3    33  ARG33       0.1597
     12  C         60.9560   76.0490  180.6640 C.2    33  ARG33       0.2287
     13  O         61.3970   76.7940  181.5430 O.2    33  ARG33      -0.2864
     14  CB        58.6990   75.0390  181.0920 C.3    33  ARG33       0.0334
     15  CG        58.3050   76.2110  181.9900 C.3    33  ARG33       0.0492
     16  CD        56.8310   76.5870  181.8340 C.3    33  ARG33       0.2205
     17  NE        55.9520   75.5920  182.4360 N.pl3  33  ARG33      -0.0865
     18  CZ        55.4390   75.7000  183.6560 C.cat  33  ARG33       0.5346
     19  NH1       54.7080   74.7190  184.1640 N.pl3  33  ARG33       0.1354
     20  NH2       55.6720   76.7880  184.3770 N.pl3  33  ARG33       0.1354
     21  N         53.0740   79.2960  180.4990 N.3    39  HIS39      -0.1241
     22  CA        51.6410   79.4120  180.2600 C.3    39  HIS39       0.1621
     23  C         51.1580   80.8400  180.4860 C.2    39  HIS39       0.2264
     24  O         51.6680   81.5660  181.3450 O.2    39  HIS39      -0.2867
     25  CB        50.8710   78.4680  181.1820 C.3    39  HIS39       0.0745
     26  CG        51.2350   77.0260  181.0190 C.ar   39  HIS39       0.0817
     27  ND1       50.6920   76.2270  180.0370 N.ar   39  HIS39      -0.2268
     28  CD2       52.0770   76.2350  181.7250 C.ar   39  HIS39       0.1154
     29  CE1       51.1900   75.0080  180.1390 C.ar   39  HIS39       0.1986
     30  NE2       52.0320   74.9850  181.1550 N.ar   39  HIS39      -0.2212
     31  N         50.9260   80.0600  175.3530 N.3    45  ARG45      -0.1245
     32  CA        52.2980   80.1230  175.8250 C.3    45  ARG45       0.1563
     33  C         52.8990   81.4090  175.2680 C.2    45  ARG45       0.2260
     34  O         52.4580   81.9060  174.2270 O.2    45  ARG45      -0.2867
     35  CB        53.1070   78.8960  175.3740 C.3    45  ARG45       0.0307
     36  CG        52.5420   77.5640  175.8700 C.3    45  ARG45       0.0489
     37  CD        53.4760   76.3950  175.5700 C.3    45  ARG45       0.2205
     38  NE        53.0250   75.1370  176.1750 N.pl3  45  ARG45      -0.0865
     39  CZ        53.4620   74.6170  177.3190 C.cat  45  ARG45       0.5346
     40  NH1       54.3910   75.2340  178.0340 N.pl3  45  ARG45       0.1354
     41  NH2       52.9630   73.4620  177.7450 N.pl3  45  ARG45       0.1354
     42  N         62.1620   70.6540  175.9700 N.3    71  HIS71      -0.1226
     43  CA        61.1610   69.6580  175.5970 C.3    71  HIS71       0.1752
     44  C         59.7890   70.2890  175.3820 C.2    71  HIS71       0.2596
     45  O         59.1630   70.0980  174.3320 O.2    71  HIS71      -0.2718
     46  CB        61.0920   68.5680  176.6680 C.3    71  HIS71       0.0759
     47  CG        59.8480   67.7360  176.6120 C.ar   71  HIS71       0.0818
     48  ND1       59.5610   66.8860  175.5660 N.ar   71  HIS71      -0.2268
     49  CD2       58.8210   67.6160  177.4860 C.ar   71  HIS71       0.1154
     50  CE1       58.4070   66.2840  175.7930 C.ar   71  HIS71       0.1986
     51  NE2       57.9380   66.7090  176.9520 N.ar   71  HIS71      -0.2212
     52  N         59.2980   71.0400  176.3700 N.am   72  THR72      -0.1953
     53  CA        57.9460   71.5830  176.2740 C.3    72  THR72       0.1897
     54  C         57.8220   72.6800  175.2190 C.2    72  THR72       0.2313
     55  O         56.7310   72.8860  174.6730 O.2    72  THR72      -0.2863
     56  CB        57.5030   72.1200  177.6360 C.3    72  THR72       0.1794
     57  OG1       58.1440   73.3780  177.8840 O.3    72  THR72      -0.2208
     58  CG2       57.8860   71.1570  178.7260 C.3    72  THR72       0.0378
     59  N         57.6930   70.7840  171.7920 N.3    75  GLN75      -0.1245
     60  CA        56.3920   70.1300  171.6940 C.3    75  GLN75       0.1566
     61  C         55.2910   71.1220  171.3400 C.2    75  GLN75       0.2260
     62  O         54.3810   70.8020  170.5670 O.2    75  GLN75      -0.2867
     63  CB        56.0670   69.4360  173.0150 C.3    75  GLN75       0.0367
     64  CG        54.7500   68.6820  173.0280 C.3    75  GLN75       0.0905
     65  CD        54.5130   67.9590  174.3390 C.2    75  GLN75       0.2608
     66  OE1       54.5930   66.7340  174.4130 O.2    75  GLN75      -0.2717
     67  NE2       54.2130   68.7220  175.3860 N.am   75  GLN75      -0.0878
     68  N         45.7840   71.4360  184.9350 N.3   363  GLU363     -0.1245
     69  CA        45.6820   70.1620  185.6430 C.3   363  GLU363      0.1567
     70  C         45.8050   70.2980  187.1570 C.2   363  GLU363      0.2260
     71  O         46.0360   69.3020  187.8480 O.2   363  GLU363     -0.2867
     72  CB        46.7190   69.1550  185.1240 C.3   363  GLU363      0.0388
     73  CG        46.4580   68.6800  183.7030 C.3   363  GLU363      0.1160
     74  CD        47.4710   67.6520  183.2370 C.2   363  GLU363      0.3649
     75  OE1       48.6830   67.9500  183.2770 O.co2 363  GLU363     -0.2457
     76  OE2       47.0540   66.5490  182.8270 O.co2 363  GLU363     -0.2457
     77  N         51.8770   73.6780  187.3780 N.3   379  ARG379     -0.1231
     78  CA        51.2880   72.5470  186.6680 C.3   379  ARG379      0.1694
     79  C         51.0520   71.3390  187.5700 C.2   379  ARG379      0.2591
     80  O         51.9370   70.9220  188.3230 O.2   379  ARG379     -0.2718
     81  CB        52.1980   72.1560  185.5010 C.3   379  ARG379      0.0321
     82  CG        52.0370   70.7170  185.0390 C.3   379  ARG379      0.0489
     83  CD        50.8990   70.5570  184.0440 C.3   379  ARG379      0.2205
     84  NE        51.2550   71.0520  182.7180 N.pl3 379  ARG379     -0.0865
     85  CZ        50.5200   70.8660  181.6280 C.cat 379  ARG379      0.5346
     86  NH1       49.4750   70.0490  181.6610 N.pl3 379  ARG379      0.1354
     87  NH2       50.9200   71.3720  180.4710 N.pl3 379  ARG379      0.1354
     88  N         49.8360   70.7950  187.4910 N.am  380  ALA380     -0.1980
     89  CA        49.4720   69.4900  188.0470 C.3   380  ALA380      0.1597
     90  C         49.6330   69.4030  189.5640 C.2   380  ALA380      0.2287
     91  O         49.7890   68.3030  190.1070 O.2   380  ALA380     -0.2864
     92  CB        50.2720   68.3690  187.3710 C.3   380  ALA380      0.0319
     93  N         54.5900   71.2430  192.4630 N.3   412  ARG412     -0.1245
     94  CA        54.4470   69.8640  192.9210 C.3   412  ARG412      0.1563
     95  C         55.5580   69.4770  193.8870 C.2   412  ARG412      0.2260
     96  O         55.3050   68.8250  194.9080 O.2   412  ARG412     -0.2867
     97  CB        54.4530   68.9200  191.7210 C.3   412  ARG412      0.0307
     98  CG        53.1930   68.8870  190.8880 C.3   412  ARG412      0.0489
     99  CD        53.4600   68.0920  189.6190 C.3   412  ARG412      0.2205
    100  NE        53.5620   66.6540  189.8640 N.pl3 412  ARG412     -0.0865
    101  CZ        52.5360   65.8200  189.9750 C.cat 412  ARG412      0.5346
    102  NH1       51.2940   66.2680  189.8770 N.pl3 412  ARG412      0.1354
    103  NH2       52.7590   64.5310  190.1940 N.pl3 412  ARG412      0.1354
@<TRIPOS>BOND
     1    62    61    2
     2    61    60    1
     3    60    59    1
     4    60    63    1
     5    63    64    1
     6    64    65    1
     7    34    33    2
     8    45    44    2
     9    65    66    2
    10    65    67   am
    11    55    54    2
    12    54    53    1
    13    33    32    1
    14    31    32    1
    15    35    32    1
    16    35    36    1
    17    44    43    1
    18    44    52   am
    19    48    50   ar
    20    48    47   ar
    21    37    36    1
    22    37    38    1
    23    43    42    1
    24    43    46    1
    25    50    51   ar
    26    38    39    2
    27    53    52    1
    28    53    56    1
    29    47    46    1
    30    47    49   ar
    31    51    49   ar
    32    39    41    1
    33    39    40    1
    34    56    57    1
    35    56    58    1
    36    27    29   ar
    37    27    26   ar
    38    29    30   ar
    39    22    23    1
    40    22    21    1
    41    22    25    1
    42    87    85    1
    43    23    24    2
    44    12    11    1
    45    12    13    2
    46    26    25    1
    47    26    28   ar
    48    11    14    1
    49    11    10    1
    50    14    15    1
    51    30    28   ar
    52    85    86    1
    53    85    84    2
    54    16    15    1
    55    16    17    1
    56     4     3    2
    57    10     3   am
    58    17    18    2
    59     3     2    1
    60    84    83    1
    61    76    74   ar
    62    74    75   ar
    63    74    73    1
    64    18    19    1
    65    18    20    1
    66    73    72    1
    67     2     5    1
    68     2     1    1
    69    83    82    1
    70     5     6    1
    71    68    69    1
    72    82    81    1
    73    72    69    1
    74    81    78    1
    75    69    70    1
    76     6     7    1
    77     7     8    1
    78    78    77    1
    79    78    79    1
    80     8     9    1
    81    70    71    2
    82    92    89    1
    83    88    79   am
    84    88    89    1
    85    79    80    2
    86    89    90    1
    87    90    91    2
    88    99   100    1
    89    99    98    1
    90   100   101    2
    91   102   101    1
    92   101   103    1
    93    98    97    1
    94    97    94    1
    95    93    94    1
    96    94    95    1
    97    95    96    2
