@<TRIPOS>MOLECULE
tmp/5l6vN01.pdb
 186 178 0 0 0
SMALL
GASTEIGER

@<TRIPOS>ATOM
      1  N         64.9810   54.7980  169.7640 N.3    17  LEU17      -0.1245
      2  CA        66.2870   55.3350  170.1190 C.3    17  LEU17       0.1561
      3  C         66.9320   55.8970  168.8610 C.2    17  LEU17       0.2260
      4  O         67.3960   55.1360  168.0030 O.2    17  LEU17      -0.2867
      5  CB        67.1580   54.2470  170.7470 C.3    17  LEU17       0.0270
      6  CG        66.5940   53.5870  172.0060 C.3    17  LEU17       0.0019
      7  CD1       67.4970   52.4610  172.4780 C.3    17  LEU17       0.0001
      8  CD2       66.4230   54.6290  173.1000 C.3    17  LEU17       0.0001
      9  N         69.6760   57.2050  168.3040 N.3    19  GLY19      -0.1225
     10  CA        71.1210   57.1250  168.2990 C.3    19  GLY19       0.1811
     11  C         71.9710   58.1310  169.0430 C.2    19  GLY19       0.2280
     12  O         71.6230   59.3060  169.1890 O.2    19  GLY19      -0.2866
     13  N         80.4080   55.4260  161.5230 N.3    24  ARG24      -0.1245
     14  CA        80.6890   54.3430  160.5850 C.3    24  ARG24       0.1563
     15  C         80.3280   54.7050  159.1490 C.2    24  ARG24       0.2260
     16  O         80.8030   54.0450  158.2180 O.2    24  ARG24      -0.2867
     17  CB        79.9430   53.0750  161.0070 C.3    24  ARG24       0.0307
     18  CG        80.3370   52.6260  162.3960 C.3    24  ARG24       0.0489
     19  CD        79.6010   51.3300  162.6650 C.3    24  ARG24       0.2205
     20  NE        80.0020   50.2950  161.6730 N.pl3  24  ARG24      -0.0865
     21  CZ        79.1180   49.2850  161.5490 C.cat  24  ARG24       0.5346
     22  NH1       78.0150   49.3520  162.2970 N.pl3  24  ARG24       0.1354
     23  NH2       79.3730   48.2980  160.7170 N.pl3  24  ARG24       0.1354
     24  N         72.2420   59.6780  161.8190 N.3    34  LYS34      -0.1245
     25  CA        72.0150   58.4960  160.9940 C.3    34  LYS34       0.1561
     26  C         70.5380   58.2170  160.7340 C.2    34  LYS34       0.2260
     27  O         70.2090   57.8430  159.5950 O.2    34  LYS34      -0.2867
     28  CB        72.7020   57.2710  161.6090 C.3    34  LYS34       0.0271
     29  CG        72.6740   56.0790  160.6670 C.3    34  LYS34       0.0035
     30  CD        73.2550   54.8170  161.2680 C.3    34  LYS34       0.0206
     31  CE        73.0890   53.6660  160.2920 C.3    34  LYS34       0.1093
     32  NZ        73.4490   52.3460  160.8720 N.3    34  LYS34      -0.1314
     33  N         72.7120   52.8150  176.0340 N.3   109  THR109     -0.1218
     34  CA        71.4200   53.0630  175.4040 C.3   109  THR109      0.1862
     35  C         70.2840   53.0900  176.4190 C.2   109  THR109      0.2287
     36  O         69.3230   53.8490  176.2460 O.2   109  THR109     -0.2866
     37  CB        71.1440   51.9950  174.3440 C.3   109  THR109      0.1770
     38  OG1       71.3480   50.6920  174.9090 O.3   109  THR109     -0.2211
     39  CG2       72.0690   52.1790  173.1530 C.3   109  THR109      0.0375
     40  N         65.2510   50.5680  167.3440 N.3   132  ALA132     -0.1245
     41  CA        66.4090   51.2780  166.8170 C.3   132  ALA132      0.1562
     42  C         65.9690   52.0980  165.6100 C.2   132  ALA132      0.2260
     43  O         65.4130   51.5510  164.6520 O.2   132  ALA132     -0.2867
     44  CB        67.5210   50.3020  166.4360 C.3   132  ALA132      0.0290
     45  N         67.6790   53.6180  163.2610 N.3   134  ASP134     -0.1225
     46  CA        68.6140   53.7520  162.1480 C.3   134  ASP134      0.1805
     47  C         68.6760   52.4980  161.2840 C.2   134  ASP134      0.2597
     48  O         69.6670   52.2910  160.5760 O.2   134  ASP134     -0.2718
     49  CB        70.0140   54.0980  162.6550 C.3   134  ASP134      0.1424
     50  CG        70.5800   53.0290  163.5660 C.2   134  ASP134      0.3668
     51  OD1       69.8370   52.5330  164.4370 O.co2 134  ASP134     -0.2456
     52  OD2       71.7660   52.6740  163.3980 O.co2 134  ASP134     -0.2456
     53  N         67.6430   51.6620  161.3100 N.am  135  HIS135     -0.1975
     54  CA        67.6070   50.4520  160.5030 C.3   135  HIS135      0.1656
     55  C         66.4350   50.5030  159.5330 C.2   135  HIS135      0.2291
     56  O         65.4330   51.1810  159.7780 O.2   135  HIS135     -0.2864
     57  CB        67.5140   49.1990  161.3840 C.3   135  HIS135      0.0771
     58  CG        68.6710   49.0320  162.3200 C.ar  135  HIS135      0.0820
     59  ND1       68.5970   48.2710  163.4670 N.ar  135  HIS135     -0.2267
     60  CD2       69.9300   49.5280  162.2790 C.ar  135  HIS135      0.1154
     61  CE1       69.7620   48.3040  164.0910 C.ar  135  HIS135      0.1986
     62  NE2       70.5880   49.0600  163.3900 N.ar  135  HIS135     -0.2212
     63  N         79.4220   42.1830  165.7530 N.3   169  ALA169     -0.1231
     64  CA        78.8110   43.4980  165.9000 C.3   169  ALA169      0.1694
     65  C         77.4470   43.4470  166.5750 C.2   169  ALA169      0.2592
     66  O         76.8460   44.5000  166.8070 O.2   169  ALA169     -0.2718
     67  CB        78.6790   44.1750  164.5310 C.3   169  ALA169      0.0304
     68  N         76.9500   42.2560  166.8890 N.am  170  PHE170     -0.1962
     69  CA        75.6060   42.0390  167.4020 C.3   170  PHE170      0.1771
     70  C         75.6530   41.3930  168.7790 C.2   170  PHE170      0.2620
     71  O         76.6800   40.8710  169.2210 O.2   170  PHE170     -0.2715
     72  CB        74.8140   41.1460  166.4410 C.3   170  PHE170      0.0574
     73  CG        74.6110   41.7480  165.0920 C.ar  170  PHE170     -0.0200
     74  CD1       73.9460   42.9520  164.9520 C.ar  170  PHE170     -0.0042
     75  CD2       75.1420   41.1430  163.9680 C.ar  170  PHE170     -0.0042
     76  CE1       73.7710   43.5200  163.7070 C.ar  170  PHE170     -0.0003
     77  CE2       74.9770   41.7070  162.7210 C.ar  170  PHE170     -0.0003
     78  CZ        74.2900   42.8990  162.5900 C.ar  170  PHE170     -0.0000
     79  N         74.5100   41.4340  169.4590 N.am  171  GLY171     -0.1954
     80  CA        74.3020   40.5730  170.6070 C.3   171  GLY171      0.1869
     81  C         73.8840   39.1940  170.1340 C.2   171  GLY171      0.2309
     82  O         72.9460   39.0550  169.3430 O.2   171  GLY171     -0.2863
     83  N         73.2490   34.6680  176.5450 N.3   184  PHE184     -0.1241
     84  CA        73.2990   35.9290  175.8180 C.3   184  PHE184      0.1605
     85  C         74.6370   36.6040  176.0800 C.2   184  PHE184      0.2264
     86  O         75.0230   36.7890  177.2370 O.2   184  PHE184     -0.2867
     87  CB        72.1440   36.8550  176.2200 C.3   184  PHE184      0.0534
     88  CG        72.0580   38.1090  175.3940 C.ar  184  PHE184     -0.0203
     89  CD1       72.7850   39.2380  175.7370 C.ar  184  PHE184     -0.0042
     90  CD2       71.2490   38.1550  174.2700 C.ar  184  PHE184     -0.0042
     91  CE1       72.7080   40.3880  174.9730 C.ar  184  PHE184     -0.0003
     92  CE2       71.1670   39.3030  173.5030 C.ar  184  PHE184     -0.0003
     93  CZ        71.8970   40.4210  173.8550 C.ar  184  PHE184     -0.0000
     94  N         76.9540   40.0500  174.5740 N.3   186  GLU186     -0.1231
     95  CA        76.8710   41.2770  173.7910 C.3   186  GLU186      0.1699
     96  C         78.1850   41.5130  173.0560 C.2   186  GLU186      0.2592
     97  O         79.2340   41.6820  173.6890 O.2   186  GLU186     -0.2718
     98  CB        76.5350   42.4730  174.6830 C.3   186  GLU186      0.0402
     99  CG        76.7110   43.8280  174.0050 C.3   186  GLU186      0.1161
    100  CD        75.6020   44.1520  173.0130 C.2   186  GLU186      0.3649
    101  OE1       74.7030   43.3100  172.8100 O.co2 186  GLU186     -0.2457
    102  OE2       75.6300   45.2590  172.4350 O.co2 186  GLU186     -0.2457
    103  N         78.1160   41.5290  171.7270 N.am  187  LYS187     -0.1980
    104  CA        79.2620   41.7860  170.8610 C.3   187  LYS187      0.1596
    105  C         80.4770   40.9050  171.1960 C.2   187  LYS187      0.2287
    106  O         81.5290   41.4210  171.5710 O.2   187  LYS187     -0.2864
    107  CB        79.6410   43.2590  170.9020 C.3   187  LYS187      0.0298
    108  CG        78.5100   44.1920  170.5100 C.3   187  LYS187      0.0038
    109  CD        78.9990   45.6140  170.2940 C.3   187  LYS187      0.0206
    110  CE        77.8270   46.5570  170.0650 C.3   187  LYS187      0.1093
    111  NZ        78.0990   47.5430  168.9830 N.3   187  LYS187     -0.1314
    112  N         70.6350   39.4290  167.9220 N.3   204  SER204     -0.1202
    113  CA        69.5910   40.3460  168.3520 C.3   204  SER204      0.2020
    114  C         69.4880   41.5210  167.3880 C.2   204  SER204      0.2619
    115  O         70.4980   42.0480  166.9150 O.2   204  SER204     -0.2717
    116  CB        69.8760   40.8510  169.7660 C.3   204  SER204      0.2103
    117  OG        69.0770   41.9790  170.0750 O.3   204  SER204     -0.2182
    118  N         68.2560   41.9240  167.0930 N.am  205  MET205     -0.1965
    119  CA        67.9840   42.9980  166.1490 C.3   205  MET205      0.1736
    120  C         67.8240   44.3570  166.8230 C.2   205  MET205      0.2617
    121  O         67.4750   45.3310  166.1480 O.2   205  MET205     -0.2715
    122  CB        66.7250   42.6670  165.3440 C.3   205  MET205      0.0427
    123  CG        66.8190   41.3480  164.5970 C.3   205  MET205      0.0599
    124  SD        65.2920   40.8470  163.7760 S.3   205  MET205     -0.1393
    125  CE        65.1030   42.1430  162.5610 C.3   205  MET205      0.0692
    126  N         68.0820   44.4490  168.1260 N.am  206  GLY206     -0.1955
    127  CA        67.8560   45.6930  168.8360 C.3   206  GLY206      0.1869
    128  C         66.4030   46.0890  168.9430 C.2   206  GLY206      0.2309
    129  O         66.0980   47.2730  169.1090 O.2   206  GLY206     -0.2863
    130  N         62.9390   45.2690  171.0640 N.3   208  TYR208     -0.1241
    131  CA        62.4890   44.6380  172.2950 C.3   208  TYR208      0.1605
    132  C         61.0340   44.9780  172.5810 C.2   208  TYR208      0.2264
    133  O         60.5390   46.0470  172.2110 O.2   208  TYR208     -0.2867
    134  CB        63.3470   45.0600  173.4970 C.3   208  TYR208      0.0534
    135  CG        64.8180   45.2230  173.1930 C.ar  208  TYR208     -0.0201
    136  CD1       65.5900   44.1420  172.7920 C.ar  208  TYR208     -0.0009
    137  CD2       65.4390   46.4570  173.3290 C.ar  208  TYR208     -0.0009
    138  CE1       66.9360   44.2900  172.5180 C.ar  208  TYR208      0.0417
    139  CE2       66.7830   46.6150  173.0600 C.ar  208  TYR208      0.0417
    140  CZ        67.5280   45.5290  172.6550 C.ar  208  TYR208      0.1957
    141  OH        68.8690   45.6820  172.3870 O.3   208  TYR208     -0.2866
    142  N         73.5600   49.8440  179.4440 N.3   231  ASP231     -0.1225
    143  CA        73.2980   49.5310  178.0470 C.3   231  ASP231      0.1805
    144  C         72.3310   48.3590  177.9790 C.2   231  ASP231      0.2598
    145  O         72.4220   47.4260  178.7840 O.2   231  ASP231     -0.2718
    146  CB        74.5990   49.1940  177.3080 C.3   231  ASP231      0.1424
    147  CG        74.4090   49.0780  175.8100 C.2   231  ASP231      0.3668
    148  OD1       74.2920   50.1270  175.1410 O.co2 231  ASP231     -0.2456
    149  OD2       74.3780   47.9380  175.3000 O.co2 231  ASP231     -0.2456
    150  N         71.3950   48.4150  177.0270 N.am  232  PHE232     -0.1962
    151  CA        70.4190   47.3370  176.8880 C.3   232  PHE232      0.1771
    152  C         71.1080   46.0020  176.6400 C.2   232  PHE232      0.2620
    153  O         70.8660   45.0230  177.3540 O.2   232  PHE232     -0.2715
    154  CB        69.4350   47.6510  175.7580 C.3   232  PHE232      0.0574
    155  CG        68.2860   48.5240  176.1740 C.ar  232  PHE232     -0.0200
    156  CD1       67.2560   48.0130  176.9480 C.ar  232  PHE232     -0.0042
    157  CD2       68.2240   49.8480  175.7730 C.ar  232  PHE232     -0.0042
    158  CE1       66.1950   48.8120  177.3280 C.ar  232  PHE232     -0.0003
    159  CE2       67.1630   50.6510  176.1480 C.ar  232  PHE232     -0.0003
    160  CZ        66.1480   50.1330  176.9270 C.ar  232  PHE232     -0.0000
    161  N         71.9880   45.9480  175.6430 N.am  233  GLY233     -0.1954
    162  CA        72.6200   44.6970  175.2720 C.3   233  GLY233      0.1869
    163  C         73.7070   44.2440  176.2240 C.2   233  GLY233      0.2309
    164  O         73.8050   43.0550  176.5450 O.2   233  GLY233     -0.2863
    165  N         66.2170   42.9990  156.2670 N.3   266  TRP266     -0.1241
    166  CA        66.6340   43.8320  157.3910 C.3   266  TRP266      0.1605
    167  C         68.0410   44.3390  157.1170 C.2   266  TRP266      0.2264
    168  O         68.9620   43.5410  156.9240 O.2   266  TRP266     -0.2867
    169  CB        66.5840   43.0510  158.7040 C.3   266  TRP266      0.0550
    170  CG        66.9410   43.8700  159.9030 C.ar  266  TRP266      0.0003
    171  CD1       66.1040   44.6510  160.6460 C.ar  266  TRP266      0.0946
    172  CD2       68.2350   43.9850  160.5040 C.ar  266  TRP266      0.0152
    173  NE1       66.7980   45.2450  161.6730 N.ar  266  TRP266     -0.2442
    174  CE2       68.1090   44.8530  161.6060 C.ar  266  TRP266      0.0810
    175  CE3       69.4890   43.4390  160.2140 C.ar  266  TRP266      0.0012
    176  CZ2       69.1900   45.1870  162.4190 C.ar  266  TRP266      0.0191
    177  CZ3       70.5590   43.7710  161.0220 C.ar  266  TRP266      0.0001
    178  CH2       70.4040   44.6380  162.1110 C.ar  266  TRP266      0.0015
    179  N         70.9780   47.1510  158.5200 N.3   268  ASP268     -0.1239
    180  CA        71.4210   48.0990  159.5340 C.3   268  ASP268      0.1674
    181  C         72.1480   49.2980  158.9390 C.2   268  ASP268      0.2266
    182  O         72.4900   50.2240  159.6850 O.2   268  ASP268     -0.2867
    183  CB        72.3020   47.4000  160.5830 C.3   268  ASP268      0.1410
    184  CG        73.6290   46.9200  160.0250 C.2   268  ASP268      0.3668
    185  OD1       73.7550   46.7470  158.7950 O.co2 268  ASP268     -0.2456
    186  OD2       74.5540   46.7060  160.8400 O.co2 268  ASP268     -0.2456
@<TRIPOS>BOND
     1   165   166    1
     2   168   167    2
     3   167   166    1
     4   166   169    1
     5    16    15    2
     6   179   180    1
     7   169   170    1
     8   185   184   ar
     9   181   180    1
    10   181   182    2
    11    15    14    1
    12    55    56    2
    13    55    54    1
    14   180   183    1
    15    27    26    2
    16   170   172   ar
    17   170   171   ar
    18   184   183    1
    19   184   186   ar
    20   175   172   ar
    21   175   177   ar
    22    31    32    1
    23    31    30    1
    24    54    53    1
    25    54    57    1
    26   172   174   ar
    27    48    47    2
    28    14    17    1
    29    14    13    1
    30   171   173   ar
    31    29    30    1
    32    29    28    1
    33    23    21    1
    34    26    25    1
    35    25    28    1
    36    25    24    1
    37    17    18    1
    38   177   178   ar
    39    47    53   am
    40    47    46    1
    41    57    58    1
    42    21    20    2
    43    21    22    1
    44   174   173   ar
    45   174   176   ar
    46    20    19    1
    47   178   176   ar
    48    46    49    1
    49    46    45    1
    50    60    58   ar
    51    60    62   ar
    52    58    59   ar
    53    18    19    1
    54   125   124    1
    55    78    77   ar
    56    78    76   ar
    57    49    50    1
    58    77    75   ar
    59    62    61   ar
    60    52    50   ar
    61    59    61   ar
    62    50    51   ar
    63    76    74   ar
    64   124   123    1
    65    75    73   ar
    66    67    64    1
    67   123   122    1
    68    43    42    2
    69    74    73   ar
    70    73    72    1
    71   122   119    1
    72    42    41    1
    73    63    64    1
    74    64    65    1
    75   121   120    2
    76   119   120    1
    77   119   118    1
    78    44    41    1
    79    72    69    1
    80    65    66    2
    81    65    68   am
    82    41    40    1
    83   120   126   am
    84    68    69    1
    85   115   114    2
    86   118   114   am
    87   114   113    1
    88    69    70    1
    89   112   113    1
    90     4     3    2
    91   126   127    1
    92    10     9    1
    93    10    11    1
    94   113   116    1
    95    70    71    2
    96    70    79   am
    97   127   128    1
    98     3     2    1
    99   128   129    2
   100   111   110    1
   101    11    12    2
   102    82    81    2
   103    79    80    1
   104     1     2    1
   105   116   117    1
   106   110   109    1
   107     2     5    1
   108    81    80    1
   109   109   108    1
   110   108   107    1
   111     5     6    1
   112   104   107    1
   113   104   105    1
   114   104   103    1
   115   130   131    1
   116   105   106    2
   117   103    96   am
   118     6     7    1
   119     6     8    1
   120   133   132    2
   121   131   132    1
   122   131   134    1
   123   141   140    1
   124   102   100   ar
   125   138   140   ar
   126   138   136   ar
   127   140   139   ar
   128   136   135   ar
   129   101   100   ar
   130   100    99    1
   131    96    97    2
   132    96    95    1
   133   139   137   ar
   134    39    37    1
   135   135   137   ar
   136   135   134    1
   137    92    93   ar
   138    92    90   ar
   139    95    94    1
   140    95    98    1
   141    93    91   ar
   142    99    98    1
   143    90    88   ar
   144    37    38    1
   145    37    34    1
   146    91    89   ar
   147   148   147   ar
   148   162   161    1
   149   162   163    1
   150   149   147   ar
   151    88    89   ar
   152    88    87    1
   153    34    33    1
   154    34    35    1
   155   161   152   am
   156   154   155    1
   157   154   151    1
   158   157   159   ar
   159   157   155   ar
   160   147   146    1
   161    84    85    1
   162    84    87    1
   163    84    83    1
   164    85    86    2
   165   159   160   ar
   166   155   156   ar
   167   163   164    2
   168    36    35    2
   169   152   151    1
   170   152   153    2
   171   151   150    1
   172   160   158   ar
   173   156   158   ar
   174   150   144   am
   175   146   143    1
   176   144   143    1
   177   144   145    2
   178   143   142    1
