@<TRIPOS>MOLECULE
tmp/5l6vI01.pdb
 178 171 0 0 0
SMALL
GASTEIGER

@<TRIPOS>ATOM
      1  N         64.4300   85.4140   59.6820 N.3    20  GLY20      -0.1225
      2  CA        64.5000   86.2180   58.4760 C.3    20  GLY20       0.1811
      3  C         65.1440   85.4750   57.3220 C.2    20  GLY20       0.2280
      4  O         66.0440   84.6510   57.4930 O.2    20  GLY20      -0.2866
      5  N         67.1090   90.1510   49.8600 N.3    24  ARG24      -0.1245
      6  CA        67.9990   91.0530   49.1400 C.3    24  ARG24       0.1563
      7  C         69.4380   90.5540   49.0990 C.2    24  ARG24       0.2260
      8  O         70.2620   91.1560   48.4020 O.2    24  ARG24      -0.2867
      9  CB        67.9470   92.4480   49.7640 C.3    24  ARG24       0.0307
     10  CG        66.5610   93.0810   49.7670 C.3    24  ARG24       0.0489
     11  CD        66.6820   94.5900   49.9710 C.3    24  ARG24       0.2205
     12  NE        67.3460   94.8990   51.2380 N.pl3  24  ARG24      -0.0865
     13  CZ        66.7260   95.0460   52.4030 C.cat  24  ARG24       0.5346
     14  NH1       65.4070   94.9230   52.4950 N.pl3  24  ARG24       0.1354
     15  NH2       67.4210   95.3310   53.5000 N.pl3  24  ARG24       0.1354
     16  N         69.3720   84.0710   57.1580 N.3    34  LYS34      -0.1245
     17  CA        70.2580   85.2280   57.2490 C.3    34  LYS34       0.1561
     18  C         71.0400   85.2960   58.5590 C.2    34  LYS34       0.2260
     19  O         72.2270   85.6630   58.5120 O.2    34  LYS34      -0.2867
     20  CB        69.4640   86.5220   57.0260 C.3    34  LYS34       0.0271
     21  CG        70.3570   87.7430   56.8640 C.3    34  LYS34       0.0035
     22  CD        69.5640   89.0330   56.7660 C.3    34  LYS34       0.0206
     23  CE        70.4930   90.2380   56.7790 C.3    34  LYS34       0.1093
     24  NZ        69.7530   91.5260   56.8730 N.3    34  LYS34      -0.1314
     25  N         56.2370   88.9020   62.2790 N.3    98  THR98      -0.1218
     26  CA        57.2720   88.7940   63.3000 C.3    98  THR98       0.1862
     27  C         56.6610   88.6470   64.6890 C.2    98  THR98       0.2287
     28  O         57.1570   87.8820   65.5170 O.2    98  THR98      -0.2866
     29  CB        58.2090   90.0140   63.2850 C.3    98  THR98       0.1770
     30  OG1       57.4330   91.2160   63.3700 O.3    98  THR98      -0.2211
     31  CG2       59.0350   90.0350   62.0080 C.3    98  THR98       0.0375
     32  N         66.6430   91.6380   66.8510 N.3   121  ALA121     -0.1245
     33  CA        66.7640   91.1400   65.4880 C.3   121  ALA121      0.1562
     34  C         68.0860   90.3940   65.3610 C.2   121  ALA121      0.2260
     35  O         69.1530   90.9670   65.6070 O.2   121  ALA121     -0.2867
     36  CB        66.6860   92.2860   64.4810 C.3   121  ALA121      0.0290
     37  N         69.6830   89.2710   62.7470 N.3   123  ASP123     -0.1225
     38  CA        70.3470   89.3430   61.4510 C.3   123  ASP123      0.1805
     39  C         71.1320   90.6380   61.2700 C.2   123  ASP123      0.2597
     40  O         71.4400   91.0170   60.1360 O.2   123  ASP123     -0.2718
     41  CB        69.3280   89.1800   60.3220 C.3   123  ASP123      0.1424
     42  CG        68.2470   90.2410   60.3550 C.2   123  ASP123      0.3668
     43  OD1       67.7640   90.5650   61.4610 O.co2 123  ASP123     -0.2456
     44  OD2       67.8840   90.7550   59.2760 O.co2 123  ASP123     -0.2456
     45  N         71.4760   91.3180   62.3600 N.am  124  HIS124     -0.1975
     46  CA        72.2160   92.5690   62.2980 C.3   124  HIS124      0.1656
     47  C         73.5290   92.4400   63.0600 C.2   124  HIS124      0.2291
     48  O         73.6900   91.5740   63.9250 O.2   124  HIS124     -0.2864
     49  CB        71.3870   93.7310   62.8610 C.3   124  HIS124      0.0771
     50  CG        70.0870   93.9440   62.1480 C.ar  124  HIS124      0.0820
     51  ND1       69.0390   94.6450   62.7050 N.ar  124  HIS124     -0.2267
     52  CD2       69.6660   93.5500   60.9230 C.ar  124  HIS124      0.1154
     53  CE1       68.0280   94.6720   61.8550 C.ar  124  HIS124      0.1986
     54  NE2       68.3830   94.0150   60.7650 N.ar  124  HIS124     -0.2212
     55  N         63.0570  101.8270   54.1650 N.3   158  ALA158     -0.1231
     56  CA        63.1320  100.4340   54.5820 C.3   158  ALA158      0.1694
     57  C         62.9980  100.2620   56.0880 C.2   158  ALA158      0.2592
     58  O         63.0040   99.1250   56.5720 O.2   158  ALA158     -0.2718
     59  CB        64.4520   99.8130   54.1100 C.3   158  ALA158      0.0304
     60  N         62.8740  101.3550   56.8340 N.am  159  PHE159     -0.1962
     61  CA        62.8810  101.3450   58.2880 C.3   159  PHE159      0.1771
     62  C         61.5370  101.8240   58.8180 C.2   159  PHE159      0.2620
     63  O         60.7110  102.3790   58.0890 O.2   159  PHE159     -0.2715
     64  CB        63.9940  102.2470   58.8460 C.3   159  PHE159      0.0574
     65  CG        65.3890  101.7150   58.6460 C.ar  159  PHE159     -0.0200
     66  CD1       65.8240  101.2880   57.4020 C.ar  159  PHE159     -0.0042
     67  CD2       66.2820  101.6830   59.7040 C.ar  159  PHE159     -0.0042
     68  CE1       67.1070  100.8140   57.2250 C.ar  159  PHE159     -0.0003
     69  CE2       67.5690  101.2140   59.5320 C.ar  159  PHE159     -0.0003
     70  CZ        67.9820  100.7780   58.2900 C.ar  159  PHE159     -0.0000
     71  N         61.3280  101.6040   60.1150 N.am  160  GLY160     -0.1954
     72  CA        60.2650  102.2930   60.8240 C.3   160  GLY160      0.1869
     73  C         60.7770  103.6420   61.2930 C.2   160  GLY160      0.2309
     74  O         61.8150  103.7270   61.9580 O.2   160  GLY160     -0.2863
     75  N         54.6650  107.4700   64.5930 N.3   172  PHE172     -0.1241
     76  CA        55.4000  106.3190   64.0860 C.3   172  PHE172      0.1605
     77  C         54.7440  105.8310   62.8030 C.2   172  PHE172      0.2264
     78  O         53.5340  105.5850   62.7760 O.2   172  PHE172     -0.2867
     79  CB        55.4470  105.1880   65.1210 C.3   172  PHE172      0.0534
     80  CG        56.3100  104.0240   64.7120 C.ar  172  PHE172     -0.0203
     81  CD1       55.7850  102.9790   63.9680 C.ar  172  PHE172     -0.0042
     82  CD2       57.6460  103.9760   65.0750 C.ar  172  PHE172     -0.0042
     83  CE1       56.5770  101.9110   63.5900 C.ar  172  PHE172     -0.0003
     84  CE2       58.4430  102.9090   64.7010 C.ar  172  PHE172     -0.0003
     85  CZ        57.9070  101.8750   63.9580 C.ar  172  PHE172     -0.0000
     86  N         55.5630  102.9190   59.6400 N.3   174  GLU174     -0.1231
     87  CA        56.3800  101.7580   59.3070 C.3   174  GLU174      0.1699
     88  C         56.6280  101.7170   57.8030 C.2   174  GLU174      0.2592
     89  O         55.6790  101.6260   57.0160 O.2   174  GLU174     -0.2718
     90  CB        55.7050  100.4690   59.7740 C.3   174  GLU174      0.0402
     91  CG        56.3770   99.1800   59.3780 C.3   174  GLU174      0.1161
     92  CD        57.7490   98.9580   59.9780 C.2   174  GLU174      0.3649
     93  OE1       58.0640   99.5150   61.0450 O.co2 174  GLU174     -0.2457
     94  OE2       58.5520   98.2010   59.3800 O.co2 174  GLU174     -0.2457
     95  N         57.9000  101.7740   57.4180 N.am  175  LYS175     -0.1980
     96  CA        58.3230  101.7080   56.0230 C.3   175  LYS175      0.1596
     97  C         57.5930  102.7160   55.1300 C.2   175  LYS175      0.2287
     98  O         56.9090  102.3270   54.1780 O.2   175  LYS175     -0.2864
     99  CB        58.1540  100.2950   55.4830 C.3   175  LYS175      0.0298
    100  CG        59.0300   99.2220   56.1580 C.3   175  LYS175      0.0038
    101  CD        59.0300   97.9780   55.2580 C.3   175  LYS175      0.0206
    102  CE        59.3860   96.7160   55.9640 C.3   175  LYS175      0.1093
    103  NZ        60.8220   96.6020   56.3510 N.3   175  LYS175     -0.1314
    104  N         63.8270  103.2980   63.5410 N.3   192  SER192     -0.1202
    105  CA        63.7620  102.2260   64.5230 C.3   192  SER192      0.2020
    106  C         64.7450  101.1260   64.1460 C.2   192  SER192      0.2619
    107  O         64.8690  100.7630   62.9730 O.2   192  SER192     -0.2717
    108  CB        62.3440  101.6580   64.6060 C.3   192  SER192      0.2103
    109  OG        62.3240  100.4230   65.3010 O.3   192  SER192     -0.2182
    110  N         65.4450  100.5990   65.1460 N.am  193  MET193     -0.1965
    111  CA        66.4770   99.5950   64.9270 C.3   193  MET193      0.1736
    112  C         65.9640   98.1690   65.0750 C.2   193  MET193      0.2617
    113  O         66.7610   97.2280   65.0050 O.2   193  MET193     -0.2715
    114  CB        67.6450   99.8260   65.8900 C.3   193  MET193      0.0427
    115  CG        68.2790  101.1980   65.7640 C.3   193  MET193      0.0599
    116  SD        69.5600  101.4980   66.9950 S.3   193  MET193     -0.1393
    117  CE        70.7390  100.2230   66.5670 C.3   193  MET193      0.0692
    118  N         64.6600   97.9850   65.2680 N.am  194  GLY194     -0.1955
    119  CA        64.1350   96.6540   65.4980 C.3   194  GLY194      0.1869
    120  C         64.5210   96.0560   66.8300 C.2   194  GLY194      0.2309
    121  O         64.4840   94.8330   66.9850 O.2   194  GLY194     -0.2863
    122  N         63.6890   96.2230   70.9040 N.3   196  TYR196     -0.1241
    123  CA        62.6660   96.6920   71.8260 C.3   196  TYR196      0.1605
    124  C         62.8950   96.1290   73.2200 C.2   196  TYR196      0.2264
    125  O         63.4270   95.0290   73.3910 O.2   196  TYR196     -0.2867
    126  CB        61.2590   96.3020   71.3560 C.3   196  TYR196      0.0534
    127  CG        61.0720   96.3280   69.8580 C.ar  196  TYR196     -0.0201
    128  CD1       61.1300   97.5210   69.1500 C.ar  196  TYR196     -0.0009
    129  CD2       60.8210   95.1590   69.1530 C.ar  196  TYR196     -0.0009
    130  CE1       60.9560   97.5460   67.7800 C.ar  196  TYR196      0.0417
    131  CE2       60.6440   95.1740   67.7850 C.ar  196  TYR196      0.0417
    132  CZ        60.7120   96.3700   67.1030 C.ar  196  TYR196      0.1957
    133  OH        60.5360   96.3880   65.7390 O.3   196  TYR196     -0.2866
    134  N         52.7340   91.9390   63.0390 N.3   213  ASP213     -0.1225
    135  CA        54.0970   92.4360   62.9060 C.3   213  ASP213      0.1805
    136  C         54.3800   93.5050   63.9580 C.2   213  ASP213      0.2598
    137  O         53.5110   94.3160   64.2800 O.2   213  ASP213     -0.2718
    138  CB        54.3280   92.9930   61.4990 C.3   213  ASP213      0.1424
    139  CG        55.7890   93.2880   61.2210 C.2   213  ASP213      0.3668
    140  OD1       56.5400   92.3380   60.9120 O.co2 213  ASP213     -0.2456
    141  OD2       56.1830   94.4710   61.3030 O.co2 213  ASP213     -0.2456
    142  N         55.6030   93.4880   64.4930 N.am  214  PHE214     -0.1962
    143  CA        55.9760   94.4670   65.5110 C.3   214  PHE214      0.1771
    144  C         55.9080   95.8880   64.9670 C.2   214  PHE214      0.2620
    145  O         55.2630   96.7590   65.5610 O.2   214  PHE214     -0.2715
    146  CB        57.3790   94.1610   66.0420 C.3   214  PHE214      0.0574
    147  CG        57.4110   93.1310   67.1380 C.ar  214  PHE214     -0.0200
    148  CD1       57.5090   91.7810   66.8390 C.ar  214  PHE214     -0.0042
    149  CD2       57.3520   93.5130   68.4690 C.ar  214  PHE214     -0.0042
    150  CE1       57.5430   90.8340   67.8470 C.ar  214  PHE214     -0.0003
    151  CE2       57.3850   92.5700   69.4800 C.ar  214  PHE214     -0.0003
    152  CZ        57.4800   91.2290   69.1680 C.ar  214  PHE214     -0.0000
    153  N         56.5650   96.1470   63.8370 N.am  215  GLY215     -0.1954
    154  CA        56.6620   97.5150   63.3560 C.3   215  GLY215      0.1869
    155  C         55.3770   98.0060   62.7130 C.2   215  GLY215      0.2309
    156  O         54.9760   99.1560   62.8980 O.2   215  GLY215     -0.2863
    157  N         76.5170  100.1300   63.3360 N.3   244  TRP244     -0.1241
    158  CA        75.3460   99.2840   63.1530 C.3   244  TRP244      0.1605
    159  C         75.1310   98.9730   61.6720 C.2   244  TRP244      0.2264
    160  O         74.9480   99.8780   60.8520 O.2   244  TRP244     -0.2867
    161  CB        74.1020   99.9450   63.7500 C.3   244  TRP244      0.0550
    162  CG        72.8840   99.0740   63.7140 C.ar  244  TRP244      0.0003
    163  CD1       72.5190   98.1310   64.6330 C.ar  244  TRP244      0.0946
    164  CD2       71.8710   99.0590   62.7000 C.ar  244  TRP244      0.0152
    165  NE1       71.3390   97.5350   64.2550 N.ar  244  TRP244     -0.2442
    166  CE2       70.9210   98.0860   63.0720 C.ar  244  TRP244      0.0810
    167  CE3       71.6750   99.7740   61.5150 C.ar  244  TRP244      0.0012
    168  CZ2       69.7920   97.8110   62.3010 C.ar  244  TRP244      0.0191
    169  CZ3       70.5520   99.5000   60.7510 C.ar  244  TRP244      0.0001
    170  CH2       69.6260   98.5270   61.1470 C.ar  244  TRP244      0.0015
    171  N         72.9120   96.6030   58.9770 N.3   246  ASP246     -0.1239
    172  CA        71.8180   95.6740   58.7420 C.3   246  ASP246      0.1674
    173  C         72.1550   94.6250   57.6910 C.2   246  ASP246      0.2266
    174  O         71.4230   93.6350   57.5790 O.2   246  ASP246     -0.2867
    175  CB        70.5480   96.4340   58.3420 C.3   246  ASP246      0.1410
    176  CG        70.6830   97.1550   57.0130 C.2   246  ASP246      0.3668
    177  OD1       71.8230   97.3480   56.5400 O.co2 246  ASP246     -0.2456
    178  OD2       69.6380   97.5380   56.4440 O.co2 246  ASP246     -0.2456
@<TRIPOS>BOND
     1     8     7    2
     2     7     6    1
     3     6     9    1
     4     6     5    1
     5     9    10    1
     6    10    11    1
     7    11    12    1
     8    12    13    2
     9    13    14    1
    10    13    15    1
    11    59    56    1
    12    55    56    1
    13    98    97    2
    14    56    57    1
    15    97    96    1
    16   101   102    1
    17   101   100    1
    18    99    96    1
    19    99   100    1
    20   102   103    1
    21    96    95    1
    22    57    58    2
    23    57    60   am
    24   178   176   ar
    25   177   176   ar
    26    22    23    1
    27    22    21    1
    28    23    24    1
    29    60    61    1
    30    21    20    1
    31   176   175    1
    32    89    88    2
    33    20    17    1
    34    16    17    1
    35    68    66   ar
    36    68    70   ar
    37    17    18    1
    38     3     4    2
    39     3     2    1
    40    66    65   ar
    41    95    88   am
    42   174   173    2
    43   173   172    1
    44    88    87    1
    45    63    62    2
    46    61    62    1
    47    61    64    1
    48    70    69   ar
    49   175   172    1
    50     2     1    1
    51    19    18    2
    52    65    64    1
    53    65    67   ar
    54   172   171    1
    55    62    71   am
    56    44    42   ar
    57    87    86    1
    58    87    90    1
    59    91    90    1
    60    91    92    1
    61    94    92   ar
    62    69    67   ar
    63    92    93   ar
    64    71    72    1
    65    40    39    2
    66    41    42    1
    67    41    38    1
    68    42    43   ar
    69   169   170   ar
    70   169   167   ar
    71    54    52   ar
    72    54    53   ar
    73    72    73    1
    74   160   159    2
    75   140   139   ar
    76    52    50   ar
    77   170   168   ar
    78   139   141   ar
    79   139   138    1
    80    39    38    1
    81    39    45   am
    82    73    74    2
    83    38    37    1
    84   138   135    1
    85   167   164   ar
    86   159   158    1
    87    53    51   ar
    88    31    29    1
    89    50    51   ar
    90    50    49    1
    91    25    26    1
    92    46    45    1
    93    46    49    1
    94    46    47    1
    95   168   166   ar
    96   164   166   ar
    97   164   162   ar
    98   155   156    2
    99   155   154    1
   100    78    77    2
   101    77    76    1
   102   135   134    1
   103   135   136    1
   104   107   106    2
   105    47    48    2
   106   166   165   ar
   107   158   157    1
   108   158   161    1
   109    29    26    1
   110    29    30    1
   111    26    27    1
   112   154   153    1
   113   104   105    1
   114    83    85   ar
   115    83    81   ar
   116   162   161    1
   117   162   163   ar
   118   153   144   am
   119    85    84   ar
   120   136   137    2
   121   136   142   am
   122    81    80   ar
   123    76    75    1
   124    76    79    1
   125   106   105    1
   126   106   110   am
   127   165   163   ar
   128    36    33    1
   129   142   143    1
   130   105   108    1
   131   108   109    1
   132    27    28    2
   133    84    82   ar
   134    80    82   ar
   135    80    79    1
   136   111   112    1
   137   111   110    1
   138   111   114    1
   139   144   143    1
   140   144   145    2
   141   113   112    2
   142   112   118   am
   143   118   119    1
   144    34    33    1
   145    34    35    2
   146    33    32    1
   147   119   120    1
   148   143   146    1
   149   133   132    1
   150   115   114    1
   151   115   116    1
   152   146   147    1
   153   117   116    1
   154   120   121    2
   155   148   147   ar
   156   148   150   ar
   157   132   130   ar
   158   132   131   ar
   159   147   149   ar
   160   130   128   ar
   161   131   129   ar
   162   150   152   ar
   163   149   151   ar
   164   128   127   ar
   165   129   127   ar
   166   152   151   ar
   167   127   126    1
   168   122   123    1
   169   126   123    1
   170   123   124    1
   171   124   125    2
