@<TRIPOS>MOLECULE
tmp/5l6vI00.pdb
 94 89 0 0 0
SMALL
GASTEIGER

@<TRIPOS>ATOM
      1  N         70.1140   78.5870   50.7950 N.3    31  LYS31      -0.1231
      2  CA        70.1150   77.3710   51.6010 C.3    31  LYS31       0.1693
      3  C         70.5220   77.6390   53.0470 C.2    31  LYS31       0.2591
      4  O         70.9760   76.7230   53.7390 O.2    31  LYS31      -0.2718
      5  CB        71.0340   76.3220   50.9720 C.3    31  LYS31       0.0285
      6  CG        70.7490   76.0630   49.4980 C.3    31  LYS31       0.0035
      7  CD        71.8260   75.1970   48.8650 C.3    31  LYS31       0.0206
      8  CE        71.3880   73.7460   48.7600 C.3    31  LYS31       0.1093
      9  NZ        72.5220   72.8560   48.3830 N.3    31  LYS31      -0.1314
     10  N         70.3700   78.8750   53.5160 N.am   32  ARG32      -0.1980
     11  CA        70.6610   79.2060   54.9040 C.3    32  ARG32       0.1597
     12  C         69.8560   80.4360   55.2940 C.2    32  ARG32       0.2287
     13  O         69.5550   81.2890   54.4560 O.2    32  ARG32      -0.2864
     14  CB        72.1580   79.4550   55.1310 C.3    32  ARG32       0.0334
     15  CG        72.6820   80.7490   54.5220 C.3    32  ARG32       0.0492
     16  CD        74.0850   81.0720   55.0160 C.3    32  ARG32       0.2205
     17  NE        75.0790   80.1260   54.5190 N.pl3  32  ARG32      -0.0865
     18  CZ        75.8350   80.3320   53.4450 C.cat  32  ARG32       0.5346
     19  NH1       76.7140   79.4160   53.0650 N.pl3  32  ARG32       0.1354
     20  NH2       75.7130   81.4560   52.7520 N.pl3  32  ARG32       0.1354
     21  N         77.7240   83.7220   57.2030 N.3    38  HIS38      -0.1241
     22  CA        79.0900   83.8320   57.6910 C.3    38  HIS38       0.1621
     23  C         79.5540   85.2860   57.6990 C.2    38  HIS38       0.2264
     24  O         79.1750   86.0890   56.8430 O.2    38  HIS38      -0.2867
     25  CB        80.0300   82.9940   56.8250 C.3    38  HIS38       0.0745
     26  CG        79.6710   81.5420   56.7740 C.ar   38  HIS38       0.0817
     27  ND1       80.0940   80.6370   57.7240 N.ar   38  HIS38      -0.2268
     28  CD2       78.9340   80.8360   55.8840 C.ar   38  HIS38       0.1154
     29  CE1       79.6310   79.4380   57.4230 C.ar   38  HIS38       0.1986
     30  NE2       78.9230   79.5310   56.3110 N.ar   38  HIS38      -0.2212
     31  N         79.0570   83.7980   62.6760 N.3    44  ARG44      -0.1245
     32  CA        77.7790   83.9450   62.0010 C.3    44  ARG44       0.1563
     33  C         77.0640   85.1400   62.6180 C.2    44  ARG44       0.2260
     34  O         77.3220   85.5030   63.7690 O.2    44  ARG44      -0.2867
     35  CB        76.9230   82.6750   62.1110 C.3    44  ARG44       0.0307
     36  CG        77.4820   81.4840   61.3360 C.3    44  ARG44       0.0489
     37  CD        76.5820   80.2610   61.4570 C.3    44  ARG44       0.2205
     38  NE        77.1990   79.0580   60.9010 N.pl3  44  ARG44      -0.0865
     39  CZ        76.9250   78.5580   59.7000 C.cat  44  ARG44       0.5346
     40  NH1       76.0370   79.1530   58.9160 N.pl3  44  ARG44       0.1354
     41  NH2       77.5380   77.4580   59.2830 N.pl3  44  ARG44       0.1354
     42  N         68.1610   74.5670   59.2830 N.3    70  HIS70      -0.1226
     43  CA        69.0470   73.4720   59.6720 C.3    70  HIS70       0.1752
     44  C         70.4340   73.9680   60.0660 C.2    70  HIS70       0.2596
     45  O         70.9610   73.5990   61.1220 O.2    70  HIS70      -0.2718
     46  CB        69.1530   72.4590   58.5320 C.3    70  HIS70       0.0759
     47  CG        70.3690   71.5910   58.6130 C.ar   70  HIS70       0.0818
     48  ND1       70.5240   70.6130   59.5720 N.ar   70  HIS70      -0.2268
     49  CD2       71.4940   71.5620   57.8610 C.ar   70  HIS70       0.1154
     50  CE1       71.6890   70.0140   59.4030 C.ar   70  HIS70       0.1986
     51  NE2       72.2970   70.5710   58.3710 N.ar   70  HIS70      -0.2212
     52  N         71.0420   74.8070   59.2270 N.am   71  THR71      -0.1953
     53  CA        72.4140   75.2280   59.4820 C.3    71  THR71       0.1897
     54  C         72.5110   76.2240   60.6330 C.2    71  THR71       0.2313
     55  O         73.5740   76.3340   61.2520 O.2    71  THR71      -0.2863
     56  CB        73.0280   75.8100   58.2030 C.3    71  THR71       0.1794
     57  OG1       74.4100   75.4410   58.1230 O.3    71  THR71      -0.2208
     58  CG2       72.9120   77.3250   58.1790 C.3    71  THR71       0.0378
     59  N         85.7360   76.5990   53.1860 N.3   340  GLU340     -0.1245
     60  CA        85.9990   75.4340   52.3430 C.3   340  GLU340      0.1567
     61  C         86.0730   75.7650   50.8560 C.2   340  GLU340      0.2260
     62  O         85.8910   74.8770   50.0170 O.2   340  GLU340     -0.2867
     63  CB        84.9630   74.3290   52.5810 C.3   340  GLU340      0.0388
     64  CG        85.0950   73.6370   53.9270 C.3   340  GLU340      0.1160
     65  CD        84.0600   72.5490   54.1290 C.2   340  GLU340      0.3649
     66  OE1       82.8510   72.8640   54.1060 O.co2 340  GLU340     -0.2457
     67  OE2       84.4550   71.3770   54.3020 O.co2 340  GLU340     -0.2457
     68  N         80.0520   79.0580   50.0140 N.3   356  ARG356     -0.1231
     69  CA        80.6450   77.9090   50.6860 C.3   356  ARG356      0.1694
     70  C         81.0110   76.7960   49.7110 C.2   356  ARG356      0.2591
     71  O         80.2460   76.4610   48.8020 O.2   356  ARG356     -0.2718
     72  CB        79.6830   77.3660   51.7410 C.3   356  ARG356      0.0321
     73  CG        80.0820   76.0060   52.2830 C.3   356  ARG356      0.0489
     74  CD        79.5740   75.8170   53.6870 C.3   356  ARG356      0.2205
     75  NE        80.5490   75.1500   54.5400 N.pl3 356  ARG356     -0.0865
     76  CZ        80.6250   75.3260   55.8540 C.cat 356  ARG356      0.5346
     77  NH1       79.7900   76.1580   56.4610 N.pl3 356  ARG356      0.1354
     78  NH2       81.5430   74.6810   56.5600 N.pl3 356  ARG356      0.1354
     79  N         82.2020   76.2290   49.9130 N.am  357  ALA357     -0.1980
     80  CA        82.6530   75.0020   49.2610 C.3   357  ALA357      0.1597
     81  C         82.6910   75.1160   47.7430 C.2   357  ALA357      0.2287
     82  O         82.6290   74.1000   47.0420 O.2   357  ALA357     -0.2864
     83  CB        81.7880   73.8070   49.6760 C.3   357  ALA357      0.0319
     84  N         78.0000   77.3140   44.3210 N.3   389  ARG389     -0.1245
     85  CA        78.2870   76.0080   43.7340 C.3   389  ARG389      0.1563
     86  C         77.3200   75.6830   42.6020 C.2   389  ARG389      0.2260
     87  O         77.7070   75.0570   41.6080 O.2   389  ARG389     -0.2867
     88  CB        78.2380   74.9190   44.8090 C.3   389  ARG389      0.0307
     89  CG        79.3840   74.9710   45.8100 C.3   389  ARG389      0.0489
     90  CD        79.2370   73.9180   46.9070 C.3   389  ARG389      0.2205
     91  NE        80.0470   72.7260   46.6620 N.pl3 389  ARG389     -0.0865
     92  CZ        79.5530   71.5190   46.3980 C.cat 389  ARG389      0.5346
     93  NH1       78.2410   71.3310   46.3470 N.pl3 389  ARG389      0.1354
     94  NH2       80.3720   70.4970   46.1920 N.pl3 389  ARG389      0.1354
@<TRIPOS>BOND
     1    87    86    2
     2    86    85    1
     3    85    84    1
     4    85    88    1
     5    88    89    1
     6    89    90    1
     7    94    92    1
     8    93    92    1
     9    92    91    2
    10    91    90    1
    11    82    81    2
    12    81    80    1
    13     9     8    1
    14     8     7    1
    15    71    70    2
    16     7     6    1
    17    80    83    1
    18    80    79    1
    19     6     5    1
    20    70    79   am
    21    70    69    1
    22    68    69    1
    23    62    61    2
    24    69    72    1
    25     1     2    1
    26    61    60    1
    27     5     2    1
    28     2     3    1
    29    72    73    1
    30    73    74    1
    31    60    63    1
    32    60    59    1
    33    63    64    1
    34    20    18    1
    35     3    10   am
    36     3     4    2
    37    19    18    1
    38    18    17    2
    39    10    11    1
    40    74    75    1
    41    64    65    1
    42    66    65   ar
    43    65    67   ar
    44    13    12    2
    45    17    16    1
    46    15    16    1
    47    15    14    1
    48    75    76    2
    49    11    14    1
    50    11    12    1
    51    76    77    1
    52    76    78    1
    53    28    30   ar
    54    28    26   ar
    55    30    29   ar
    56    26    25    1
    57    26    27   ar
    58    25    22    1
    59    24    23    2
    60    21    22    1
    61    29    27   ar
    62    22    23    1
    63    49    51   ar
    64    49    47   ar
    65    57    56    1
    66    58    56    1
    67    56    53    1
    68    51    50   ar
    69    46    47    1
    70    46    43    1
    71    47    48   ar
    72    40    39    1
    73    52    53    1
    74    52    44   am
    75    42    43    1
    76    41    39    1
    77    50    48   ar
    78    53    54    1
    79    43    44    1
    80    39    38    2
    81    44    45    2
    82    54    55    2
    83    38    37    1
    84    36    37    1
    85    36    35    1
    86    32    35    1
    87    32    33    1
    88    32    31    1
    89    33    34    2
