@<TRIPOS>MOLECULE
tmp/5l70A03.pdb
 95 95 0 0 0
SMALL
GASTEIGER

@<TRIPOS>ATOM
      1  N         50.6250   27.5260   44.8290 N.3     2  HIS2       -0.1226
      2  CA        51.2890   26.7830   43.7790 C.3     2  HIS2        0.1752
      3  C         50.5060   26.8640   42.4800 C.2     2  HIS2        0.2596
      4  O         49.6920   27.7780   42.2770 O.2     2  HIS2       -0.2718
      5  CB        51.5040   25.3170   44.2080 C.3     2  HIS2        0.0759
      6  CG        50.2400   24.5420   44.4150 C.ar    2  HIS2        0.0818
      7  ND1       49.3280   24.8700   45.3870 N.ar    2  HIS2       -0.2268
      8  CD2       49.7550   23.4370   43.8020 C.ar    2  HIS2        0.1154
      9  CE1       48.3240   24.0100   45.3560 C.ar    2  HIS2        0.1986
     10  NE2       48.5650   23.1220   44.4090 N.ar    2  HIS2       -0.2212
     11  N         50.7710   25.9150   41.5830 N.am    3  TRP3       -0.1976
     12  CA        50.1810   25.9680   40.2500 C.3     3  TRP3        0.1640
     13  C         48.6570   25.8140   40.3180 C.2     3  TRP3        0.2290
     14  O         48.0980   25.2380   41.2610 O.2     3  TRP3       -0.2864
     15  CB        50.7730   24.9120   39.3390 C.3     3  TRP3        0.0576
     16  CG        50.3520   23.5270   39.7750 C.ar    3  TRP3        0.0006
     17  CD1       50.9640   22.7390   40.7190 C.ar    3  TRP3        0.0946
     18  CD2       49.2050   22.8030   39.3340 C.ar    3  TRP3        0.0152
     19  NE1       50.2810   21.5300   40.8670 N.ar    3  TRP3       -0.2442
     20  CE2       49.2070   21.5450   40.0170 C.ar    3  TRP3        0.0810
     21  CE3       48.1740   23.0790   38.4200 C.ar    3  TRP3        0.0012
     22  CZ2       48.2150   20.6050   39.8290 C.ar    3  TRP3        0.0191
     23  CZ3       47.2330   22.1150   38.1880 C.ar    3  TRP3        0.0001
     24  CH2       47.2410   20.8890   38.9140 C.ar    3  TRP3        0.0015
     25  N         57.8990   24.0860   35.9530 N.3    18  PHE18      -0.1241
     26  CA        57.8410   22.7760   35.2790 C.3    18  PHE18       0.1605
     27  C         58.3350   22.8730   33.8280 C.2    18  PHE18       0.2264
     28  O         57.5250   22.9210   32.8970 O.2    18  PHE18      -0.2867
     29  CB        56.4020   22.2000   35.3240 C.3    18  PHE18       0.0534
     30  CG        55.8750   22.0200   36.7200 C.ar   18  PHE18      -0.0203
     31  CD1       56.2000   20.8830   37.4710 C.ar   18  PHE18      -0.0042
     32  CD2       55.1260   23.0260   37.3220 C.ar   18  PHE18      -0.0042
     33  CE1       55.7560   20.7390   38.7720 C.ar   18  PHE18      -0.0003
     34  CE2       54.6960   22.8880   38.6170 C.ar   18  PHE18      -0.0003
     35  CZ        54.9900   21.7320   39.3450 C.ar   18  PHE18      -0.0000
     36  N         40.8640   18.0920   45.3870 N.3    60  ASN60      -0.1240
     37  CA        42.3070   18.3100   45.6220 C.3    60  ASN60       0.1653
     38  C         42.7680   19.7480   45.2890 C.2    60  ASN60       0.2266
     39  O         43.9640   20.0270   45.2080 O.2    60  ASN60      -0.2867
     40  CB        43.1450   17.2780   44.8370 C.3    60  ASN60       0.1155
     41  CG        42.9210   17.3530   43.3220 C.2    60  ASN60       0.2627
     42  OD1       42.4560   18.3690   42.7760 O.2    60  ASN60      -0.2716
     43  ND2       43.2590   16.2760   42.6340 N.am   60  ASN60      -0.0877
     44  N         42.2170   21.1820   42.4090 N.3    62  HIS62      -0.1241
     45  CA        42.4690   21.2530   40.9610 C.3    62  HIS62       0.1621
     46  C         41.3260   20.6570   40.1640 C.2    62  HIS62       0.2264
     47  O         40.9450   21.1730   39.1220 O.2    62  HIS62      -0.2867
     48  CB        43.7870   20.5560   40.5950 C.3    62  HIS62       0.0745
     49  CG        44.9810   21.0360   41.3740 C.ar   62  HIS62       0.0817
     50  ND1       45.4460   22.3330   41.2870 N.ar   62  HIS62      -0.2268
     51  CD2       45.8300   20.3890   42.1990 C.ar   62  HIS62       0.1154
     52  CE1       46.5170   22.4620   42.0510 C.ar   62  HIS62       0.1986
     53  NE2       46.7760   21.2990   42.6090 N.ar   62  HIS62      -0.2212
     54  N         38.6160   13.9990   42.2430 N.3    65  ASN65      -0.1240
     55  CA        38.9530   12.6210   41.9140 C.3    65  ASN65       0.1653
     56  C         38.0670   11.6020   42.5910 C.2    65  ASN65       0.2266
     57  O         37.8360   11.6800   43.7870 O.2    65  ASN65      -0.2867
     58  CB        40.4090   12.3060   42.3270 C.3    65  ASN65       0.1155
     59  CG        41.4160   13.0750   41.5140 C.2    65  ASN65       0.2627
     60  OD1       41.0620   13.8340   40.6130 O.2    65  ASN65      -0.2716
     61  ND2       42.6800   12.9280   41.8620 N.am   65  ASN65      -0.0877
     62  N         38.4720    7.8420   43.4490 N.3    67  GLU67      -0.1245
     63  CA        39.5520    6.8800   43.5750 C.3    67  GLU67       0.1567
     64  C         39.0320    5.4790   43.7050 C.2    67  GLU67       0.2260
     65  O         37.9440    5.2510   44.2440 O.2    67  GLU67      -0.2867
     66  CB        40.3740    7.2040   44.8000 C.3    67  GLU67       0.0388
     67  CG        40.9170    8.6260   44.7620 C.3    67  GLU67       0.1160
     68  CD        42.0770    8.8510   45.7320 C.2    67  GLU67       0.3649
     69  OE1       42.1120    8.2010   46.8080 O.co2  67  GLU67      -0.2457
     70  OE2       42.9490    9.6810   45.4040 O.co2  67  GLU67      -0.2457
     71  N         51.6160    2.4350   40.8630 N.3   128  PHE128     -0.1241
     72  CA        51.4610    3.7350   40.1970 C.3   128  PHE128      0.1605
     73  C         52.7230    4.5970   40.2590 C.2   128  PHE128      0.2264
     74  O         53.1410    5.1680   39.2510 O.2   128  PHE128     -0.2867
     75  CB        50.3230    4.5200   40.8510 C.3   128  PHE128      0.0534
     76  CG        50.0760    5.8500   40.2160 C.ar  128  PHE128     -0.0203
     77  CD1       49.3390    5.9440   39.0750 C.ar  128  PHE128     -0.0042
     78  CD2       50.5880    6.9930   40.7800 C.ar  128  PHE128     -0.0042
     79  CE1       49.1280    7.1800   38.4890 C.ar  128  PHE128     -0.0003
     80  CE2       50.3990    8.2190   40.2050 C.ar  128  PHE128     -0.0003
     81  CZ        49.6460    8.3210   39.0570 C.ar  128  PHE128     -0.0000
     82  N         50.6820   19.5910   36.2040 N.3   198  PRO198     -0.2103
     83  CA        51.9880   19.3470   36.8280 C.3   198  PRO198      0.1489
     84  C         51.9480   18.1000   37.7080 C.2   198  PRO198      0.2417
     85  O         50.9410   17.8990   38.4140 O.2   198  PRO198     -0.2734
     86  CB        52.2100   20.6150   37.6360 C.3   198  PRO198      0.0282
     87  CG        51.5620   21.6840   36.7950 C.3   198  PRO198      0.0208
     88  CD        50.3090   21.0050   36.2890 C.3   198  PRO198      0.0893
     89  N         52.9810   17.2540   37.6750 N.am  199  PRO199     -0.2729
     90  CA        54.3180   17.5200   37.1030 C.3   199  PRO199      0.1401
     91  C         54.5130   17.2970   35.6070 C.2   199  PRO199      0.2269
     92  O         55.6490   17.3920   35.1320 O.2   199  PRO199     -0.2865
     93  CB        55.2290   16.5610   37.8910 C.3   199  PRO199      0.0296
     94  CG        54.3250   15.4830   38.3250 C.3   199  PRO199      0.0237
     95  CD        52.9880   16.1040   38.5820 C.3   199  PRO199      0.0939
@<TRIPOS>BOND
     1    28    27    2
     2    27    26    1
     3    92    91    2
     4    26    29    1
     5    26    25    1
     6    29    30    1
     7    91    90    1
     8    82    88    1
     9    82    83    1
    10    88    87    1
    11    30    32   ar
    12    30    31   ar
    13    87    86    1
    14    83    86    1
    15    83    84    1
    16    90    89    1
    17    90    93    1
    18    32    34   ar
    19    31    33   ar
    20    89    84   am
    21    89    95    1
    22    84    85    2
    23    93    94    1
    24    23    21   ar
    25    23    24   ar
    26    94    95    1
    27    21    18   ar
    28    79    81   ar
    29    79    77   ar
    30    34    35   ar
    31    33    35   ar
    32    24    22   ar
    33    81    80   ar
    34    77    76   ar
    35    47    46    2
    36    74    73    2
    37    18    16   ar
    38    18    20   ar
    39    15    16    1
    40    15    12    1
    41    16    17   ar
    42    22    20   ar
    43    20    19   ar
    44    46    45    1
    45    72    73    1
    46    72    75    1
    47    72    71    1
    48    80    78   ar
    49    76    78   ar
    50    76    75    1
    51    12    13    1
    52    12    11    1
    53    13    14    2
    54    48    45    1
    55    48    49    1
    56    60    59    2
    57    17    19   ar
    58    45    44    1
    59    50    49   ar
    60    50    52   ar
    61    49    51   ar
    62    59    61   am
    63    59    58    1
    64    11     3   am
    65    55    54    1
    66    55    58    1
    67    55    56    1
    68    52    53   ar
    69    51    53   ar
    70     4     3    2
    71     3     2    1
    72    56    57    2
    73    43    41   am
    74    42    41    2
    75    41    40    1
    76    62    63    1
    77    63    64    1
    78    63    66    1
    79    64    65    2
    80     2     5    1
    81     2     1    1
    82     8    10   ar
    83     8     6   ar
    84     5     6    1
    85    10     9   ar
    86     6     7   ar
    87    67    66    1
    88    67    68    1
    89    40    37    1
    90    39    38    2
    91    38    37    1
    92     9     7   ar
    93    36    37    1
    94    70    68   ar
    95    68    69   ar
