@<TRIPOS>MOLECULE
tmp/5l72A00.pdb
 224 213 0 0 0
SMALL
GASTEIGER

@<TRIPOS>ATOM
      1  N         -1.6190  -39.6340    7.8940 N.3   543  LYS543     -0.1245
      2  CA        -1.3260  -38.4960    8.7700 C.3   543  LYS543      0.1561
      3  C          0.1340  -38.0000    8.6150 C.2   543  LYS543      0.2260
      4  O          0.2790  -36.7940    8.4420 O.2   543  LYS543     -0.2867
      5  CB        -1.7030  -38.7380   10.2410 C.3   543  LYS543      0.0271
      6  CG        -1.5070  -37.4940   11.1210 C.3   543  LYS543      0.0035
      7  CD        -2.4740  -37.4010   12.2590 C.3   543  LYS543      0.0206
      8  CE        -1.9030  -36.6150   13.4140 C.3   543  LYS543      0.1093
      9  NZ        -2.7360  -36.7660   14.6450 N.3   543  LYS543     -0.1314
     10  N          0.6120  -30.0680   14.6640 N.3   585  THR585     -0.1203
     11  CA        -0.0520  -31.2980   14.2140 C.3   585  THR585      0.1994
     12  C         -1.5660  -31.0560   14.0660 C.2   585  THR585      0.2618
     13  O         -1.9680  -29.9210   13.7990 O.2   585  THR585     -0.2717
     14  CB         0.3370  -32.4940   15.1070 C.3   585  THR585      0.1784
     15  OG1       -0.1040  -33.6860   14.4690 O.3   585  THR585     -0.2211
     16  CG2       -0.2390  -32.4040   16.5360 C.3   585  THR585      0.0376
     17  N         -2.3910  -32.1150   14.2110 N.am  586  PHE586     -0.1961
     18  CA        -3.8480  -32.0480   14.1390 C.3   586  PHE586      0.1771
     19  C         -4.4750  -33.2660   14.7710 C.2   586  PHE586      0.2619
     20  O         -4.0680  -34.3800   14.4500 O.2   586  PHE586     -0.2715
     21  CB        -4.3670  -31.8460   12.6880 C.3   586  PHE586      0.0574
     22  CG        -4.0410  -32.9120   11.6690 C.ar  586  PHE586     -0.0200
     23  CD1       -2.8320  -32.8920   10.9810 C.ar  586  PHE586     -0.0042
     24  CD2       -4.9670  -33.8980   11.3510 C.ar  586  PHE586     -0.0042
     25  CE1       -2.5340  -33.8740   10.0340 C.ar  586  PHE586     -0.0003
     26  CE2       -4.6750  -34.8710   10.3930 C.ar  586  PHE586     -0.0003
     27  CZ        -3.4600  -34.8540    9.7460 C.ar  586  PHE586     -0.0000
     28  N         -5.4740  -33.0660   15.6470 N.am  587  MET587     -0.1963
     29  CA        -6.1840  -34.1680   16.2960 C.3   587  MET587      0.1736
     30  C         -6.9770  -34.9660   15.2770 C.2   587  MET587      0.2616
     31  O         -7.3640  -34.4380   14.2220 O.2   587  MET587     -0.2715
     32  CB        -7.0950  -33.7010   17.4150 C.3   587  MET587      0.0427
     33  CG        -6.7540  -32.3430   17.9060 C.3   587  MET587      0.0599
     34  SD        -6.0980  -32.3610   19.5680 S.3   587  MET587     -0.1393
     35  CE        -6.7470  -30.7790   20.1240 C.3   587  MET587      0.0692
     36  N         -7.2020  -36.2560   15.5960 N.am  588  ASP588     -0.1957
     37  CA        -7.8330  -37.2270   14.7140 C.3   588  ASP588      0.1840
     38  C         -9.3570  -37.3010   14.8250 C.2   588  ASP588      0.2622
     39  O         -9.9560  -38.1680   14.1940 O.2   588  ASP588     -0.2715
     40  CB        -7.1670  -38.5870   14.9300 C.3   588  ASP588      0.1450
     41  CG        -5.6890  -38.5220   14.5890 C.2   588  ASP588      0.3671
     42  OD1       -5.3310  -37.7880   13.6310 O.co2 588  ASP588     -0.2456
     43  OD2       -4.8860  -39.1840   15.2910 O.co2 588  ASP588     -0.2456
     44  N         -9.9860  -36.3410   15.5360 N.am  589  SER589     -0.1950
     45  CA       -11.4450  -36.2770   15.7020 C.3   589  SER589      0.1924
     46  C        -12.1320  -35.8280   14.4190 C.2   589  SER589      0.2314
     47  O        -11.4630  -35.3190   13.5140 O.2   589  SER589     -0.2863
     48  CB       -11.8360  -35.3770   16.8730 C.3   589  SER589      0.2116
     49  OG       -11.6160  -33.9990   16.6150 O.3   589  SER589     -0.2180
     50  N         -9.2180  -30.9080   14.2650 N.3   593  PRO593     -0.2116
     51  CA        -8.7720  -29.5860   14.7470 C.3   593  PRO593      0.1372
     52  C         -7.2680  -29.4150   14.5700 C.2   593  PRO593      0.2244
     53  O         -6.5860  -30.4110   14.3110 O.2   593  PRO593     -0.2868
     54  CB        -9.1400  -29.6050   16.2360 C.3   593  PRO593      0.0268
     55  CG       -10.0160  -30.8460   16.4190 C.3   593  PRO593      0.0207
     56  CD        -9.5750  -31.7920   15.3850 C.3   593  PRO593      0.0892
     57  N         -3.4230  -28.3160   16.1090 N.3   595  TRP595     -0.1241
     58  CA        -2.5750  -28.0390   17.2820 C.3   595  TRP595      0.1605
     59  C         -1.4340  -27.1190   16.7760 C.2   595  TRP595      0.2264
     60  O         -0.5430  -27.5810   16.0560 O.2   595  TRP595     -0.2867
     61  CB        -2.0400  -29.3400   17.9200 C.3   595  TRP595      0.0550
     62  CG        -1.0960  -29.1930   19.0890 C.ar  595  TRP595      0.0003
     63  CD1        0.2100  -28.7800   19.0550 C.ar  595  TRP595      0.0946
     64  CD2       -1.3360  -29.6350   20.4300 C.ar  595  TRP595      0.0152
     65  NE1        0.7690  -28.8590   20.3110 N.ar  595  TRP595     -0.2442
     66  CE2       -0.1500  -29.4080   21.1680 C.ar  595  TRP595      0.0810
     67  CE3       -2.4460  -30.2030   21.0850 C.ar  595  TRP595      0.0012
     68  CZ2       -0.0500  -29.7240   22.5310 C.ar  595  TRP595      0.0191
     69  CZ3       -2.3540  -30.5070   22.4370 C.ar  595  TRP595      0.0001
     70  CH2       -1.1750  -30.2580   23.1500 C.ar  595  TRP595      0.0015
     71  N         -5.4300  -24.3910   19.7080 N.3   612  ILE612     -0.1245
     72  CA        -6.1820  -25.4240   19.0050 C.3   612  ILE612      0.1561
     73  C         -7.1950  -24.6980   18.1660 C.2   612  ILE612      0.2260
     74  O         -7.9690  -23.9090   18.7120 O.2   612  ILE612     -0.2867
     75  CB        -6.8440  -26.4180   20.0350 C.3   612  ILE612      0.0252
     76  CG1       -5.7990  -27.3980   20.6270 C.3   612  ILE612      0.0019
     77  CG2       -8.0180  -27.1950   19.4250 C.3   612  ILE612      0.0019
     78  CD1       -5.9540  -27.7130   22.0180 C.3   612  ILE612      0.0001
     79  N        -10.4360  -24.8710   15.7590 N.3   614  LYS614     -0.1245
     80  CA       -11.5290  -25.7940   15.4200 C.3   614  LYS614      0.1561
     81  C        -12.6130  -25.1410   14.5740 C.2   614  LYS614      0.2260
     82  O        -13.1690  -24.0950   14.9420 O.2   614  LYS614     -0.2867
     83  CB       -12.1190  -26.4630   16.6770 C.3   614  LYS614      0.0271
     84  CG       -12.7420  -27.8290   16.4440 C.3   614  LYS614      0.0035
     85  CD       -13.3400  -28.3210   17.7340 C.3   614  LYS614      0.0206
     86  CE       -13.5940  -29.7980   17.7130 C.3   614  LYS614      0.1093
     87  NZ       -14.4390  -30.2430   18.8590 N.3   614  LYS614     -0.1314
     88  N        -17.6210  -27.4200   14.7310 N.3   617  ASP617     -0.1239
     89  CA       -18.5230  -27.5420   15.8850 C.3   617  ASP617      0.1674
     90  C        -18.8890  -26.1850   16.4570 C.2   617  ASP617      0.2266
     91  O        -18.1430  -25.2270   16.2400 O.2   617  ASP617     -0.2867
     92  CB       -17.9200  -28.4350   16.9890 C.3   617  ASP617      0.1410
     93  CG       -18.0460  -29.9170   16.7150 C.2   617  ASP617      0.3668
     94  OD1      -19.1750  -30.3760   16.3990 O.co2 617  ASP617     -0.2456
     95  OD2      -17.0320  -30.6280   16.8460 O.co2 617  ASP617     -0.2456
     96  N        -18.9180  -23.7760   19.4830 N.3   619  LEU619     -0.1245
     97  CA       -18.1090  -23.7070   20.7100 C.3   619  LEU619      0.1561
     98  C        -18.7040  -22.8720   21.8750 C.2   619  LEU619      0.2260
     99  O        -18.0350  -22.6940   22.9090 O.2   619  LEU619     -0.2867
    100  CB       -16.6930  -23.2050   20.3670 C.3   619  LEU619      0.0270
    101  CG       -15.6960  -24.2520   19.8120 C.3   619  LEU619      0.0019
    102  CD1      -14.3880  -23.5980   19.4180 C.3   619  LEU619      0.0001
    103  CD2      -15.4100  -25.3440   20.8240 C.3   619  LEU619      0.0001
    104  N        -19.3080  -25.0580   25.5530 N.3   622  ASP622     -0.1239
    105  CA       -18.0310  -25.2980   26.2270 C.3   622  ASP622      0.1674
    106  C        -17.5890  -23.9990   26.8470 C.2   622  ASP622      0.2266
    107  O        -17.2540  -23.9760   28.0360 O.2   622  ASP622     -0.2867
    108  CB       -16.9540  -25.6930   25.2090 C.3   622  ASP622      0.1410
    109  CG       -17.2470  -26.9890   24.5380 C.2   622  ASP622      0.3668
    110  OD1      -16.6430  -27.9910   24.9330 O.co2 622  ASP622     -0.2456
    111  OD2      -18.1350  -27.0100   23.6420 O.co2 622  ASP622     -0.2456
    112  N         -9.1830  -23.9560   31.2350 N.3   648  TYR648     -0.1241
    113  CA        -8.4460  -23.6010   30.0060 C.3   648  TYR648      0.1605
    114  C         -9.3490  -22.7370   29.0830 C.2   648  TYR648      0.2264
    115  O        -10.5860  -22.8190   29.1230 O.2   648  TYR648     -0.2867
    116  CB        -7.9300  -24.8580   29.2640 C.3   648  TYR648      0.0534
    117  CG        -9.0320  -25.7880   28.7940 C.ar  648  TYR648     -0.0201
    118  CD1       -9.5710  -25.6730   27.5160 C.ar  648  TYR648     -0.0009
    119  CD2       -9.5310  -26.7910   29.6250 C.ar  648  TYR648     -0.0009
    120  CE1      -10.6200  -26.4900   27.0970 C.ar  648  TYR648      0.0417
    121  CE2      -10.5750  -27.6170   29.2140 C.ar  648  TYR648      0.0417
    122  CZ       -11.1180  -27.4610   27.9490 C.ar  648  TYR648      0.1957
    123  OH       -12.1500  -28.2540   27.5100 O.3   648  TYR648     -0.2866
    124  N        -11.3500  -21.0580   26.0390 N.3   650  CYS650     -0.1235
    125  CA       -12.1680  -21.4180   24.8990 C.3   650  CYS650      0.1677
    126  C        -12.8200  -20.1600   24.3510 C.2   650  CYS650      0.2270
    127  O        -13.3010  -19.3320   25.1510 O.2   650  CYS650     -0.2867
    128  CB       -13.1850  -22.5090   25.1920 C.3   650  CYS650      0.0956
    129  SG       -14.1420  -22.9820   23.7300 S.3   650  CYS650     -0.0801
    130  N         -9.1140  -23.1070   21.2860 N.3   660  ILE660     -0.1231
    131  CA        -9.0250  -23.7900   22.5790 C.3   660  ILE660      0.1692
    132  C         -7.5620  -23.6770   23.0510 C.2   660  ILE660      0.2592
    133  O         -6.6460  -23.8740   22.2490 O.2   660  ILE660     -0.2718
    134  CB        -9.4950  -25.2810   22.4870 C.3   660  ILE660      0.0266
    135  CG1      -10.9120  -25.4080   21.8770 C.3   660  ILE660      0.0019
    136  CG2       -9.4150  -25.9940   23.8610 C.3   660  ILE660      0.0020
    137  CD1      -11.1170  -26.6600   21.0230 C.3   660  ILE660      0.0001
    138  N         -7.3390  -23.3640   24.3360 N.am  661  GLU661     -0.1966
    139  CA        -6.0010  -23.2300   24.9140 C.3   661  GLU661      0.1733
    140  C         -5.3470  -24.5740   25.0970 C.2   661  GLU661      0.2616
    141  O         -5.9190  -25.4620   25.7030 O.2   661  GLU661     -0.2715
    142  CB        -6.0960  -22.5400   26.2780 C.3   661  GLU661      0.0429
    143  CG        -4.7790  -22.1400   26.9230 C.3   661  GLU661      0.1163
    144  CD        -4.9140  -21.6470   28.3530 C.2   661  GLU661      0.3649
    145  OE1       -6.0270  -21.2330   28.7520 O.co2 661  GLU661     -0.2457
    146  OE2       -3.8910  -21.6540   29.0730 O.co2 661  GLU661     -0.2457
    147  N         -4.1320  -24.7170   24.6230 N.am  662  VAL662     -0.1963
    148  CA        -3.3730  -25.9420   24.8270 C.3   662  VAL662      0.1727
    149  C         -2.8880  -25.9360   26.2870 C.2   662  VAL662      0.2616
    150  O         -2.2740  -24.9590   26.7380 O.2   662  VAL662     -0.2715
    151  CB        -2.1860  -26.0350   23.8080 C.3   662  VAL662      0.0290
    152  CG1       -1.0250  -26.8660   24.3300 C.3   662  VAL662      0.0023
    153  CG2       -2.6470  -26.5370   22.4450 C.3   662  VAL662      0.0023
    154  N         -3.1900  -27.0010   27.0210 N.am  663  VAL663     -0.1977
    155  CA        -2.6740  -27.1570   28.3750 C.3   663  VAL663      0.1596
    156  C         -1.5170  -28.1250   28.1660 C.2   663  VAL663      0.2287
    157  O         -1.7180  -29.3420   28.1640 O.2   663  VAL663     -0.2864
    158  CB        -3.7030  -27.6320   29.4630 C.3   663  VAL663      0.0276
    159  CG1       -3.0070  -27.9350   30.7810 C.3   663  VAL663      0.0022
    160  CG2       -4.8200  -26.6150   29.6880 C.3   663  VAL663      0.0022
    161  N          0.0810  -32.1580   29.6480 N.3   666  SER666     -0.1202
    162  CA        -1.1320  -32.8660   30.0640 C.3   666  SER666      0.2020
    163  C         -1.4530  -33.9750   29.0520 C.2   666  SER666      0.2619
    164  O         -1.0400  -33.9040   27.8890 O.2   666  SER666     -0.2717
    165  CB        -2.3150  -31.9140   30.2800 C.3   666  SER666      0.2103
    166  OG        -2.9900  -31.4830   29.1070 O.3   666  SER666     -0.2182
    167  N         -2.1170  -35.0220   29.5080 N.am  667  ASP667     -0.1959
    168  CA        -2.4690  -36.1400   28.6610 C.3   667  ASP667      0.1840
    169  C         -3.7630  -36.7680   29.1270 C.2   667  ASP667      0.2622
    170  O         -4.0240  -36.8350   30.3260 O.2   667  ASP667     -0.2715
    171  CB        -1.3380  -37.1820   28.6290 C.3   667  ASP667      0.1450
    172  CG        -1.4000  -38.1270   27.4390 C.2   667  ASP667      0.3671
    173  OD1       -2.3380  -37.9900   26.6150 O.co2 667  ASP667     -0.2456
    174  OD2       -0.5080  -39.0030   27.3260 O.co2 667  ASP667     -0.2456
    175  N         -4.5740  -37.2430   28.1840 N.am  668  THR668     -0.1951
    176  CA        -5.8520  -37.9010   28.4860 C.3   668  THR668      0.1897
    177  C         -5.6270  -39.1700   29.3420 C.2   668  THR668      0.2313
    178  O         -4.6900  -39.9350   29.0800 O.2   668  THR668     -0.2863
    179  CB        -6.6240  -38.2570   27.1730 C.3   668  THR668      0.1794
    180  OG1       -5.9660  -39.3400   26.4900 O.3   668  THR668     -0.2208
    181  CG2       -6.8180  -37.0550   26.2300 C.3   668  THR668      0.0378
    182  N         -4.9500  -42.3120   27.3000 N.3   671  ASN671     -0.1240
    183  CA        -3.5970  -42.4340   26.7290 C.3   671  ASN671      0.1653
    184  C         -2.6570  -43.1720   27.6800 C.2   671  ASN671      0.2266
    185  O         -1.9980  -44.1340   27.2810 O.2   671  ASN671     -0.2867
    186  CB        -3.0330  -41.0720   26.3100 C.3   671  ASN671      0.1155
    187  CG        -3.2140  -40.7150   24.8480 C.2   671  ASN671      0.2627
    188  OD1       -3.7310  -41.4900   24.0300 O.2   671  ASN671     -0.2716
    189  ND2       -2.7470  -39.5440   24.4690 N.am  671  ASN671     -0.0877
    190  N         -8.5340  -35.3480   31.2010 N.3   735  MET735     -0.1245
    191  CA        -7.0840  -35.2110   31.0210 C.3   735  MET735      0.1570
    192  C         -6.3380  -34.9540   32.3300 C.2   735  MET735      0.2261
    193  O         -6.8810  -34.3270   33.2310 O.2   735  MET735     -0.2867
    194  CB        -6.7560  -34.1140   30.0240 C.3   735  MET735      0.0387
    195  CG        -7.2860  -34.3600   28.6510 C.3   735  MET735      0.0595
    196  SD        -6.6530  -33.1750   27.4400 S.3   735  MET735     -0.1393
    197  CE        -4.9150  -33.6680   27.3720 C.3   735  MET735      0.0692
    198  N         -8.1860  -32.6280   35.0140 N.3   743  PHE743     -0.1241
    199  CA        -9.1730  -31.7220   34.4390 C.3   743  PHE743      0.1605
    200  C        -10.0450  -32.4100   33.4100 C.2   743  PHE743      0.2264
    201  O         -9.7490  -33.5320   32.9810 O.2   743  PHE743     -0.2867
    202  CB        -8.5490  -30.4270   33.8960 C.3   743  PHE743      0.0534
    203  CG        -7.6120  -30.5550   32.7160 C.ar  743  PHE743     -0.0203
    204  CD1       -8.0450  -30.2610   31.4290 C.ar  743  PHE743     -0.0042
    205  CD2       -6.2750  -30.8870   32.9000 C.ar  743  PHE743     -0.0042
    206  CE1       -7.1700  -30.3410   30.3470 C.ar  743  PHE743     -0.0003
    207  CE2       -5.4040  -30.9740   31.8100 C.ar  743  PHE743     -0.0003
    208  CZ        -5.8530  -30.6880   30.5440 C.ar  743  PHE743     -0.0000
    209  N        -12.2900  -32.0260   29.6100 N.3   745  ILE745     -0.1231
    210  CA       -12.2760  -31.3960   28.2810 C.3   745  ILE745      0.1692
    211  C        -13.5470  -31.7880   27.5200 C.2   745  ILE745      0.2592
    212  O        -14.2490  -32.7080   27.9340 O.2   745  ILE745     -0.2718
    213  CB       -10.9700  -31.6170   27.4090 C.3   745  ILE745      0.0266
    214  CG1      -10.7720  -33.1120   26.9980 C.3   745  ILE745      0.0019
    215  CG2       -9.7020  -31.0260   28.0430 C.3   745  ILE745      0.0020
    216  CD1      -10.3760  -33.2840   25.5650 C.3   745  ILE745      0.0001
    217  N        -13.8120  -31.0820   26.4050 N.am  746  ASP746     -0.1974
    218  CA       -14.8980  -31.2660   25.4440 C.3   746  ASP746      0.1709
    219  C        -16.2690  -31.4330   26.1190 C.2   746  ASP746      0.2293
    220  O        -16.7260  -32.5530   26.3700 O.2   746  ASP746     -0.2864
    221  CB       -14.5620  -32.4090   24.4770 C.3   746  ASP746      0.1436
    222  CG       -15.4210  -32.4450   23.2480 C.2   746  ASP746      0.3671
    223  OD1      -15.9430  -31.3820   22.8560 O.co2 746  ASP746     -0.2456
    224  OD2      -15.6130  -33.5420   22.6980 O.co2 746  ASP746     -0.2456
@<TRIPOS>BOND
     1     1     2    1
     2     4     3    2
     3     3     2    1
     4     2     5    1
     5    27    25   ar
     6    27    26   ar
     7    25    23   ar
     8     5     6    1
     9    26    24   ar
    10    23    22   ar
    11     6     7    1
    12    24    22   ar
    13    22    21    1
    14     7     8    1
    15    21    18    1
    16     8     9    1
    17    47    46    2
    18    42    41   ar
    19    13    12    2
    20    12    17   am
    21    12    11    1
    22    18    17    1
    23    18    19    1
    24    39    38    2
    25    11    10    1
    26    11    14    1
    27    31    30    2
    28    50    51    1
    29    50    56    1
    30    53    52    2
    31    46    45    1
    32    20    19    2
    33    15    14    1
    34    52    51    1
    35    81    82    2
    36    81    80    1
    37    41    40    1
    38    41    43   ar
    39    37    38    1
    40    37    40    1
    41    37    36    1
    42    88    89    1
    43    51    54    1
    44    19    28   am
    45    38    44   am
    46    14    16    1
    47    30    36   am
    48    30    29    1
    49    56    55    1
    50    80    79    1
    51    80    83    1
    52    44    45    1
    53    28    29    1
    54    45    48    1
    55    89    90    1
    56    89    92    1
    57    60    59    2
    58    57    58    1
    59    54    55    1
    60    91    90    2
    61    29    32    1
    62    94    93   ar
    63    84    83    1
    64    84    85    1
    65    49    48    1
    66    93    95   ar
    67    93    92    1
    68    59    58    1
    69    58    61    1
    70    32    33    1
    71    86    85    1
    72    86    87    1
    73    33    34    1
    74    61    62    1
    75    73    74    2
    76    73    72    1
    77    72    71    1
    78    72    75    1
    79    63    62   ar
    80    63    65   ar
    81    62    64   ar
    82   102   101    1
    83    77    75    1
    84    96    97    1
    85    34    35    1
    86   101   100    1
    87   101   103    1
    88    75    76    1
    89    65    66   ar
    90   100    97    1
    91    64    67   ar
    92    64    66   ar
    93    76    78    1
    94    97    98    1
    95   137   135    1
    96    67    69   ar
    97    66    68   ar
    98   130   131    1
    99    98    99    2
   100   135   134    1
   101   133   132    2
   102    69    70   ar
   103   153   151    1
   104   134   131    1
   105   134   136    1
   106    68    70   ar
   107   131   132    1
   108   224   222   ar
   109   223   222   ar
   110   132   138   am
   111   222   221    1
   112   111   109   ar
   113   129   128    1
   114   151   152    1
   115   151   148    1
   116   188   187    2
   117   138   139    1
   118   126   125    1
   119   126   127    2
   120   189   187   am
   121   221   218    1
   122   109   110   ar
   123   109   108    1
   124   147   148    1
   125   147   140   am
   126   148   149    1
   127   187   186    1
   128   125   128    1
   129   125   124    1
   130   139   140    1
   131   139   142    1
   132   140   141    2
   133   108   105    1
   134   218   219    1
   135   218   217    1
   136   104   105    1
   137   216   214    1
   138   219   220    2
   139   105   106    1
   140   181   179    1
   141   142   143    1
   142   149   150    2
   143   149   154   am
   144   186   183    1
   145   217   211   am
   146   180   179    1
   147   173   172   ar
   148   183   182    1
   149   183   184    1
   150   106   107    2
   151   143   144    1
   152   214   213    1
   153   154   155    1
   154   120   118   ar
   155   120   122   ar
   156   179   176    1
   157   185   184    2
   158   174   172   ar
   159   197   196    1
   160   213   215    1
   161   213   210    1
   162   172   171    1
   163   196   195    1
   164   123   122    1
   165   118   117   ar
   166   211   212    2
   167   211   210    1
   168   164   163    2
   169   122   121   ar
   170   157   156    2
   171   156   155    1
   172   175   176    1
   173   175   169   am
   174   210   209    1
   175   144   145   ar
   176   144   146   ar
   177   155   158    1
   178   176   177    1
   179   171   168    1
   180   195   194    1
   181   168   169    1
   182   168   167    1
   183   117   116    1
   184   117   119   ar
   185   163   167   am
   186   163   162    1
   187   178   177    2
   188   114   115    2
   189   114   113    1
   190   166   165    1
   191   169   170    2
   192   121   119   ar
   193   116   113    1
   194   158   160    1
   195   158   159    1
   196   161   162    1
   197   113   112    1
   198   194   191    1
   199   162   165    1
   200   206   208   ar
   201   206   204   ar
   202   208   207   ar
   203   191   190    1
   204   191   192    1
   205   204   203   ar
   206   207   205   ar
   207   192   193    2
   208   203   205   ar
   209   203   202    1
   210   201   200    2
   211   200   199    1
   212   202   199    1
   213   199   198    1
