@<TRIPOS>MOLECULE
tmp/5l76A00.pdb
 90 86 0 0 0
SMALL
GASTEIGER

@<TRIPOS>ATOM
      1  N         22.9530   89.3450  156.6430 N.3   152  TYR152     -0.1241
      2  CA        22.2150   90.4170  157.2940 C.3   152  TYR152      0.1605
      3  C         20.7430   90.0430  157.3790 C.2   152  TYR152      0.2264
      4  O         20.1740   89.5010  156.4270 O.2   152  TYR152     -0.2867
      5  CB        22.3730   91.7360  156.5360 C.3   152  TYR152      0.0534
      6  CG        23.6440   92.4790  156.8660 C.ar  152  TYR152     -0.0201
      7  CD1       24.8490   92.1280  156.2750 C.ar  152  TYR152     -0.0009
      8  CD2       23.6390   93.5340  157.7670 C.ar  152  TYR152     -0.0009
      9  CE1       26.0120   92.8050  156.5740 C.ar  152  TYR152      0.0417
     10  CE2       24.7970   94.2160  158.0700 C.ar  152  TYR152      0.0417
     11  CZ        25.9800   93.8480  157.4720 C.ar  152  TYR152      0.1957
     12  OH        27.1350   94.5260  157.7730 O.3   152  TYR152     -0.2866
     13  N         33.6950   90.0490  164.6310 N.3   187  TYR187     -0.1241
     14  CA        33.6070   89.3880  163.3390 C.3   187  TYR187      0.1605
     15  C         34.9820   89.3810  162.6890 C.2   187  TYR187      0.2264
     16  O         35.9070   90.0690  163.1270 O.2   187  TYR187     -0.2867
     17  CB        32.5750   90.0660  162.4310 C.3   187  TYR187      0.0534
     18  CG        32.8550   91.5210  162.1200 C.ar  187  TYR187     -0.0201
     19  CD1       32.4300   92.5300  162.9750 C.ar  187  TYR187     -0.0009
     20  CD2       33.5190   91.8870  160.9570 C.ar  187  TYR187     -0.0009
     21  CE1       32.6730   93.8610  162.6870 C.ar  187  TYR187      0.0417
     22  CE2       33.7650   93.2150  160.6610 C.ar  187  TYR187      0.0417
     23  CZ        33.3400   94.1970  161.5290 C.ar  187  TYR187      0.1957
     24  OH        33.5840   95.5190  161.2360 O.3   187  TYR187     -0.2866
     25  N         34.1080   95.4810  168.0330 N.3   196  VAL196     -0.1245
     26  CA        33.3300   96.7090  168.1260 C.3   196  VAL196      0.1561
     27  C         32.8020   96.8210  169.5470 C.2   196  VAL196      0.2260
     28  O         32.1630   95.8910  170.0520 O.2   196  VAL196     -0.2867
     29  CB        32.1750   96.7320  167.1080 C.3   196  VAL196      0.0252
     30  CG1       31.3650   98.0160  167.2390 C.3   196  VAL196      0.0019
     31  CG2       32.7120   96.5830  165.6930 C.3   196  VAL196      0.0019
     32  N         29.1480  104.4610  165.6950 N.3   204  ASP204     -0.1225
     33  CA        30.1880  104.6270  164.6880 C.3   204  ASP204      0.1805
     34  C         30.2480  103.4610  163.7100 C.2   204  ASP204      0.2597
     35  O         30.8380  103.6040  162.6340 O.2   204  ASP204     -0.2718
     36  CB        31.5480  104.7970  165.3660 C.3   204  ASP204      0.1424
     37  CG        31.6020  106.0120  166.2700 C.2   204  ASP204      0.3668
     38  OD1       31.0570  107.0670  165.8840 O.co2 204  ASP204     -0.2456
     39  OD2       32.1880  105.9110  167.3670 O.co2 204  ASP204     -0.2456
     40  N         29.6530  102.3210  164.0520 N.am  205  ALA205     -0.1979
     41  CA        29.7380  101.1210  163.2300 C.3   205  ALA205      0.1597
     42  C         28.5600  100.9550  162.2780 C.2   205  ALA205      0.2287
     43  O         28.5350   99.9830  161.5170 O.2   205  ALA205     -0.2864
     44  CB        29.8450   99.8820  164.1250 C.3   205  ALA205      0.0319
     45  N         26.3490  101.3270  159.0570 N.3   207  THR207     -0.1218
     46  CA        26.6310  101.5450  157.6470 C.3   207  THR207      0.1862
     47  C         25.3290  101.5940  156.8590 C.2   207  THR207      0.2287
     48  O         24.2440  101.3310  157.3820 O.2   207  THR207     -0.2866
     49  CB        27.5400  100.4430  157.0910 C.3   207  THR207      0.1770
     50  OG1       26.9820   99.1590  157.3980 O.3   207  THR207     -0.2211
     51  CG2       28.9310  100.5470  157.6920 C.3   207  THR207      0.0375
     52  N         23.1030  100.0790  153.8490 N.3   209  MET209     -0.1245
     53  CA        22.8790   98.8310  153.1270 C.3   209  MET209      0.1570
     54  C         22.0420   99.1540  151.8960 C.2   209  MET209      0.2261
     55  O         20.8430   99.4280  152.0090 O.2   209  MET209     -0.2867
     56  CB        22.1850   97.8080  154.0240 C.3   209  MET209      0.0387
     57  CG        22.9500   97.4770  155.3030 C.3   209  MET209      0.0595
     58  SD        24.3610   96.3900  155.0370 S.3   209  MET209     -0.1393
     59  CE        25.6860   97.5780  154.8570 C.3   209  MET209      0.0692
     60  N         22.7120   99.1320  158.5610 N.3   219  GLY219     -0.1210
     61  CA        23.1120   97.8630  159.1370 C.3   219  GLY219      0.1956
     62  C         24.2840   98.0370  160.0750 C.2   219  GLY219      0.2612
     63  O         25.0290   99.0180  159.9970 O.2   219  GLY219     -0.2717
     64  N         24.4420   97.0660  160.9690 N.am  220  TYR220     -0.1962
     65  CA        25.5320   97.0850  161.9320 C.3   220  TYR220      0.1756
     66  C         25.8210   95.6540  162.3660 C.2   220  TYR220      0.2461
     67  O         24.9480   94.7840  162.2650 O.2   220  TYR220     -0.2730
     68  CB        25.1910   97.9670  163.1440 C.3   220  TYR220      0.0574
     69  CG        23.8020   97.7470  163.6970 C.ar  220  TYR220     -0.0198
     70  CD1       22.7210   98.4740  163.2190 C.ar  220  TYR220     -0.0009
     71  CD2       23.5720   96.8180  164.7000 C.ar  220  TYR220     -0.0009
     72  CE1       21.4510   98.2780  163.7220 C.ar  220  TYR220      0.0417
     73  CE2       22.3050   96.6160  165.2090 C.ar  220  TYR220      0.0417
     74  CZ        21.2490   97.3500  164.7160 C.ar  220  TYR220      0.1957
     75  OH        19.9860   97.1530  165.2190 O.3   220  TYR220     -0.2866
     76  N         27.0290   95.3800  162.8570 N.am  221  PRO221     -0.2727
     77  CA        27.4070   93.9960  163.1640 C.3   221  PRO221      0.1402
     78  C         26.5370   93.3890  164.2540 C.2   221  PRO221      0.2269
     79  O         26.0490   94.0800  165.1500 O.2   221  PRO221     -0.2865
     80  CB        28.8660   94.1170  163.6240 C.3   221  PRO221      0.0296
     81  CG        29.3350   95.4310  163.0890 C.3   221  PRO221      0.0237
     82  CD        28.1360   96.3170  163.1100 C.3   221  PRO221      0.0939
     83  N         30.7600   87.2690  158.9260 N.3   241  LEU241     -0.1245
     84  CA        30.0730   88.4220  159.4940 C.3   241  LEU241      0.1561
     85  C         28.5670   88.2140  159.4480 C.2   241  LEU241      0.2260
     86  O         28.0180   87.8630  158.4000 O.2   241  LEU241     -0.2867
     87  CB        30.4500   89.7000  158.7340 C.3   241  LEU241      0.0270
     88  CG        29.6280   90.9570  159.0290 C.3   241  LEU241      0.0019
     89  CD1       29.6690   91.3080  160.5040 C.3   241  LEU241      0.0001
     90  CD2       30.1330   92.1210  158.1920 C.3   241  LEU241      0.0001
@<TRIPOS>BOND
     1    54    55    2
     2    54    53    1
     3    53    52    1
     4    53    56    1
     5    56    57    1
     6    59    58    1
     7    58    57    1
     8     7     9   ar
     9     7     6   ar
    10     4     3    2
    11     5     6    1
    12     5     2    1
    13     9    11   ar
    14     1     2    1
    15    47    48    2
    16    47    46    1
    17     6     8   ar
    18    49    50    1
    19    49    46    1
    20    49    51    1
    21     2     3    1
    22    11    12    1
    23    11    10   ar
    24    46    45    1
    25     8    10   ar
    26    90    88    1
    27    86    85    2
    28    60    61    1
    29    87    88    1
    30    87    84    1
    31    83    84    1
    32    88    89    1
    33    61    62    1
    34    85    84    1
    35    63    62    2
    36    62    64   am
    37    22    20   ar
    38    22    23   ar
    39    20    18   ar
    40    64    65    1
    41    24    23    1
    42    43    42    2
    43    23    21   ar
    44    65    66    1
    45    65    68    1
    46    18    17    1
    47    18    19   ar
    48    67    66    2
    49    42    41    1
    50    66    76   am
    51    17    14    1
    52    35    34    2
    53    21    19   ar
    54    15    16    2
    55    15    14    1
    56    76    82    1
    57    76    77    1
    58    81    82    1
    59    81    80    1
    60    68    69    1
    61    77    80    1
    62    77    78    1
    63    70    69   ar
    64    70    72   ar
    65    41    40    1
    66    41    44    1
    67    14    13    1
    68    69    71   ar
    69    34    40   am
    70    34    33    1
    71    72    74   ar
    72    78    79    2
    73    33    36    1
    74    33    32    1
    75    71    73   ar
    76    74    73   ar
    77    74    75    1
    78    36    37    1
    79    31    29    1
    80    38    37   ar
    81    37    39   ar
    82    29    30    1
    83    29    26    1
    84    25    26    1
    85    26    27    1
    86    27    28    2
