@<TRIPOS>MOLECULE
tmp/5l77A00.pdb
 200 196 0 0 0
SMALL
GASTEIGER

@<TRIPOS>ATOM
      1  N         46.0210    2.4360   18.2280 N.3    28  GLU28      -0.1245
      2  CA        46.0600    3.1410   16.9540 C.3    28  GLU28       0.1567
      3  C         46.2050    2.1460   15.8320 C.2    28  GLU28       0.2260
      4  O         47.0350    1.2600   15.8270 O.2    28  GLU28      -0.2867
      5  CB        47.2350    4.0670   16.9170 C.3    28  GLU28       0.0388
      6  CG        47.0860    5.2470   17.8700 C.3    28  GLU28       0.1160
      7  CD        46.0040    6.2470   17.5360 C.2    28  GLU28       0.3649
      8  OE1       45.5500    6.3420   16.3440 O.co2  28  GLU28      -0.2457
      9  OE2       45.6280    7.0270   18.4750 O.co2  28  GLU28      -0.2457
     10  N         41.2700    4.8410   16.2880 N.3    62  GLY62      -0.1210
     11  CA        41.9390    6.0910   16.6600 C.3    62  GLY62       0.1956
     12  C         42.1600    7.0280   15.5050 C.2    62  GLY62       0.2611
     13  O         41.7570    6.7480   14.3280 O.2    62  GLY62      -0.2717
     14  N         42.7740    8.1660   15.7170 N.am   63  ASN63      -0.1974
     15  CA        42.9560    9.1500   14.6570 C.3    63  ASN63       0.1688
     16  C         43.7330    8.5880   13.5170 C.2    63  ASN63       0.2292
     17  O         43.5010    8.9630   12.3620 O.2    63  ASN63      -0.2864
     18  CB        43.7630   10.3600   15.1690 C.3    63  ASN63       0.1181
     19  CG        42.9850   11.2460   16.0840 C.2    63  ASN63       0.2629
     20  OD1       41.7580   11.1680   16.1620 O.2    63  ASN63      -0.2716
     21  ND2       43.7080   12.0970   16.8190 N.am   63  ASN63      -0.0877
     22  N         49.4350    6.4360   21.2670 N.3    87  PRO87      -0.2102
     23  CA        48.2660    7.2670   21.0240 C.3    87  PRO87       0.1504
     24  C         48.6030    8.5270   20.2710 C.2    87  PRO87       0.2576
     25  O         49.5780    9.2200   20.5800 O.2    87  PRO87      -0.2718
     26  CB        47.7540    7.5750   22.4210 C.3    87  PRO87       0.0282
     27  CG        48.2150    6.4030   23.2260 C.3    87  PRO87       0.0208
     28  CD        49.5380    6.0100   22.6860 C.3    87  PRO87       0.0893
     29  N         47.8010    8.8310   19.2450 N.am   88  ASP88      -0.1960
     30  CA        48.0050   10.0130   18.4600 C.3    88  ASP88       0.1840
     31  C         47.7660   11.2470   19.3510 C.2    88  ASP88       0.2622
     32  O         46.8400   11.3050   20.1220 O.2    88  ASP88      -0.2715
     33  CB        47.0220   10.0530   17.3170 C.3    88  ASP88       0.1450
     34  CG        47.3000   11.1900   16.3580 C.2    88  ASP88       0.3671
     35  OD1       48.2560   11.0440   15.5450 O.co2  88  ASP88      -0.2456
     36  OD2       46.5960   12.2080   16.4630 O.co2  88  ASP88      -0.2456
     37  N         48.6260   12.2290   19.2070 N.am   89  LYS89      -0.1963
     38  CA        48.5510   13.3980   20.1140 C.3    89  LYS89       0.1728
     39  C         47.5880   14.4900   19.6460 C.2    89  LYS89       0.2616
     40  O         47.3180   15.4670   20.3900 O.2    89  LYS89      -0.2715
     41  CB        49.9500   13.8960   20.4690 C.3    89  LYS89       0.0311
     42  CG        50.8250   12.8540   21.1540 C.3    89  LYS89       0.0038
     43  CD        52.2340   13.3350   21.4400 C.3    89  LYS89       0.0206
     44  CE        53.0400   12.2790   22.1920 C.3    89  LYS89       0.1093
     45  NZ        53.5370   11.2450   21.2530 N.3    89  LYS89      -0.1314
     46  N         47.1090   14.3780   18.4110 N.am   90  GLY90      -0.1955
     47  CA        46.0750   15.2660   17.9150 C.3    90  GLY90       0.1869
     48  C         46.5410   16.6650   17.5810 C.2    90  GLY90       0.2309
     49  O         45.6990   17.5760   17.4150 O.2    90  GLY90      -0.2863
     50  N         36.7160    6.8660   12.7890 N.3   155  ASN155     -0.1225
     51  CA        36.9190    7.1250   14.2410 C.3   155  ASN155      0.1785
     52  C         36.5270    8.5570   14.5090 C.2   155  ASN155      0.2597
     53  O         36.9700    9.4760   13.7970 O.2   155  ASN155     -0.2718
     54  CB        38.4170    6.9470   14.5390 C.3   155  ASN155      0.1169
     55  CG        38.8330    7.4640   15.8810 C.2   155  ASN155      0.2627
     56  OD1       38.6110    6.8100   16.9170 O.2   155  ASN155     -0.2716
     57  ND2       39.4460    8.6470   15.8710 N.am  155  ASN155     -0.0877
     58  N         35.6940    8.7630   15.5290 N.am  156  GLU156     -0.1979
     59  CA        35.3640   10.1240   15.9590 C.3   156  GLU156      0.1602
     60  C         34.9560   11.0360   14.7700 C.2   156  GLU156      0.2287
     61  O         35.4990   12.1160   14.5740 O.2   156  GLU156     -0.2864
     62  CB        36.4850   10.7390   16.7780 C.3   156  GLU156      0.0415
     63  CG        36.7610    9.8880   18.0050 C.3   156  GLU156      0.1163
     64  CD        37.7040   10.4440   19.0280 C.2   156  GLU156      0.3649
     65  OE1       38.4230   11.3930   18.7470 O.co2 156  GLU156     -0.2457
     66  OE2       37.6950    9.8580   20.1380 O.co2 156  GLU156     -0.2457
     67  N         34.3930   14.8250   15.0370 N.3   159  LEU159     -0.1245
     68  CA        35.5140   15.7610   15.0560 C.3   159  LEU159      0.1561
     69  C         36.1090   16.0330   13.6830 C.2   159  LEU159      0.2260
     70  O         36.9590   16.8820   13.5450 O.2   159  LEU159     -0.2867
     71  CB        36.5770   15.3070   16.0410 C.3   159  LEU159      0.0270
     72  CG        36.1290   15.3510   17.5210 C.3   159  LEU159      0.0019
     73  CD1       37.2450   14.8400   18.4230 C.3   159  LEU159      0.0001
     74  CD2       35.8020   16.7830   17.9400 C.3   159  LEU159      0.0001
     75  N         34.9660   17.7290   11.3250 N.3   161  TYR161     -0.1227
     76  CA        34.7490   19.1300   10.9350 C.3   161  TYR161      0.1736
     77  C         35.8260   20.0700   11.4390 C.2   161  TYR161      0.2595
     78  O         35.9660   21.1990   10.9450 O.2   161  TYR161     -0.2718
     79  CB        33.4000   19.5890   11.4330 C.3   161  TYR161      0.0548
     80  CG        33.3970   20.0810   12.8980 C.ar  161  TYR161     -0.0200
     81  CD1       33.3700   19.1870   13.9740 C.ar  161  TYR161     -0.0009
     82  CD2       33.4130   21.4400   13.1600 C.ar  161  TYR161     -0.0009
     83  CE1       33.3870   19.6340   15.2720 C.ar  161  TYR161      0.0417
     84  CE2       33.4350   21.8990   14.4680 C.ar  161  TYR161      0.0417
     85  CZ        33.4140   20.9910   15.5220 C.ar  161  TYR161      0.1957
     86  OH        33.4430   21.3980   16.8270 O.3   161  TYR161     -0.2866
     87  N         36.6070   19.6270   12.4290 N.am  162  ARG162     -0.1980
     88  CA        37.6460   20.4920   13.0060 C.3   162  ARG162      0.1597
     89  C         39.0670   19.9990   12.8930 C.2   162  ARG162      0.2287
     90  O         39.9510   20.7590   13.1840 O.2   162  ARG162     -0.2864
     91  CB        37.3430   20.8770   14.4410 C.3   162  ARG162      0.0334
     92  CG        37.4730   19.7250   15.3850 C.3   162  ARG162      0.0492
     93  CD        37.9700   20.1390   16.7390 C.3   162  ARG162      0.2205
     94  NE        37.2130   21.2270   17.3050 N.pl3 162  ARG162     -0.0865
     95  CZ        37.6120   21.9830   18.3330 C.cat 162  ARG162      0.5346
     96  NH1       38.7960   21.8010   18.9180 N.pl3 162  ARG162      0.1354
     97  NH2       36.8140   22.9510   18.7660 N.pl3 162  ARG162      0.1354
     98  N         33.5550   10.7800   19.4490 N.3   201  ALA201     -0.1231
     99  CA        34.3540   11.3320   20.5350 C.3   201  ALA201      0.1694
    100  C         33.5160   11.8330   21.6400 C.2   201  ALA201      0.2592
    101  O         33.8870   11.6210   22.8350 O.2   201  ALA201     -0.2718
    102  CB        35.2280   12.4780   20.0040 C.3   201  ALA201      0.0304
    103  N         32.4530   12.5650   21.3380 N.am  202  TYR202     -0.1976
    104  CA        31.7000   13.2570   22.3910 C.3   202  TYR202      0.1639
    105  C         30.2620   13.6590   22.0850 C.2   202  TYR202      0.2290
    106  O         29.4980   13.8720   23.0300 O.2   202  TYR202     -0.2864
    107  CB        32.4250   14.5650   22.8350 C.3   202  TYR202      0.0560
    108  CG        32.1570   15.7260   21.8670 C.ar  202  TYR202     -0.0198
    109  CD1       32.8050   15.7770   20.6340 C.ar  202  TYR202     -0.0009
    110  CD2       31.1740   16.6850   22.1250 C.ar  202  TYR202     -0.0009
    111  CE1       32.5000   16.7910   19.7120 C.ar  202  TYR202      0.0417
    112  CE2       30.8840   17.6870   21.2250 C.ar  202  TYR202      0.0417
    113  CZ        31.5710   17.7230   20.0120 C.ar  202  TYR202      0.1957
    114  OH        31.2230   18.7750   19.1470 O.3   202  TYR202     -0.2866
    115  N         36.6190   10.4910   27.5510 N.3   226  TYR226     -0.1241
    116  CA        37.8120   10.8850   28.2790 C.3   226  TYR226      0.1605
    117  C         37.3490   11.7060   29.4720 C.2   226  TYR226      0.2264
    118  O         36.4570   12.5080   29.3850 O.2   226  TYR226     -0.2867
    119  CB        38.8130   11.6420   27.3950 C.3   226  TYR226      0.0534
    120  CG        39.6360   10.7240   26.5390 C.ar  226  TYR226     -0.0201
    121  CD1       39.0730   10.0400   25.4840 C.ar  226  TYR226     -0.0009
    122  CD2       40.9840   10.5220   26.7830 C.ar  226  TYR226     -0.0009
    123  CE1       39.8170    9.1570   24.7150 C.ar  226  TYR226      0.0417
    124  CE2       41.7540    9.6780   26.0210 C.ar  226  TYR226      0.0417
    125  CZ        41.1490    8.9770   24.9670 C.ar  226  TYR226      0.1957
    126  OH        41.8640    8.0960   24.2100 O.3   226  TYR226     -0.2866
    127  N         37.7800   17.2710   30.2170 N.3   229  GLY229     -0.1210
    128  CA        36.7900   18.0080   29.4550 C.3   229  GLY229      0.1940
    129  C         37.3940   18.8340   28.3260 C.2   229  GLY229      0.2454
    130  O         38.4910   18.5700   27.8850 O.2   229  GLY229     -0.2732
    131  N         36.6640   19.8550   27.8570 N.am  230  PRO230     -0.2718
    132  CA        37.1250   20.6290   26.7140 C.3   230  PRO230      0.1520
    133  C         38.3960   21.4090   26.9800 C.2   230  PRO230      0.2440
    134  O         38.7970   21.5770   28.1620 O.2   230  PRO230     -0.2731
    135  CB        35.9410   21.5360   26.3960 C.3   230  PRO230      0.0310
    136  CG        35.1250   21.5620   27.6290 C.3   230  PRO230      0.0237
    137  CD        35.3070   20.2380   28.2850 C.3   230  PRO230      0.0939
    138  N         39.0530   21.8790   25.8980 N.am  231  PRO231     -0.2727
    139  CA        40.3600   22.5160   26.0970 C.3   231  PRO231      0.1402
    140  C         40.3210   23.7650   26.9890 C.2   231  PRO231      0.2269
    141  O         41.3590   24.1560   27.5470 O.2   231  PRO231     -0.2865
    142  CB        40.7330   22.9610   24.6710 C.3   231  PRO231      0.0296
    143  CG        40.0660   21.9720   23.7840 C.3   231  PRO231      0.0237
    144  CD        38.7900   21.5810   24.4680 C.3   231  PRO231      0.0939
    145  N         36.6160    3.4960   23.1630 N.3   270  GLN270     -0.1245
    146  CA        37.9120    4.1660   23.3400 C.3   270  GLN270      0.1566
    147  C         37.7490    5.0640   24.5120 C.2   270  GLN270      0.2260
    148  O         36.9220    5.9530   24.5650 O.2   270  GLN270     -0.2867
    149  CB        38.3020    5.0040   22.1120 C.3   270  GLN270      0.0367
    150  CG        39.7420    5.4910   22.1300 C.3   270  GLN270      0.0905
    151  CD        39.9930    6.5380   21.0750 C.2   270  GLN270      0.2608
    152  OE1       40.0790    6.2810   19.9090 O.2   270  GLN270     -0.2717
    153  NE2       40.1560    7.7380   21.5210 N.am  270  GLN270     -0.0878
    154  N         43.3010   13.5570   27.2230 N.3   275  TYR275     -0.1227
    155  CA        43.5550   13.3930   25.7710 C.3   275  TYR275      0.1736
    156  C         44.9210   13.9590   25.4020 C.2   275  TYR275      0.2595
    157  O         45.7780   14.2210   26.2800 O.2   275  TYR275     -0.2718
    158  CB        42.3040   13.6760   24.8490 C.3   275  TYR275      0.0548
    159  CG        41.7280   15.0080   25.1270 C.ar  275  TYR275     -0.0200
    160  CD1       42.2290   16.1420   24.4740 C.ar  275  TYR275     -0.0009
    161  CD2       40.6030   15.1360   25.8880 C.ar  275  TYR275     -0.0009
    162  CE1       41.6900   17.3920   24.7070 C.ar  275  TYR275      0.0417
    163  CE2       40.0510   16.3530   26.1410 C.ar  275  TYR275      0.0417
    164  CZ        40.5860   17.4920   25.5270 C.ar  275  TYR275      0.1957
    165  OH        40.0690   18.7440   25.7590 O.3   275  TYR275     -0.2866
    166  N         45.1970   14.0940   24.1110 N.am  276  GLN276     -0.1965
    167  CA        46.5080   14.4010   23.5870 C.3   276  GLN276      0.1733
    168  C         47.5650   13.3980   24.0450 C.2   276  GLN276      0.2616
    169  O         48.7330   13.7520   24.2010 O.2   276  GLN276     -0.2715
    170  CB        46.9610   15.8280   23.9230 C.3   276  GLN276      0.0408
    171  CG        45.8710   16.8650   23.8020 C.3   276  GLN276      0.0908
    172  CD        46.4210   18.2430   23.5400 C.2   276  GLN276      0.2608
    173  OE1       47.5040   18.5820   24.0160 O.2   276  GLN276     -0.2717
    174  NE2       45.7070   19.0280   22.7500 N.am  276  GLN276     -0.0878
    175  N         47.1650   12.1250   24.2280 N.am  277  GLY277     -0.1955
    176  CA        48.1120   11.0980   24.6640 C.3   277  GLY277      0.1869
    177  C         48.2950   11.0290   26.1690 C.2   277  GLY277      0.2309
    178  O         49.0470   10.1990   26.6650 O.2   277  GLY277     -0.2863
    179  N         42.3840    3.1370   25.6480 N.3   310  HIS310     -0.1241
    180  CA        43.3340    3.4620   24.5950 C.3   310  HIS310      0.1621
    181  C         44.7550    3.4720   25.0850 C.2   310  HIS310      0.2264
    182  O         45.0190    3.7310   26.3040 O.2   310  HIS310     -0.2867
    183  CB        42.9450    4.8030   23.9570 C.3   310  HIS310      0.0745
    184  CG        43.4780    5.0160   22.5650 C.ar  310  HIS310      0.0817
    185  ND1       43.2150    4.1450   21.5160 N.ar  310  HIS310     -0.2268
    186  CD2       44.2460    6.0110   22.0700 C.ar  310  HIS310      0.1154
    187  CE1       43.8260    4.6290   20.4490 C.ar  310  HIS310      0.1986
    188  NE2       44.4440    5.7630   20.7350 N.ar  310  HIS310     -0.2212
    189  N         49.0790    7.4670   29.0750 N.3   317  TYR317     -0.1241
    190  CA        47.9690    6.7320   29.6540 C.3   317  TYR317      0.1605
    191  C         47.9030    5.2490   29.2940 C.2   317  TYR317      0.2264
    192  O         46.9410    4.5790   29.6630 O.2   317  TYR317     -0.2867
    193  CB        46.6400    7.4100   29.3900 C.3   317  TYR317      0.0534
    194  CG        46.2190    7.6610   27.9590 C.ar  317  TYR317     -0.0201
    195  CD1       46.1510    6.6400   27.0220 C.ar  317  TYR317     -0.0009
    196  CD2       45.8410    8.9360   27.6000 C.ar  317  TYR317     -0.0009
    197  CE1       45.7130    6.9180   25.7140 C.ar  317  TYR317      0.0417
    198  CE2       45.4010    9.2170   26.3040 C.ar  317  TYR317      0.0417
    199  CZ        45.3310    8.2020   25.3730 C.ar  317  TYR317      0.1957
    200  OH        44.8180    8.4170   24.1220 O.3   317  TYR317     -0.2866
@<TRIPOS>BOND
     1    76    75    1
     2    76    79    1
     3    76    77    1
     4    78    77    2
     5    79    80    1
     6    77    87   am
     7    17    16    2
     8    87    88    1
     9    50    51    1
    10    89    88    1
    11    89    90    2
    12    80    82   ar
    13    80    81   ar
    14    88    91    1
    15    82    84   ar
    16    16    15    1
    17    70    69    2
    18    69    68    1
    19    53    52    2
    20    81    83   ar
    21    51    52    1
    22    51    54    1
    23    13    12    2
    24    91    92    1
    25    84    85   ar
    26    52    58   am
    27    54    55    1
    28    61    60    2
    29    15    18    1
    30    15    14    1
    31    60    59    1
    32    67    68    1
    33    68    71    1
    34    18    19    1
    35    83    85   ar
    36    92    93    1
    37    12    14   am
    38    12    11    1
    39    85    86    1
    40    58    59    1
    41    35    34   ar
    42     4     3    2
    43     3     2    1
    44    57    55   am
    45    55    56    2
    46    59    62    1
    47    71    72    1
    48    19    20    2
    49    19    21   am
    50    10    11    1
    51     8     7   ar
    52    34    36   ar
    53    34    33    1
    54    93    94    1
    55    62    63    1
    56     5     2    1
    57     5     6    1
    58     2     1    1
    59    94    95    2
    60    33    30    1
    61    49    48    2
    62    72    74    1
    63    72    73    1
    64     7     6    1
    65     7     9   ar
    66    48    47    1
    67    47    46    1
    68    63    64    1
    69    95    97    1
    70    95    96    1
    71    46    39   am
    72    30    29    1
    73    30    31    1
    74    65    64   ar
    75    64    66   ar
    76   114   113    1
    77    37    31   am
    78    37    38    1
    79    29    24   am
    80    31    32    2
    81    98    99    1
    82    39    38    1
    83    39    40    2
    84   111   113   ar
    85   111   109   ar
    86   152   151    2
    87   102    99    1
    88   113   112   ar
    89    38    41    1
    90    24    25    2
    91    24    23    1
    92   187   188   ar
    93   187   185   ar
    94    41    42    1
    95    99   100    1
    96   109   108   ar
    97   188   186   ar
    98    23    22    1
    99    23    26    1
   100   151   153   am
   101   151   150    1
   102    42    43    1
   103   112   110   ar
   104    45    44    1
   105    22    28    1
   106   103   100   am
   107   103   104    1
   108    43    44    1
   109   185   184   ar
   110   100   101    2
   111   108   110   ar
   112   108   107    1
   113   186   184   ar
   114   105   104    1
   115   105   106    2
   116   149   150    1
   117   149   146    1
   118   104   107    1
   119    26    27    1
   120   184   183    1
   121    28    27    1
   122   174   172   am
   123   145   146    1
   124   146   147    1
   125   172   171    1
   126   172   173    2
   127   167   170    1
   128   167   168    1
   129   167   166    1
   130   143   144    1
   131   143   142    1
   132   171   170    1
   133   183   180    1
   134   168   169    2
   135   168   175   am
   136   166   156   am
   137   200   199    1
   138   126   125    1
   139   175   176    1
   140   144   138    1
   141   160   162   ar
   142   160   159   ar
   143   147   148    2
   144   180   181    1
   145   180   179    1
   146   176   177    1
   147   142   139    1
   148   162   164   ar
   149   123   125   ar
   150   123   121   ar
   151   158   159    1
   152   158   155    1
   153   125   124   ar
   154   181   182    2
   155   159   161   ar
   156   199   197   ar
   157   199   198   ar
   158   156   155    1
   159   156   157    2
   160   121   120   ar
   161   164   165    1
   162   164   163   ar
   163   197   195   ar
   164   155   154    1
   165   161   163   ar
   166   138   139    1
   167   138   133   am
   168   124   122   ar
   169   139   140    1
   170   177   178    2
   171   198   196   ar
   172   135   132    1
   173   135   136    1
   174   120   122   ar
   175   120   119    1
   176   132   133    1
   177   132   131    1
   178   133   134    2
   179   140   141    2
   180   195   194   ar
   181   119   116    1
   182   115   116    1
   183   196   194   ar
   184   136   137    1
   185   131   137    1
   186   131   129   am
   187   130   129    2
   188   194   193    1
   189   116   117    1
   190   129   128    1
   191   189   190    1
   192   191   190    1
   193   191   192    2
   194   118   117    2
   195   193   190    1
   196   128   127    1
