@<TRIPOS>MOLECULE
tmp/5l78B00.pdb
 223 218 0 0 0
SMALL
GASTEIGER

@<TRIPOS>ATOM
      1  N         52.6640   50.8360   70.3360 N.3     7  GLY7       -0.1210
      2  CA        52.9960   49.4810   70.7280 C.3     7  GLY7        0.1956
      3  C         52.1700   48.9300   71.8770 C.2     7  GLY7        0.2613
      4  O         51.9990   49.5780   72.9170 O.2     7  GLY7       -0.2717
      5  N         51.6770   47.7030   71.7020 N.am    8  SER8       -0.1938
      6  CA        50.8320   47.0380   72.6850 C.3     8  SER8        0.2055
      7  C         51.4320   45.7180   73.1700 C.2     8  SER8        0.2644
      8  O         50.7040   44.8030   73.5660 O.2     8  SER8       -0.2714
      9  CB        49.4420   46.8120   72.1010 C.3     8  SER8        0.2130
     10  OG        49.5380   46.1060   70.8850 O.3     8  SER8       -0.2179
     11  N         52.7570   45.6180   73.1700 N.am    9  GLY9       -0.1939
     12  CA        53.4250   44.4860   73.7750 C.3     9  GLY9        0.2014
     13  C         53.1810   44.4600   75.2680 C.2     9  GLY9        0.2639
     14  O         52.4800   45.3210   75.8050 O.2     9  GLY9       -0.2714
     15  N         53.7330   43.4680   75.9550 N.am   10  TYR10      -0.1959
     16  CA        53.4970   43.3610   77.3910 C.3    10  TYR10       0.1771
     17  C         54.1540   44.4710   78.2000 C.2    10  TYR10       0.2619
     18  O         53.7850   44.6610   79.3630 O.2    10  TYR10      -0.2715
     19  CB        54.0240   42.0310   77.9050 C.3    10  TYR10       0.0574
     20  CG        55.5250   42.0600   77.9710 C.ar   10  TYR10      -0.0198
     21  CD1       56.2640   42.2500   76.8020 C.ar   10  TYR10      -0.0009
     22  CD2       56.2100   41.9280   79.1770 C.ar   10  TYR10      -0.0009
     23  CE1       57.6310   42.2910   76.8120 C.ar   10  TYR10       0.0417
     24  CE2       57.6020   41.9650   79.2070 C.ar   10  TYR10       0.0417
     25  CZ        58.3010   42.1460   78.0080 C.ar   10  TYR10       0.1957
     26  OH        59.6690   42.1980   77.9690 O.3    10  TYR10      -0.2866
     27  N         55.1080   45.2140   77.6350 N.am   11  ILE11      -0.1977
     28  CA        55.6450   46.3360   78.3950 C.3    11  ILE11       0.1596
     29  C         54.6570   47.4920   78.4490 C.2    11  ILE11       0.2287
     30  O         54.7150   48.3220   79.3600 O.2    11  ILE11      -0.2864
     31  CB        56.9940   46.7640   77.7990 C.3    11  ILE11       0.0276
     32  CG1       57.9970   45.6370   77.9510 C.3    11  ILE11       0.0022
     33  CG2       57.5090   48.0030   78.4750 C.3    11  ILE11       0.0022
     34  CD1       59.0440   45.6800   76.9140 C.3    11  ILE11       0.0001
     35  N         48.1460   52.5870   69.9040 N.3    30  GLY30      -0.1210
     36  CA        48.1060   52.1290   68.5260 C.3    30  GLY30       0.1956
     37  C         49.2020   51.1590   68.1670 C.2    30  GLY30       0.2613
     38  O         50.3420   51.3300   68.6070 O.2    30  GLY30      -0.2717
     39  N         48.8820   50.1480   67.3650 N.am   31  SER31      -0.1938
     40  CA        49.8620   49.1690   66.9050 C.3    31  SER31       0.2055
     41  C         49.1890   48.3200   65.8430 C.2    31  SER31       0.2643
     42  O         48.0380   48.5630   65.4620 O.2    31  SER31      -0.2714
     43  CB        50.4000   48.2700   68.0210 C.3    31  SER31       0.2130
     44  OG        49.4450   47.2930   68.3930 O.3    31  SER31      -0.2179
     45  N         49.9380   47.3330   65.3520 N.am   32  ASP32      -0.1957
     46  CA        49.4840   46.4570   64.2830 C.3    32  ASP32       0.1840
     47  C         48.8740   45.1600   64.7980 C.2    32  ASP32       0.2621
     48  O         48.4540   44.3320   63.9890 O.2    32  ASP32      -0.2715
     49  CB        50.6390   46.1440   63.3160 C.3    32  ASP32       0.1450
     50  CG        51.7920   45.4130   63.9830 C.2    32  ASP32       0.3671
     51  OD1       51.7800   45.2780   65.2300 O.co2  32  ASP32      -0.2456
     52  OD2       52.7370   45.0280   63.2520 O.co2  32  ASP32      -0.2456
     53  N         48.7740   44.9610   66.1020 N.am   33  MET33      -0.1977
     54  CA        48.1340   43.7570   66.6050 C.3    33  MET33       0.1605
     55  C         46.8420   44.1540   67.3010 C.2    33  MET33       0.2287
     56  O         46.8350   44.5060   68.4840 O.2    33  MET33      -0.2864
     57  CB        49.0870   42.9900   67.4980 C.3    33  MET33       0.0413
     58  CG        49.8890   42.0140   66.6620 C.3    33  MET33       0.0598
     59  SD        51.4000   41.4850   67.4580 S.3    33  MET33      -0.1393
     60  CE        50.7930   40.0470   68.3450 C.3    33  MET33       0.0692
     61  N         45.8070   42.4400   70.8030 N.3    36  GLN36      -0.1245
     62  CA        46.4940   43.0040   71.9600 C.3    36  GLN36       0.1566
     63  C         45.8160   44.2960   72.4220 C.2    36  GLN36       0.2260
     64  O         45.5800   44.4980   73.6250 O.2    36  GLN36      -0.2867
     65  CB        47.9590   43.2370   71.5960 C.3    36  GLN36       0.0367
     66  CG        48.7970   41.9780   71.6280 C.3    36  GLN36       0.0905
     67  CD        50.2090   42.1770   71.1080 C.2    36  GLN36       0.2608
     68  OE1       50.5310   43.2100   70.5290 O.2    36  GLN36      -0.2717
     69  NE2       51.0500   41.1680   71.2830 N.am   36  GLN36      -0.0878
     70  N         47.2560   50.4790   63.5800 N.3    51  MET51      -0.1230
     71  CA        48.2040   51.2020   62.7490 C.3    51  MET51       0.1702
     72  C         49.4830   50.4040   62.5590 C.2    51  MET51       0.2592
     73  O         50.0180   49.8340   63.5160 O.2    51  MET51      -0.2718
     74  CB        48.5400   52.5650   63.3450 C.3    51  MET51       0.0401
     75  CG        49.5440   53.3010   62.4840 C.3    51  MET51       0.0596
     76  SD        49.7870   54.9800   63.0210 S.3    51  MET51      -0.1393
     77  CE        50.2000   54.6700   64.7320 C.3    51  MET51       0.0692
     78  N         49.9600   50.3820   61.3130 N.am   52  ASP52      -0.1960
     79  CA        51.2650   49.8510   60.9370 C.3    52  ASP52       0.1840
     80  C         52.1850   51.0300   60.6310 C.2    52  ASP52       0.2622
     81  O         52.0300   51.6840   59.5950 O.2    52  ASP52      -0.2715
     82  CB        51.1440   48.9090   59.7440 C.3    52  ASP52       0.1450
     83  CG        52.4260   48.1650   59.4650 C.2    52  ASP52       0.3671
     84  OD1       53.3960   48.8100   59.0020 O.co2  52  ASP52      -0.2456
     85  OD2       52.4570   46.9370   59.7070 O.co2  52  ASP52      -0.2456
     86  N         53.1290   51.3060   61.5390 N.am   53  ILE53      -0.1963
     87  CA        53.9450   52.5180   61.4490 C.3    53  ILE53       0.1727
     88  C         54.6740   52.5950   60.1150 C.2    53  ILE53       0.2616
     89  O         54.8410   53.6780   59.5420 O.2    53  ILE53      -0.2715
     90  CB        54.9390   52.5800   62.6250 C.3    53  ILE53       0.0290
     91  CG1       54.1950   52.8610   63.9120 C.3    53  ILE53       0.0022
     92  CG2       55.9400   53.7070   62.4250 C.3    53  ILE53       0.0023
     93  CD1       53.2360   54.0040   63.7520 C.3    53  ILE53       0.0001
     94  N         55.1120   51.4570   59.5890 N.am   54  CYS54      -0.1968
     95  CA        55.8700   51.4970   58.3460 C.3    54  CYS54       0.1712
     96  C         55.0100   51.9830   57.1900 C.2    54  CYS54       0.2296
     97  O         55.4620   52.7860   56.3620 O.2    54  CYS54      -0.2864
     98  CB        56.4660   50.1240   58.0660 C.3    54  CYS54       0.0983
     99  SG        57.6620   49.6780   59.3510 S.3    54  CYS54      -0.0798
    100  N         56.8510   52.3290   72.3170 N.3    73  LEU73      -0.1231
    101  CA        57.1610   51.0010   72.8290 C.3    73  LEU73       0.1693
    102  C         57.2810   49.9860   71.6940 C.2    73  LEU73       0.2592
    103  O         57.0290   48.7970   71.8830 O.2    73  LEU73      -0.2718
    104  CB        56.1010   50.5580   73.8370 C.3    73  LEU73       0.0284
    105  CG        56.0110   51.4360   75.0720 C.3    73  LEU73       0.0019
    106  CD1       55.0420   50.8570   76.0620 C.3    73  LEU73       0.0001
    107  CD2       57.3680   51.5880   75.6950 C.3    73  LEU73       0.0001
    108  N         57.6700   50.4400   70.5270 N.am   74  LEU74      -0.1966
    109  CA        57.8220   49.6050   69.3520 C.3    74  LEU74       0.1713
    110  C         59.2090   48.9920   69.3170 C.2    74  LEU74       0.2458
    111  O         60.1120   49.4400   70.0300 O.2    74  LEU74      -0.2730
    112  CB        57.6000   50.4260   68.0880 C.3    74  LEU74       0.0310
    113  CG        56.2790   51.1620   67.8880 C.3    74  LEU74       0.0022
    114  CD1       56.4600   52.2220   66.8110 C.3    74  LEU74       0.0001
    115  CD2       55.1680   50.1930   67.5260 C.3    74  LEU74       0.0001
    116  N         59.4120   47.9550   68.5030 N.am   75  PRO75      -0.2716
    117  CA        60.7770   47.4790   68.2600 C.3    75  PRO75       0.1536
    118  C         61.6710   48.6630   67.9430 C.2    75  PRO75       0.2598
    119  O         61.3050   49.5490   67.1760 O.2    75  PRO75      -0.2715
    120  CB        60.6200   46.5260   67.0680 C.3    75  PRO75       0.0310
    121  CG        59.2130   46.7190   66.5690 C.3    75  PRO75       0.0237
    122  CD        58.4170   47.1850   67.7370 C.3    75  PRO75       0.0939
    123  N         62.8520   48.6830   68.5470 N.am   76  TYR76      -0.1974
    124  CA        63.6050   49.9300   68.5830 C.3    76  TYR76       0.1639
    125  C         63.9710   50.4470   67.1970 C.2    76  TYR76       0.2290
    126  O         64.2550   51.6420   67.0580 O.2    76  TYR76      -0.2864
    127  CB        64.8950   49.7650   69.3930 C.3    76  TYR76       0.0560
    128  CG        65.9310   48.8620   68.7470 C.ar   76  TYR76      -0.0198
    129  CD1       65.9300   47.4960   68.9700 C.ar   76  TYR76      -0.0009
    130  CD2       66.9080   49.3860   67.9110 C.ar   76  TYR76      -0.0009
    131  CE1       66.8640   46.6840   68.3850 C.ar   76  TYR76       0.0417
    132  CE2       67.8490   48.5740   67.3220 C.ar   76  TYR76       0.0417
    133  CZ        67.8250   47.2230   67.5660 C.ar   76  TYR76       0.1957
    134  OH        68.7620   46.3960   66.9810 O.3    76  TYR76      -0.2866
    135  N         62.1640   51.0770   64.6460 N.3    78  LEU78      -0.1231
    136  CA        61.1610   52.0120   64.1610 C.3    78  LEU78       0.1693
    137  C         61.1840   53.3640   64.8710 C.2    78  LEU78       0.2592
    138  O         60.5480   54.3120   64.3800 O.2    78  LEU78      -0.2718
    139  CB        59.7690   51.4070   64.3440 C.3    78  LEU78       0.0284
    140  CG        59.5310   50.0100   63.7980 C.3    78  LEU78       0.0019
    141  CD1       58.1180   49.5270   64.1690 C.3    78  LEU78       0.0001
    142  CD2       59.7610   50.0200   62.2910 C.3    78  LEU78       0.0001
    143  N         61.8640   53.4770   66.0140 N.am   79  HIS79      -0.1976
    144  CA        61.8130   54.7190   66.7860 C.3    79  HIS79       0.1656
    145  C         62.0990   55.9480   65.9370 C.2    79  HIS79       0.2291
    146  O         61.4520   56.9840   66.1680 O.2    79  HIS79      -0.2864
    147  CB        62.7950   54.6790   67.9770 C.3    79  HIS79       0.0771
    148  CG        62.3750   53.7810   69.1030 C.ar   79  HIS79       0.0820
    149  ND1       61.0560   53.4850   69.3750 N.ar   79  HIS79      -0.2267
    150  CD2       63.1080   53.0910   70.0080 C.ar   79  HIS79       0.1154
    151  CE1       60.9940   52.6660   70.4120 C.ar   79  HIS79       0.1986
    152  NE2       62.2260   52.4040   70.8090 N.ar   79  HIS79      -0.2212
    153  N         62.2460   53.3530   75.5740 N.3    96  ALA96      -0.1231
    154  CA        62.9650   52.4930   76.5020 C.3    96  ALA96       0.1694
    155  C         64.1160   51.7450   75.8220 C.2    96  ALA96       0.2592
    156  O         64.3570   50.5830   76.1190 O.2    96  ALA96      -0.2718
    157  CB        61.9950   51.5100   77.1440 C.3    96  ALA96       0.0304
    158  N         64.8470   52.3830   74.9080 N.am   97  SER97      -0.1952
    159  CA        65.7790   51.6650   74.0530 C.3    97  SER97       0.1924
    160  C         67.1070   52.3940   73.9680 C.2    97  SER97       0.2314
    161  O         67.1780   53.6070   74.1580 O.2    97  SER97      -0.2863
    162  CB        65.2060   51.5120   72.6470 C.3    97  SER97       0.2116
    163  OG        63.8640   51.0620   72.7050 O.3    97  SER97      -0.2180
    164  N         65.3820   54.5250   78.7500 N.3   121  LEU121     -0.1245
    165  CA        64.6410   54.2460   79.9630 C.3   121  LEU121      0.1561
    166  C         64.3380   52.7600   80.0180 C.2   121  LEU121      0.2260
    167  O         64.4560   52.0440   79.0270 O.2   121  LEU121     -0.2867
    168  CB        63.3630   55.0820   80.0250 C.3   121  LEU121      0.0270
    169  CG        63.6180   56.5810   80.1290 C.3   121  LEU121      0.0019
    170  CD1       62.4220   57.3530   79.6720 C.3   121  LEU121      0.0001
    171  CD2       63.9240   56.9180   81.5640 C.3   121  LEU121      0.0001
    172  N         65.1240   48.9510   82.0390 N.3   123  LEU123     -0.1231
    173  CA        66.0320   48.2080   82.9110 C.3   123  LEU123      0.1693
    174  C         67.4700   48.2690   82.3990 C.2   123  LEU123      0.2592
    175  O         68.3560   48.7480   83.1070 O.2   123  LEU123     -0.2718
    176  CB        65.5440   46.7610   83.0840 C.3   123  LEU123      0.0284
    177  CG        66.4680   45.8120   83.8600 C.3   123  LEU123      0.0019
    178  CD1       66.5970   46.1640   85.3430 C.3   123  LEU123      0.0001
    179  CD2       65.9800   44.4070   83.7040 C.3   123  LEU123      0.0001
    180  N         67.7190   47.7500   81.2000 N.am  124  ASP124     -0.1960
    181  CA        69.0260   47.8620   80.5510 C.3   124  ASP124      0.1825
    182  C         68.8420   48.1690   79.0490 C.2   124  ASP124      0.2464
    183  O         68.6460   47.2790   78.2350 O.2   124  ASP124     -0.2730
    184  CB        69.8640   46.5830   80.7590 C.3   124  ASP124      0.1450
    185  CG        71.2090   46.5960   79.9790 C.2   124  ASP124      0.3671
    186  OD1       71.7180   47.6700   79.5810 O.co2 124  ASP124     -0.2456
    187  OD2       71.7800   45.5060   79.7670 O.co2 124  ASP124     -0.2456
    188  N         68.9570   49.4400   78.6760 N.am  125  PRO125     -0.2727
    189  CA        69.3450   50.5490   79.5540 C.3   125  PRO125      0.1402
    190  C         68.2100   51.1010   80.3920 C.2   125  PRO125      0.2269
    191  O         67.0450   50.7340   80.2220 O.2   125  PRO125     -0.2865
    192  CB        69.8260   51.6090   78.5630 C.3   125  PRO125      0.0296
    193  CG        68.9430   51.3890   77.3680 C.3   125  PRO125      0.0237
    194  CD        68.7480   49.8870   77.2860 C.3   125  PRO125      0.0939
    195  N         61.2190   36.4940   76.5520 N.3   172  TRP172     -0.1241
    196  CA        61.0080   36.7540   75.1270 C.3   172  TRP172      0.1605
    197  C         62.0160   35.9020   74.3610 C.2   172  TRP172      0.2264
    198  O         62.7500   35.1070   74.9580 O.2   172  TRP172     -0.2867
    199  CB        61.1670   38.2330   74.7870 C.3   172  TRP172      0.0550
    200  CG        62.4220   38.7570   75.3120 C.ar  172  TRP172      0.0003
    201  CD1       63.6810   38.4360   74.8910 C.ar  172  TRP172      0.0946
    202  CD2       62.5800   39.6620   76.4000 C.ar  172  TRP172      0.0152
    203  NE1       64.6150   39.1100   75.6370 N.ar  172  TRP172     -0.2442
    204  CE2       63.9610   39.8680   76.5730 C.ar  172  TRP172      0.0810
    205  CE3       61.6890   40.3290   77.2340 C.ar  172  TRP172      0.0012
    206  CZ2       64.4710   40.7140   77.5500 C.ar  172  TRP172      0.0191
    207  CZ3       62.1990   41.1700   78.2030 C.ar  172  TRP172      0.0001
    208  CH2       63.5740   41.3580   78.3520 C.ar  172  TRP172      0.0015
    209  N         60.3940   41.8780   85.0730 N.3   381  MET381     -0.1245
    210  CA        60.9000   42.5360   83.8750 C.3   381  MET381      0.1570
    211  C         59.9460   43.6300   83.3920 C.2   381  MET381      0.2261
    212  O         60.3770   44.7290   83.0280 O.2   381  MET381     -0.2867
    213  CB        61.1080   41.5000   82.7750 C.3   381  MET381      0.0387
    214  CG        61.7150   42.0490   81.5300 C.3   381  MET381      0.0595
    215  SD        63.3760   42.6650   81.8500 S.3   381  MET381     -0.1393
    216  CE        64.2060   41.1470   82.3230 C.3   381  MET381      0.0692
    217  N         61.0110   47.5930   83.4210 N.3   385  VAL385     -0.1245
    218  CA        61.1160   48.2290   82.1100 C.3   385  VAL385      0.1561
    219  C         60.0890   49.3540   81.9590 C.2   385  VAL385      0.2260
    220  O         60.4280   50.5000   81.6280 O.2   385  VAL385     -0.2867
    221  CB        60.9540   47.1800   80.9940 C.3   385  VAL385      0.0252
    222  CG1       60.8930   47.8630   79.6190 C.3   385  VAL385      0.0019
    223  CG2       62.0660   46.1550   81.0540 C.3   385  VAL385      0.0019
@<TRIPOS>BOND
     1    97    96    2
     2    96    95    1
     3    98    95    1
     4    98    99    1
     5    95    94    1
     6    84    83   ar
     7    83    85   ar
     8    83    82    1
     9    89    88    2
    10    94    88   am
    11    81    80    2
    12    82    79    1
    13    88    87    1
    14    80    79    1
    15    80    86   am
    16    79    78    1
    17    78    72   am
    18    87    86    1
    19    87    90    1
    20   142   140    1
    21    92    90    1
    22    75    76    1
    23    75    74    1
    24    72    71    1
    25    72    73    2
    26    90    91    1
    27    71    74    1
    28    71    70    1
    29    76    77    1
    30    52    50   ar
    31    49    50    1
    32    49    46    1
    33    93    91    1
    34   140   141    1
    35   140   139    1
    36    50    51   ar
    37    48    47    2
    38   136   139    1
    39   136   135    1
    40   136   137    1
    41    46    47    1
    42    46    45    1
    43   138   137    2
    44    47    53   am
    45   137   143   am
    46    45    41   am
    47    42    41    2
    48    41    40    1
    49   145   146    2
    50   145   144    1
    51   143   144    1
    52    53    54    1
    53   121   120    1
    54   121   122    1
    55    54    55    1
    56    54    57    1
    57    58    59    1
    58    58    57    1
    59   144   147    1
    60   114   113    1
    61    40    39    1
    62    40    43    1
    63   134   133    1
    64   126   125    2
    65   120   117    1
    66   119   118    2
    67   125   124    1
    68    55    56    2
    69   132   133   ar
    70   132   130   ar
    71    39    37   am
    72    59    60    1
    73   115   113    1
    74   133   131   ar
    75   122   116    1
    76   113   112    1
    77   130   128   ar
    78   118   117    1
    79   118   123   am
    80   147   148    1
    81    43    44    1
    82   112   109    1
    83    37    36    1
    84    37    38    2
    85   117   116    1
    86   131   129   ar
    87   116   110   am
    88    36    35    1
    89   123   124    1
    90   124   127    1
    91   128   129   ar
    92   128   127    1
    93   148   149   ar
    94   148   150   ar
    95   110   109    1
    96   110   111    2
    97   109   108    1
    98   149   151   ar
    99   150   152   ar
   100     1     2    1
   101   151   152   ar
   102   108   102   am
   103    68    67    2
   104     2     3    1
   105    61    62    1
   106    10     9    1
   107    67    69   am
   108    67    66    1
   109    65    66    1
   110    65    62    1
   111   102   103    2
   112   102   101    1
   113     5     3   am
   114     5     6    1
   115     3     4    2
   116    62    63    1
   117     9     6    1
   118   100   101    1
   119    63    64    2
   120   162   163    1
   121   162   159    1
   122     6     7    1
   123   101   104    1
   124    11     7   am
   125    11    12    1
   126     7     8    2
   127    12    13    1
   128   104   105    1
   129   160   159    1
   130   160   161    2
   131   159   158    1
   132   197   198    2
   133   197   196    1
   134   199   196    1
   135   199   200    1
   136   201   200   ar
   137   201   203   ar
   138   158   155   am
   139   105   107    1
   140   105   106    1
   141   196   195    1
   142    13    14    2
   143    13    15   am
   144   200   202   ar
   145   153   154    1
   146   203   204   ar
   147   155   156    2
   148   155   154    1
   149    15    16    1
   150   202   204   ar
   151   202   205   ar
   152   154   157    1
   153   204   206   ar
   154    21    23   ar
   155    21    20   ar
   156    23    25   ar
   157    34    32    1
   158   205   207   ar
   159   194   193    1
   160   194   188    1
   161   193   192    1
   162    16    19    1
   163    16    17    1
   164   206   208   ar
   165    27    17   am
   166    27    28    1
   167    31    32    1
   168    31    28    1
   169    31    33    1
   170    19    20    1
   171    26    25    1
   172    20    22   ar
   173    25    24   ar
   174    17    18    2
   175   207   208   ar
   176   183   182    2
   177    28    29    1
   178    29    30    2
   179   192   189    1
   180   188   182   am
   181   188   189    1
   182   164   165    1
   183   167   166    2
   184   182   181    1
   185    22    24   ar
   186   189   190    1
   187   186   185   ar
   188   222   221    1
   189   170   169    1
   190   187   185   ar
   191   165   166    1
   192   165   168    1
   193   185   184    1
   194   168   169    1
   195   169   171    1
   196   191   190    2
   197   181   184    1
   198   181   180    1
   199   221   223    1
   200   221   218    1
   201   180   174   am
   202   214   215    1
   203   214   213    1
   204   220   219    2
   205   215   216    1
   206   219   218    1
   207   172   173    1
   208   218   217    1
   209   174   173    1
   210   174   175    2
   211   213   210    1
   212   173   176    1
   213   212   211    2
   214   176   177    1
   215   211   210    1
   216   179   177    1
   217   177   178    1
   218   210   209    1
