@<TRIPOS>MOLECULE
tmp/5l79A00.pdb
 231 229 0 0 0
SMALL
GASTEIGER

@<TRIPOS>ATOM
      1  N         20.3690   24.9160   -4.1150 N.3    68  HIS68      -0.1241
      2  CA        19.4250   25.5110   -3.1770 C.3    68  HIS68       0.1621
      3  C         19.8940   25.3580   -1.7330 C.2    68  HIS68       0.2264
      4  O         19.5270   24.4040   -1.0460 O.2    68  HIS68      -0.2867
      5  CB        18.0390   24.8850   -3.3540 C.3    68  HIS68       0.0745
      6  CG        17.4860   25.0340   -4.7380 C.ar   68  HIS68       0.0817
      7  ND1       16.6720   26.0820   -5.1050 N.ar   68  HIS68      -0.2268
      8  CD2       17.6420   24.2690   -5.8440 C.ar   68  HIS68       0.1154
      9  CE1       16.3460   25.9560   -6.3810 C.ar   68  HIS68       0.1986
     10  NE2       16.9210   24.8650   -6.8510 N.ar   68  HIS68      -0.2212
     11  N         18.7210   28.1600   11.2290 N.3    73  LYS73      -0.1231
     12  CA        17.4680   27.9290   11.9420 C.3    73  LYS73       0.1693
     13  C         16.4180   28.9810   11.5940 C.2    73  LYS73       0.2593
     14  O         16.6890   30.1810   11.6340 O.2    73  LYS73      -0.2718
     15  CB        17.6950   27.9040   13.4540 C.3    73  LYS73       0.0285
     16  CG        16.4220   27.6290   14.2390 C.3    73  LYS73       0.0035
     17  CD        16.6890   27.4470   15.7210 C.3    73  LYS73       0.0206
     18  CE        15.3990   27.1340   16.4660 C.3    73  LYS73       0.1093
     19  NZ        15.6280   26.9050   17.9190 N.3    73  LYS73      -0.1314
     20  N         15.2190   28.5170   11.2550 N.am   74  GLY74      -0.1942
     21  CA        14.1450   29.3990   10.8360 C.3    74  GLY74       0.2014
     22  C         14.0740   29.4770    9.3250 C.2    74  GLY74       0.2639
     23  O         14.7910   28.7580    8.6290 O.2    74  GLY74      -0.2714
     24  N         13.2120   30.3510    8.8160 N.am   75  GLY75      -0.1939
     25  CA        13.0550   30.5190    7.3830 C.3    75  GLY75       0.2014
     26  C         12.6380   29.2370    6.6890 C.2    75  GLY75       0.2639
     27  O         11.6270   28.6270    7.0400 O.2    75  GLY75      -0.2714
     28  N         13.4240   28.8230    5.7010 N.am   76  ILE76      -0.1963
     29  CA        13.1450   27.5980    4.9620 C.3    76  ILE76       0.1727
     30  C         13.4490   26.3660    5.8050 C.2    76  ILE76       0.2616
     31  O         14.5770   26.1710    6.2490 O.2    76  ILE76      -0.2715
     32  CB        13.9550   27.5300    3.6570 C.3    76  ILE76       0.0290
     33  CG1       13.5350   28.6630    2.7190 C.3    76  ILE76       0.0022
     34  CG2       13.7700   26.1820    2.9800 C.3    76  ILE76       0.0023
     35  CD1       12.0630   28.6630    2.3880 C.3    76  ILE76       0.0001
     36  N         12.4350   25.5360    6.0190 N.am   77  LEU77      -0.1963
     37  CA        12.5830   24.3500    6.8510 C.3    77  LEU77       0.1728
     38  C         13.0600   23.1490    6.0430 C.2    77  LEU77       0.2616
     39  O         13.7170   22.2550    6.5770 O.2    77  LEU77      -0.2715
     40  CB        11.2580   24.0190    7.5370 C.3    77  LEU77       0.0311
     41  CG        10.6290   25.1450    8.3560 C.3    77  LEU77       0.0022
     42  CD1        9.2110   24.7820    8.7510 C.3    77  LEU77       0.0001
     43  CD2       11.4690   25.4410    9.5880 C.3    77  LEU77       0.0001
     44  N         12.7230   23.1430    4.7560 N.am   78  ALA78      -0.1963
     45  CA        13.0100   22.0170    3.8750 C.3    78  ALA78       0.1728
     46  C         12.6540   22.3470    2.4290 C.2    78  ALA78       0.2616
     47  O         12.0140   23.3610    2.1550 O.2    78  ALA78      -0.2715
     48  CB        12.2440   20.7780    4.3310 C.3    78  ALA78       0.0334
     49  N         13.0780   21.4910    1.5060 N.am   79  HIS79      -0.1973
     50  CA        12.6130   21.5730    0.1270 C.3    79  HIS79       0.1656
     51  C         12.6610   20.2030   -0.5360 C.2    79  HIS79       0.2291
     52  O         13.3970   19.3160   -0.1030 O.2    79  HIS79      -0.2864
     53  CB        13.4310   22.5880   -0.6820 C.3    79  HIS79       0.0771
     54  CG        14.9020   22.3090   -0.7200 C.ar   79  HIS79       0.0820
     55  ND1       15.8440   23.2480   -0.3560 N.ar   79  HIS79      -0.2267
     56  CD2       15.5970   21.2080   -1.0940 C.ar   79  HIS79       0.1154
     57  CE1       17.0530   22.7350   -0.4960 C.ar   79  HIS79       0.1986
     58  NE2       16.9300   21.4970   -0.9410 N.ar   79  HIS79      -0.2212
     59  N         17.2600   23.2880   11.9000 N.3    97  GLU97      -0.1245
     60  CA        16.0070   23.2630   12.6460 C.3    97  GLU97       0.1567
     61  C         16.0660   22.1660   13.7010 C.2    97  GLU97       0.2260
     62  O         16.8830   21.2490   13.6050 O.2    97  GLU97      -0.2867
     63  CB        14.8110   23.0320   11.7160 C.3    97  GLU97       0.0388
     64  CG        14.9120   23.7160   10.3610 C.3    97  GLU97       0.1160
     65  CD        14.8580   25.2320   10.4440 C.2    97  GLU97       0.3649
     66  OE1       14.5740   25.7730   11.5330 O.co2  97  GLU97      -0.2457
     67  OE2       15.0980   25.8850    9.4100 O.co2  97  GLU97      -0.2457
     68  N         10.2450   22.0290   15.2340 N.3   106  THR106     -0.1218
     69  CA         9.5700   21.7900   13.9660 C.3   106  THR106      0.1862
     70  C          9.1580   20.3280   13.8560 C.2   106  THR106      0.2287
     71  O         10.0010   19.4340   13.9080 O.2   106  THR106     -0.2866
     72  CB        10.4630   22.1590   12.7680 C.3   106  THR106      0.1770
     73  OG1       11.0320   23.4570   12.9740 O.3   106  THR106     -0.2211
     74  CG2        9.6510   22.1640   11.4820 C.3   106  THR106      0.0375
     75  N          4.6550   16.5660    9.8800 N.3   110  LEU110     -0.1231
     76  CA         3.9280   17.5710    9.1090 C.3   110  LEU110      0.1693
     77  C          4.7650   18.1200    7.9580 C.2   110  LEU110      0.2592
     78  O          4.2790   18.2590    6.8340 O.2   110  LEU110     -0.2718
     79  CB         3.4770   18.7140   10.0200 C.3   110  LEU110      0.0284
     80  CG         2.4440   18.3320   11.0820 C.3   110  LEU110      0.0019
     81  CD1        2.1200   19.5190   11.9720 C.3   110  LEU110      0.0001
     82  CD2        1.1840   17.7920   10.4230 C.3   110  LEU110      0.0001
     83  N          6.0250   18.4300    8.2440 N.am  111  THR111     -0.1953
     84  CA         6.9450   18.9170    7.2220 C.3   111  THR111      0.1897
     85  C          7.1440   17.8710    6.1310 C.2   111  THR111      0.2313
     86  O          7.2070   18.1980    4.9450 O.2   111  THR111     -0.2863
     87  CB         8.3140   19.2890    7.8260 C.3   111  THR111      0.1794
     88  OG1        8.1370   20.2830    8.8430 O.3   111  THR111     -0.2208
     89  CG2        9.2490   19.8280    6.7510 C.3   111  THR111      0.0378
     90  N          4.1730   17.6430    3.7150 N.3   114  HIS114     -0.1226
     91  CA         4.2640   18.7620    2.7840 C.3   114  HIS114      0.1752
     92  C          5.3150   18.5150    1.7050 C.2   114  HIS114      0.2595
     93  O          5.0560   18.7190    0.5200 O.2   114  HIS114     -0.2718
     94  CB         4.5820   20.0540    3.5400 C.3   114  HIS114      0.0759
     95  CG         4.7360   21.2540    2.6570 C.ar  114  HIS114      0.0818
     96  ND1        3.7060   22.1390    2.4180 N.ar  114  HIS114     -0.2268
     97  CD2        5.8010   21.7200    1.9630 C.ar  114  HIS114      0.1154
     98  CE1        4.1300   23.0960    1.6110 C.ar  114  HIS114      0.1986
     99  NE2        5.3970   22.8660    1.3210 N.ar  114  HIS114     -0.2212
    100  N          6.4980   18.0680    2.1170 N.am  115  GLU115     -0.1979
    101  CA         7.5960   17.8550    1.1790 C.3   115  GLU115      0.1602
    102  C          7.3440   16.6820    0.2370 C.2   115  GLU115      0.2287
    103  O          7.6770   16.7490   -0.9480 O.2   115  GLU115     -0.2864
    104  CB         8.9100   17.6410    1.9330 C.3   115  GLU115      0.0415
    105  CG         9.4160   18.8820    2.6510 C.3   115  GLU115      0.1163
    106  CD         9.6140   20.0630    1.7170 C.2   115  GLU115      0.3649
    107  OE1        9.8360   19.8510    0.5070 O.co2 115  GLU115     -0.2457
    108  OE2        9.5440   21.2110    2.1950 O.co2 115  GLU115     -0.2457
    109  N          5.3700   17.6700   -2.5880 N.3   118  HIS118     -0.1241
    110  CA         6.2320   18.2180   -3.6300 C.3   118  HIS118      0.1621
    111  C          6.9090   17.1000   -4.4150 C.2   118  HIS118      0.2264
    112  O          7.0250   17.1680   -5.6380 O.2   118  HIS118     -0.2867
    113  CB         7.2910   19.1450   -3.0280 C.3   118  HIS118      0.0745
    114  CG         6.7710   20.4970   -2.6530 C.ar  118  HIS118      0.0817
    115  ND1        5.8880   21.2000   -3.4440 N.ar  118  HIS118     -0.2268
    116  CD2        7.0110   21.2760   -1.5720 C.ar  118  HIS118      0.1154
    117  CE1        5.6070   22.3540   -2.8680 C.ar  118  HIS118      0.1986
    118  NE2        6.2750   22.4250   -1.7300 N.ar  118  HIS118     -0.2212
    119  N          1.7220   24.6210   -4.4890 N.3   124  HIS124     -0.1241
    120  CA         1.1920   25.1840   -3.2520 C.3   124  HIS124      0.1621
    121  C         -0.2990   25.5030   -3.3380 C.2   124  HIS124      0.2264
    122  O         -0.8460   25.7110   -4.4210 O.2   124  HIS124     -0.2867
    123  CB         1.9630   26.4490   -2.8670 C.3   124  HIS124      0.0745
    124  CG         3.2540   26.1780   -2.1600 C.ar  124  HIS124      0.0817
    125  ND1        4.1960   27.1570   -1.9270 N.ar  124  HIS124     -0.2268
    126  CD2        3.7560   25.0390   -1.6270 C.ar  124  HIS124      0.1154
    127  CE1        5.2240   26.6320   -1.2860 C.ar  124  HIS124      0.1986
    128  NE2        4.9830   25.3480   -1.0910 N.ar  124  HIS124     -0.2212
    129  N         -5.4280   27.8310    3.9630 N.3   128  PRO128     -0.2102
    130  CA        -4.7230   27.6810    5.2430 C.3   128  PRO128      0.1504
    131  C         -4.9820   26.3310    5.9100 C.2   128  PRO128      0.2576
    132  O         -4.2870   25.9690    6.8590 O.2   128  PRO128     -0.2718
    133  CB        -5.2900   28.8240    6.0940 C.3   128  PRO128      0.0282
    134  CG        -6.6000   29.1570    5.4690 C.3   128  PRO128      0.0208
    135  CD        -6.4030   28.9340    3.9990 C.3   128  PRO128      0.0893
    136  N         -5.9760   25.6020    5.4180 N.am  129  LYS129     -0.1966
    137  CA        -6.2950   24.2820    5.9440 C.3   129  LYS129      0.1728
    138  C         -5.5410   23.1930    5.1830 C.2   129  LYS129      0.2616
    139  O         -5.4040   22.0660    5.6620 O.2   129  LYS129     -0.2715
    140  CB        -7.8050   24.0360    5.8750 C.3   129  LYS129      0.0311
    141  CG        -8.6100   24.9100    6.8280 C.3   129  LYS129      0.0038
    142  CD       -10.1120   24.7940    6.5910 C.3   129  LYS129      0.0206
    143  CE       -10.5850   25.7650    5.5160 C.3   129  LYS129      0.1093
    144  NZ       -11.0740   25.0660    4.2940 N.3   129  LYS129     -0.1314
    145  N         -5.0490   23.5390    3.9980 N.am  130  ALA130     -0.1963
    146  CA        -4.3380   22.5870    3.1530 C.3   130  ALA130      0.1728
    147  C         -2.9140   22.3630    3.6490 C.2   130  ALA130      0.2616
    148  O         -2.2570   23.2900    4.1170 O.2   130  ALA130     -0.2715
    149  CB        -4.3290   23.0660    1.7090 C.3   130  ALA130      0.0334
    150  N         -2.4430   21.1240    3.5470 N.am  131  VAL131     -0.1977
    151  CA        -1.0970   20.7880    3.9880 C.3   131  VAL131      0.1596
    152  C         -0.0660   21.3430    3.0060 C.2   131  VAL131      0.2287
    153  O          1.1080   21.5070    3.3450 O.2   131  VAL131     -0.2864
    154  CB        -0.9160   19.2610    4.1430 C.3   131  VAL131      0.0276
    155  CG1       -0.8310   18.5820    2.7820 C.3   131  VAL131      0.0022
    156  CG2        0.3150   18.9520    4.9830 C.3   131  VAL131      0.0022
    157  N         -0.2260   24.2980    1.8900 N.3   133  PHE133     -0.1228
    158  CA        -0.1060   25.7210    2.1850 C.3   133  PHE133      0.1721
    159  C          1.3790   26.0380    2.3580 C.2   133  PHE133      0.2437
    160  O          2.1070   25.2540    2.9600 O.2   133  PHE133     -0.2733
    161  CB        -0.9050   26.0800    3.4430 C.3   133  PHE133      0.0547
    162  CG        -1.0860   27.5570    3.6570 C.ar  133  PHE133     -0.0202
    163  CD1       -2.0230   28.2680    2.9240 C.ar  133  PHE133     -0.0042
    164  CD2       -0.3330   28.2310    4.6040 C.ar  133  PHE133     -0.0042
    165  CE1       -2.1970   29.6250    3.1230 C.ar  133  PHE133     -0.0003
    166  CE2       -0.5040   29.5870    4.8080 C.ar  133  PHE133     -0.0003
    167  CZ        -1.4350   30.2850    4.0670 C.ar  133  PHE133     -0.0000
    168  N          1.8350   27.1780    1.8130 N.am  134  PRO134     -0.2718
    169  CA         3.2630   27.5250    1.7550 C.3   134  PRO134      0.1535
    170  C          3.9830   27.5500    3.1050 C.2   134  PRO134      0.2599
    171  O          5.1640   27.2140    3.1600 O.2   134  PRO134     -0.2715
    172  CB         3.2530   28.9280    1.1390 C.3   134  PRO134      0.0310
    173  CG         1.9980   28.9810    0.3490 C.3   134  PRO134      0.0237
    174  CD         1.0020   28.1900    1.1420 C.3   134  PRO134      0.0939
    175  N          3.2960   27.9440    4.1720 N.am  135  THR135     -0.1937
    176  CA         3.9570   28.1090    5.4640 C.3   135  THR135      0.2028
    177  C          3.5470   27.0550    6.4880 C.2   135  THR135      0.2642
    178  O          2.3960   26.6170    6.5280 O.2   135  THR135     -0.2714
    179  CB         3.6850   29.5040    6.0560 C.3   135  THR135      0.1808
    180  OG1        2.2730   29.7140    6.1710 O.3   135  THR135     -0.2208
    181  CG2        4.2850   30.5810    5.1670 C.3   135  THR135      0.0379
    182  N          4.5120   26.6700    7.3180 N.am  136  TYR136     -0.1959
    183  CA         4.3360   25.6420    8.3380 C.3   136  TYR136      0.1771
    184  C          3.2200   25.9670    9.3280 C.2   136  TYR136      0.2619
    185  O          2.9570   27.1290    9.6340 O.2   136  TYR136     -0.2715
    186  CB         5.6560   25.4390    9.0900 C.3   136  TYR136      0.0574
    187  CG         5.5910   24.5040   10.2810 C.ar  136  TYR136     -0.0198
    188  CD1        5.7780   23.1350   10.1260 C.ar  136  TYR136     -0.0009
    189  CD2        5.3670   24.9940   11.5640 C.ar  136  TYR136     -0.0009
    190  CE1        5.7290   22.2800   11.2120 C.ar  136  TYR136      0.0417
    191  CE2        5.3140   24.1450   12.6550 C.ar  136  TYR136      0.0417
    192  CZ         5.4980   22.7900   12.4730 C.ar  136  TYR136      0.1957
    193  OH         5.4480   21.9410   13.5550 O.3   136  TYR136     -0.2866
    194  N          2.5680   24.9190    9.8200 N.am  137  LYS137     -0.1977
    195  CA         1.5780   25.0350   10.8820 C.3   137  LYS137      0.1596
    196  C          1.5260   23.7300   11.6640 C.2   137  LYS137      0.2287
    197  O          1.5520   22.6480   11.0740 O.2   137  LYS137     -0.2864
    198  CB         0.1950   25.3730   10.3160 C.3   137  LYS137      0.0298
    199  CG        -0.2080   26.8290   10.4880 C.3   137  LYS137      0.0038
    200  CD        -1.6590   27.0570   10.0800 C.3   137  LYS137      0.0206
    201  CE        -1.8210   27.1160    8.5710 C.3   137  LYS137      0.1093
    202  NZ        -1.1900   28.3350    7.9950 N.3   137  LYS137     -0.1314
    203  N         -0.4080   21.0100   14.0800 N.3   139  VAL139     -0.1245
    204  CA        -1.7140   20.4910   14.4420 C.3   139  VAL139      0.1561
    205  C         -1.4840   19.0880   14.9820 C.2   139  VAL139      0.2260
    206  O         -0.6750   18.3440   14.4220 O.2   139  VAL139     -0.2867
    207  CB        -2.6790   20.4800   13.2330 C.3   139  VAL139      0.0252
    208  CG1       -1.9080   20.2720   11.9370 C.3   139  VAL139      0.0019
    209  CG2       -3.7580   19.4230   13.3990 C.3   139  VAL139      0.0019
    210  N         -5.5510   15.7900   12.6300 N.3   144  PHE144     -0.1227
    211  CA        -5.0370   16.0970   11.3050 C.3   144  PHE144      0.1736
    212  C         -5.8230   15.3880   10.2110 C.2   144  PHE144      0.2595
    213  O         -6.0080   14.1720   10.2550 O.2   144  PHE144     -0.2718
    214  CB        -3.5550   15.7070   11.2360 C.3   144  PHE144      0.0547
    215  CG        -3.0090   15.6060    9.8390 C.ar  144  PHE144     -0.0202
    216  CD1       -2.5200   16.7260    9.1930 C.ar  144  PHE144     -0.0042
    217  CD2       -2.9600   14.3850    9.1810 C.ar  144  PHE144     -0.0042
    218  CE1       -2.0100   16.6390    7.9120 C.ar  144  PHE144     -0.0003
    219  CE2       -2.4520   14.2930    7.8980 C.ar  144  PHE144     -0.0003
    220  CZ        -1.9760   15.4220    7.2640 C.ar  144  PHE144     -0.0000
    221  N         -6.2810   16.1550    9.2280 N.am  145  ARG145     -0.1980
    222  CA        -6.9260   15.5870    8.0520 C.3   145  ARG145      0.1597
    223  C         -6.4340   16.2950    6.7970 C.2   145  ARG145      0.2287
    224  O         -6.1580   17.4950    6.8180 O.2   145  ARG145     -0.2864
    225  CB        -8.4540   15.6850    8.1580 C.3   145  ARG145      0.0334
    226  CG        -8.9980   17.1060    8.1470 C.3   145  ARG145      0.0492
    227  CD       -10.5240   17.1580    8.2870 C.3   145  ARG145      0.2205
    228  NE       -11.2150   17.2530    7.0010 N.pl3 145  ARG145     -0.0865
    229  CZ       -12.4800   17.6400    6.8610 C.cat 145  ARG145      0.5346
    230  NH1      -13.1920   17.9740    7.9300 N.pl3 145  ARG145      0.1354
    231  NH2      -13.0320   17.6990    5.6550 N.pl3 145  ARG145      0.1354
@<TRIPOS>BOND
     1    10     9   ar
     2    10     8   ar
     3     9     7   ar
     4     8     6   ar
     5   112   111    2
     6     7     6   ar
     7     6     5    1
     8   119   120    1
     9   122   121    2
    10   111   110    1
    11     1     2    1
    12   110   113    1
    13   110   109    1
    14   115   117   ar
    15   115   114   ar
    16     5     2    1
    17   121   120    1
    18   120   123    1
    19     2     3    1
    20   113   114    1
    21   117   118   ar
    22   123   124    1
    23   114   116   ar
    24   124   125   ar
    25   124   126   ar
    26   125   127   ar
    27     3     4    2
    28   118   116   ar
    29   126   128   ar
    30   127   128   ar
    31    56    58   ar
    32    56    54   ar
    33   103   102    2
    34    58    57   ar
    35    54    53    1
    36    54    55   ar
    37    53    50    1
    38    51    52    2
    39    51    50    1
    40    57    55   ar
    41    50    49    1
    42   102   101    1
    43   173   172    1
    44   173   174    1
    45   107   106   ar
    46    93    92    2
    47   172   169    1
    48   174   168    1
    49   101   104    1
    50   101   100    1
    51    99    98   ar
    52    99    97   ar
    53    49    46   am
    54    98    96   ar
    55    92   100   am
    56    92    91    1
    57   149   146    1
    58   106   108   ar
    59   106   105    1
    60   169   168    1
    61   169   170    1
    62   168   159   am
    63   157   158    1
    64   104   105    1
    65    97    95   ar
    66    47    46    2
    67   158   159    1
    68   158   161    1
    69   159   160    2
    70    35    33    1
    71    96    95   ar
    72    46    45    1
    73    95    94    1
    74    33    32    1
    75   155   154    1
    76    91    94    1
    77    91    90    1
    78   163   165   ar
    79   163   162   ar
    80    34    32    1
    81   152   153    2
    82   152   151    1
    83   170   171    2
    84   170   175   am
    85   165   167   ar
    86   146   147    1
    87   146   145    1
    88   161   162    1
    89   150   147   am
    90   150   151    1
    91   147   148    2
    92   162   164   ar
    93    32    29    1
    94    45    48    1
    95    45    44    1
    96   129   135    1
    97   129   130    1
    98   151   154    1
    99   145   138   am
   100   135   134    1
   101   167   166   ar
   102   154   156    1
   103   175   176    1
   104   144   143    1
   105   164   166   ar
   106    44    38   am
   107    86    85    2
   108    29    28    1
   109    29    30    1
   110   181   179    1
   111   138   139    2
   112   138   137    1
   113   130   131    1
   114   130   133    1
   115   136   131   am
   116   136   137    1
   117   176   179    1
   118   176   177    1
   119   134   133    1
   120   143   142    1
   121   231   229    1
   122    28    26   am
   123    30    36   am
   124    30    31    2
   125   140   137    1
   126   140   141    1
   127   131   132    2
   128    36    37    1
   129    38    39    2
   130    38    37    1
   131   179   180    1
   132    85    84    1
   133   177   178    2
   134   177   182   am
   135   142   141    1
   136    26    27    2
   137    26    25    1
   138    89    87    1
   139   223   224    2
   140   223   222    1
   141    78    77    2
   142    37    40    1
   143   229   228    2
   144   229   230    1
   145   228   227    1
   146    84    87    1
   147    84    83    1
   148   220   219   ar
   149   220   218   ar
   150   182   183    1
   151    25    24    1
   152    40    41    1
   153    87    88    1
   154   219   217   ar
   155   218   216   ar
   156    77    83   am
   157    77    76    1
   158   202   201    1
   159   222   225    1
   160   222   221    1
   161   226   225    1
   162   226   227    1
   163   183   186    1
   164   183   184    1
   165    41    42    1
   166    41    43    1
   167   201   200    1
   168    23    22    2
   169    24    22   am
   170   186   187    1
   171    76    75    1
   172    76    79    1
   173   217   215   ar
   174   216   215   ar
   175   221   212   am
   176    22    21    1
   177   184   185    2
   178   184   194   am
   179    67    65   ar
   180   194   195    1
   181   215   214    1
   182    79    80    1
   183   200   199    1
   184   188   187   ar
   185   188   190   ar
   186   212   213    2
   187   212   211    1
   188   187   189   ar
   189   198   199    1
   190   198   195    1
   191    64    65    1
   192    64    63    1
   193    82    80    1
   194    65    66   ar
   195    21    20    1
   196   195   196    1
   197   197   196    2
   198    80    81    1
   199   190   192   ar
   200    11    12    1
   201   214   211    1
   202    20    13   am
   203   211   210    1
   204    74    72    1
   205   189   191   ar
   206    13    14    2
   207    13    12    1
   208    63    60    1
   209    59    60    1
   210   208   207    1
   211    12    15    1
   212   192   191   ar
   213   192   193    1
   214    60    61    1
   215    72    73    1
   216    72    69    1
   217   207   209    1
   218   207   204    1
   219    15    16    1
   220    62    61    2
   221    70    71    2
   222    70    69    1
   223    69    68    1
   224   203   204    1
   225    16    17    1
   226   206   205    2
   227   204   205    1
   228    17    18    1
   229    18    19    1
