@<TRIPOS>MOLECULE
tmp/5l79A01.pdb
 143 143 0 0 0
SMALL
GASTEIGER

@<TRIPOS>ATOM
      1  N         12.4350   25.5360    6.0190 N.3    77  LEU77      -0.1245
      2  CA        12.5830   24.3500    6.8510 C.3    77  LEU77       0.1561
      3  C         13.0600   23.1490    6.0430 C.2    77  LEU77       0.2260
      4  O         13.7170   22.2550    6.5770 O.2    77  LEU77      -0.2867
      5  CB        11.2580   24.0190    7.5370 C.3    77  LEU77       0.0270
      6  CG        10.6290   25.1450    8.3560 C.3    77  LEU77       0.0019
      7  CD1        9.2110   24.7820    8.7510 C.3    77  LEU77       0.0001
      8  CD2       11.4690   25.4410    9.5880 C.3    77  LEU77       0.0001
      9  N         -5.0930   27.7060    0.5590 N.3   127  ASP127     -0.1225
     10  CA        -5.9870   27.3020    1.6380 C.3   127  ASP127      0.1790
     11  C         -5.1780   27.0410    2.9060 C.2   127  ASP127      0.2440
     12  O         -4.3460   26.1360    2.9360 O.2   127  ASP127     -0.2733
     13  CB        -6.7780   26.0510    1.2340 C.3   127  ASP127      0.1423
     14  CG        -7.9160   25.7290    2.1930 C.2   127  ASP127      0.3668
     15  OD1       -7.8970   26.1950    3.3500 O.co2 127  ASP127     -0.2456
     16  OD2       -8.8360   24.9910    1.7830 O.co2 127  ASP127     -0.2456
     17  N         -5.4280   27.8310    3.9630 N.am  128  PRO128     -0.2718
     18  CA        -4.7230   27.6810    5.2430 C.3   128  PRO128      0.1535
     19  C         -4.9820   26.3310    5.9100 C.2   128  PRO128      0.2598
     20  O         -4.2870   25.9690    6.8590 O.2   128  PRO128     -0.2715
     21  CB        -5.2900   28.8240    6.0940 C.3   128  PRO128      0.0310
     22  CG        -6.6000   29.1570    5.4690 C.3   128  PRO128      0.0237
     23  CD        -6.4030   28.9340    3.9990 C.3   128  PRO128      0.0939
     24  N         -5.9760   25.6020    5.4180 N.am  129  LYS129     -0.1978
     25  CA        -6.2950   24.2820    5.9440 C.3   129  LYS129      0.1596
     26  C         -5.5410   23.1930    5.1830 C.2   129  LYS129      0.2287
     27  O         -5.4040   22.0660    5.6620 O.2   129  LYS129     -0.2864
     28  CB        -7.8050   24.0360    5.8750 C.3   129  LYS129      0.0298
     29  CG        -8.6100   24.9100    6.8280 C.3   129  LYS129      0.0038
     30  CD       -10.1120   24.7940    6.5910 C.3   129  LYS129      0.0206
     31  CE       -10.5850   25.7650    5.5160 C.3   129  LYS129      0.1093
     32  NZ       -11.0740   25.0660    4.2940 N.3   129  LYS129     -0.1314
     33  N          3.2960   27.9440    4.1720 N.3   135  THR135     -0.1203
     34  CA         3.9570   28.1090    5.4640 C.3   135  THR135      0.1994
     35  C          3.5470   27.0550    6.4880 C.2   135  THR135      0.2618
     36  O          2.3960   26.6170    6.5280 O.2   135  THR135     -0.2717
     37  CB         3.6850   29.5040    6.0560 C.3   135  THR135      0.1784
     38  OG1        2.2730   29.7140    6.1710 O.3   135  THR135     -0.2211
     39  CG2        4.2850   30.5810    5.1670 C.3   135  THR135      0.0376
     40  N          4.5120   26.6700    7.3180 N.am  136  TYR136     -0.1961
     41  CA         4.3360   25.6420    8.3380 C.3   136  TYR136      0.1771
     42  C          3.2200   25.9670    9.3280 C.2   136  TYR136      0.2619
     43  O          2.9570   27.1290    9.6340 O.2   136  TYR136     -0.2715
     44  CB         5.6560   25.4390    9.0900 C.3   136  TYR136      0.0574
     45  CG         5.5910   24.5040   10.2810 C.ar  136  TYR136     -0.0198
     46  CD1        5.7780   23.1350   10.1260 C.ar  136  TYR136     -0.0009
     47  CD2        5.3670   24.9940   11.5640 C.ar  136  TYR136     -0.0009
     48  CE1        5.7290   22.2800   11.2120 C.ar  136  TYR136      0.0417
     49  CE2        5.3140   24.1450   12.6550 C.ar  136  TYR136      0.0417
     50  CZ         5.4980   22.7900   12.4730 C.ar  136  TYR136      0.1957
     51  OH         5.4480   21.9410   13.5550 O.3   136  TYR136     -0.2866
     52  N          2.5680   24.9190    9.8200 N.am  137  LYS137     -0.1963
     53  CA         1.5780   25.0350   10.8820 C.3   137  LYS137      0.1728
     54  C          1.5260   23.7300   11.6640 C.2   137  LYS137      0.2616
     55  O          1.5520   22.6480   11.0740 O.2   137  LYS137     -0.2715
     56  CB         0.1950   25.3730   10.3160 C.3   137  LYS137      0.0311
     57  CG        -0.2080   26.8290   10.4880 C.3   137  LYS137      0.0038
     58  CD        -1.6590   27.0570   10.0800 C.3   137  LYS137      0.0206
     59  CE        -1.8210   27.1160    8.5710 C.3   137  LYS137      0.1093
     60  NZ        -1.1900   28.3350    7.9950 N.3   137  LYS137     -0.1314
     61  N          1.4710   23.8230   12.9890 N.am  138  TYR138     -0.1960
     62  CA         1.3530   22.6170   13.7960 C.3   138  TYR138      0.1771
     63  C         -0.1030   22.3000   14.1000 C.2   138  TYR138      0.2619
     64  O         -0.9170   23.1900   14.3440 O.2   138  TYR138     -0.2715
     65  CB         2.1350   22.7270   15.1080 C.3   138  TYR138      0.0574
     66  CG         1.9610   21.4970   15.9770 C.ar  138  TYR138     -0.0198
     67  CD1        2.7030   20.3480   15.7400 C.ar  138  TYR138     -0.0009
     68  CD2        1.0350   21.4760   17.0160 C.ar  138  TYR138     -0.0009
     69  CE1        2.5380   19.2160   16.5170 C.ar  138  TYR138      0.0417
     70  CE2        0.8610   20.3460   17.7990 C.ar  138  TYR138      0.0417
     71  CZ         1.6190   19.2190   17.5460 C.ar  138  TYR138      0.1957
     72  OH         1.4650   18.0850   18.3140 O.3   138  TYR138     -0.2866
     73  N         -0.4080   21.0100   14.0800 N.am  139  VAL139     -0.1963
     74  CA        -1.7140   20.4910   14.4420 C.3   139  VAL139      0.1727
     75  C         -1.4840   19.0880   14.9820 C.2   139  VAL139      0.2616
     76  O         -0.6750   18.3440   14.4220 O.2   139  VAL139     -0.2715
     77  CB        -2.6790   20.4800   13.2330 C.3   139  VAL139      0.0290
     78  CG1       -1.9080   20.2720   11.9370 C.3   139  VAL139      0.0023
     79  CG2       -3.7580   19.4230   13.3990 C.3   139  VAL139      0.0023
     80  N         -2.1540   18.7500   16.0850 N.am  140  ASP140     -0.1971
     81  CA        -2.0430   17.4190   16.6770 C.3   140  ASP140      0.1709
     82  C         -2.1800   16.3710   15.5880 C.2   140  ASP140      0.2293
     83  O         -3.1030   16.4270   14.7760 O.2   140  ASP140     -0.2864
     84  CB        -3.0970   17.2060   17.7660 C.3   140  ASP140      0.1436
     85  CG        -3.0020   15.8310   18.4040 C.2   140  ASP140      0.3671
     86  OD1       -2.1650   15.6580   19.3160 O.co2 140  ASP140     -0.2456
     87  OD2       -3.7620   14.9270   17.9940 O.co2 140  ASP140     -0.2456
     88  N         -5.6060   15.1760   14.9920 N.3   143  THR143     -0.1203
     89  CA        -6.7280   16.0580   14.6880 C.3   143  THR143      0.1994
     90  C         -6.4810   16.5030   13.2560 C.2   143  THR143      0.2618
     91  O         -7.1010   17.4360   12.7430 O.2   143  THR143     -0.2717
     92  CB        -6.8310   17.2670   15.6400 C.3   143  THR143      0.1784
     93  OG1       -5.6320   18.0470   15.5680 O.3   143  THR143     -0.2211
     94  CG2       -7.0460   16.8060   17.0730 C.3   143  THR143      0.0376
     95  N         -5.5510   15.7900   12.6300 N.am  144  PHE144     -0.1961
     96  CA        -5.0370   16.0970   11.3050 C.3   144  PHE144      0.1771
     97  C         -5.8230   15.3880   10.2110 C.2   144  PHE144      0.2619
     98  O         -6.0080   14.1720   10.2550 O.2   144  PHE144     -0.2715
     99  CB        -3.5550   15.7070   11.2360 C.3   144  PHE144      0.0574
    100  CG        -3.0090   15.6060    9.8390 C.ar  144  PHE144     -0.0200
    101  CD1       -2.5200   16.7260    9.1930 C.ar  144  PHE144     -0.0042
    102  CD2       -2.9600   14.3850    9.1810 C.ar  144  PHE144     -0.0042
    103  CE1       -2.0100   16.6390    7.9120 C.ar  144  PHE144     -0.0003
    104  CE2       -2.4520   14.2930    7.8980 C.ar  144  PHE144     -0.0003
    105  CZ        -1.9760   15.4220    7.2640 C.ar  144  PHE144     -0.0000
    106  N         -6.2810   16.1550    9.2280 N.am  145  ARG145     -0.1963
    107  CA        -6.9260   15.5870    8.0520 C.3   145  ARG145      0.1729
    108  C         -6.4340   16.2950    6.7970 C.2   145  ARG145      0.2616
    109  O         -6.1580   17.4950    6.8180 O.2   145  ARG145     -0.2715
    110  CB        -8.4540   15.6850    8.1580 C.3   145  ARG145      0.0348
    111  CG        -8.9980   17.1060    8.1470 C.3   145  ARG145      0.0492
    112  CD       -10.5240   17.1580    8.2870 C.3   145  ARG145      0.2205
    113  NE       -11.2150   17.2530    7.0010 N.pl3 145  ARG145     -0.0865
    114  CZ       -12.4800   17.6400    6.8610 C.cat 145  ARG145      0.5346
    115  NH1      -13.1920   17.9740    7.9300 N.pl3 145  ARG145      0.1354
    116  NH2      -13.0320   17.6990    5.6550 N.pl3 145  ARG145      0.1354
    117  N         -6.3000   15.5430    5.7090 N.am  146  LEU146     -0.1963
    118  CA        -6.0150   16.1430    4.4140 C.3   146  LEU146      0.1728
    119  C         -7.1820   17.0220    3.9940 C.2   146  LEU146      0.2617
    120  O         -8.3370   16.6010    4.0610 O.2   146  LEU146     -0.2715
    121  CB        -5.7610   15.0740    3.3510 C.3   146  LEU146      0.0311
    122  CG        -4.3370   14.5620    3.1590 C.3   146  LEU146      0.0022
    123  CD1       -4.3030   13.5460    2.0270 C.3   146  LEU146      0.0001
    124  CD2       -3.3830   15.7140    2.8810 C.3   146  LEU146      0.0001
    125  N         -6.8810   18.2420    3.5690 N.am  147  SER147     -0.1936
    126  CA        -7.9160   19.1370    3.0710 C.3   147  SER147      0.2055
    127  C         -8.4540   18.6190    1.7450 C.2   147  SER147      0.2643
    128  O         -7.8240   17.7850    1.0930 O.2   147  SER147     -0.2714
    129  CB        -7.3750   20.5550    2.8990 C.3   147  SER147      0.2130
    130  OG        -6.4580   20.6120    1.8200 O.3   147  SER147     -0.2179
    131  N         -9.6170   19.1220    1.3450 N.am  148  ALA148     -0.1963
    132  CA       -10.2170   18.7350    0.0740 C.3   148  ALA148      0.1728
    133  C         -9.3440   19.1730   -1.0980 C.2   148  ALA148      0.2616
    134  O         -9.3020   18.5090   -2.1340 O.2   148  ALA148     -0.2715
    135  CB       -11.6140   19.3230   -0.0530 C.3   148  ALA148      0.0334
    136  N         -8.6420   20.2890   -0.9240 N.am  149  ASP149     -0.1971
    137  CA        -7.7860   20.8260   -1.9760 C.3   149  ASP149      0.1709
    138  C         -6.5590   19.9460   -2.2000 C.2   149  ASP149      0.2293
    139  O         -6.1360   19.7410   -3.3390 O.2   149  ASP149     -0.2864
    140  CB        -7.3490   22.2520   -1.6430 C.3   149  ASP149      0.1436
    141  CG        -6.7510   22.9680   -2.8370 C.2   149  ASP149      0.3671
    142  OD1       -7.3950   22.9790   -3.9080 O.co2 149  ASP149     -0.2456
    143  OD2       -5.6340   23.5110   -2.7110 O.co2 149  ASP149     -0.2456
@<TRIPOS>BOND
     1   142   141   ar
     2   139   138    2
     3   141   143   ar
     4   141   140    1
     5   138   137    1
     6   134   133    2
     7   137   140    1
     8   137   136    1
     9   133   136   am
    10   133   132    1
    11   135   132    1
    12   132   131    1
    13     9    10    1
    14   128   127    2
    15    13    10    1
    16    13    14    1
    17   131   127   am
    18    10    11    1
    19   127   126    1
    20    16    14   ar
    21   130   129    1
    22   123   122    1
    23    14    15   ar
    24   124   122    1
    25   129   126    1
    26    11    12    2
    27    11    17   am
    28   126   125    1
    29   122   121    1
    30   121   118    1
    31   125   119   am
    32    17    23    1
    33    17    18    1
    34   119   120    2
    35   119   118    1
    36    23    22    1
    37    33    34    1
    38    32    31    1
    39   118   117    1
    40    39    37    1
    41    26    27    2
    42    26    25    1
    43    18    19    1
    44    18    21    1
    45    24    19   am
    46    24    25    1
    47    34    37    1
    48    34    35    1
    49    22    21    1
    50    31    30    1
    51   116   114    1
    52   117   108   am
    53    28    25    1
    54    28    29    1
    55    19    20    2
    56     1     2    1
    57     3     4    2
    58     3     2    1
    59    37    38    1
    60    35    36    2
    61    35    40   am
    62    30    29    1
    63   108   109    2
    64   108   107    1
    65     2     5    1
    66   114   113    2
    67   114   115    1
    68   113   112    1
    69   105   104   ar
    70   105   103   ar
    71    40    41    1
    72     5     6    1
    73   104   102   ar
    74   103   101   ar
    75    60    59    1
    76   107   110    1
    77   107   106    1
    78   111   110    1
    79   111   112    1
    80    41    44    1
    81    41    42    1
    82     6     7    1
    83     6     8    1
    84    59    58    1
    85    44    45    1
    86   102   100   ar
    87   101   100   ar
    88   106    97   am
    89    42    43    2
    90    42    52   am
    91    52    53    1
    92   100    99    1
    93    58    57    1
    94    46    45   ar
    95    46    48   ar
    96    97    98    2
    97    97    96    1
    98    45    47   ar
    99    56    57    1
   100    56    53    1
   101    53    54    1
   102    55    54    2
   103    48    50   ar
   104    99    96    1
   105    96    95    1
   106    47    49   ar
   107    54    61   am
   108    78    77    1
   109    50    49   ar
   110    50    51    1
   111    95    90   am
   112    91    90    2
   113    61    62    1
   114    77    79    1
   115    77    74    1
   116    90    89    1
   117    62    63    1
   118    62    65    1
   119    73    63   am
   120    73    74    1
   121    63    64    2
   122    76    75    2
   123    74    75    1
   124    89    88    1
   125    89    92    1
   126    83    82    2
   127    75    80   am
   128    65    66    1
   129    93    92    1
   130    82    81    1
   131    92    94    1
   132    67    66   ar
   133    67    69   ar
   134    66    68   ar
   135    80    81    1
   136    69    71   ar
   137    81    84    1
   138    68    70   ar
   139    71    70   ar
   140    71    72    1
   141    84    85    1
   142    87    85   ar
   143    85    86   ar
