@<TRIPOS>MOLECULE
tmp/5l7dA01.pdb
 184 174 0 0 0
SMALL
GASTEIGER

@<TRIPOS>ATOM
      1  N        -36.0690   -9.5170  110.3120 N.3    38  ASP38      -0.1239
      2  CA       -34.7990   -8.7940  110.2770 C.3    38  ASP38       0.1674
      3  C        -34.5800   -7.9480  111.5390 C.2    38  ASP38       0.2266
      4  O        -33.4360   -7.6050  111.8450 O.2    38  ASP38      -0.2867
      5  CB       -34.7310   -7.8950  109.0210 C.3    38  ASP38       0.1410
      6  CG       -35.8360   -6.8560  108.8540 C.2    38  ASP38       0.3668
      7  OD1      -36.8760   -6.9670  109.5430 O.co2  38  ASP38      -0.2456
      8  OD2      -35.6850   -5.9700  107.9940 O.co2  38  ASP38      -0.2456
      9  N        -34.7010   -0.0830  109.5750 N.3    48  LYS48      -0.1245
     10  CA       -35.0510   -0.8730  108.3930 C.3    48  LYS48       0.1561
     11  C        -36.1090   -0.1290  107.5670 C.2    48  LYS48       0.2260
     12  O        -36.0670   -0.1830  106.3390 O.2    48  LYS48      -0.2867
     13  CB       -35.5300   -2.2820  108.7830 C.3    48  LYS48       0.0271
     14  CG       -34.4840   -3.1650  109.4760 C.3    48  LYS48       0.0035
     15  CD       -33.3590   -3.6360  108.5510 C.3    48  LYS48       0.0206
     16  CE       -32.3970   -4.5900  109.2220 C.3    48  LYS48       0.1093
     17  NZ       -31.4560   -3.8880  110.1360 N.3    48  LYS48      -0.1314
     18  N        -34.4600    2.2890  105.4380 N.3    51  LEU51      -0.1231
     19  CA       -33.9090    1.5900  104.2710 C.3    51  LEU51       0.1693
     20  C        -35.0110    1.3460  103.2320 C.2    51  LEU51       0.2592
     21  O        -34.7830    1.5320  102.0340 O.2    51  LEU51      -0.2718
     22  CB       -33.2420    0.2570  104.6670 C.3    51  LEU51       0.0284
     23  CG       -31.9980    0.3310  105.5560 C.3    51  LEU51       0.0019
     24  CD1      -31.6880   -1.0190  106.1570 C.3    51  LEU51       0.0001
     25  CD2      -30.7840    0.8390  104.7900 C.3    51  LEU51       0.0001
     26  N        -36.2120    0.9620  103.6970 N.am   52  TRP52      -0.1976
     27  CA       -37.3630    0.7210  102.8370 C.3    52  TRP52       0.1640
     28  C        -37.9410    2.0280  102.2940 C.2    52  TRP52       0.2290
     29  O        -38.5490    2.0100  101.2240 O.2    52  TRP52      -0.2864
     30  CB       -38.4430   -0.0680  103.5830 C.3    52  TRP52       0.0576
     31  CG       -38.1900   -1.5420  103.6270 C.ar   52  TRP52       0.0006
     32  CD1      -37.8070   -2.2760  104.7100 C.ar   52  TRP52       0.0946
     33  CD2      -38.3250   -2.4680  102.5400 C.ar   52  TRP52       0.0152
     34  NE1      -37.6950   -3.6020  104.3690 N.ar   52  TRP52      -0.2442
     35  CE2      -37.9960   -3.7470  103.0380 C.ar   52  TRP52       0.0810
     36  CE3      -38.6930   -2.3420  101.1880 C.ar   52  TRP52       0.0012
     37  CZ2      -38.0060   -4.8900  102.2270 C.ar   52  TRP52       0.0191
     38  CZ3      -38.7030   -3.4740  100.3870 C.ar   52  TRP52       0.0001
     39  CH2      -38.3710   -4.7310  100.9080 C.ar   52  TRP52       0.0015
     40  N        -36.5490    4.1400  100.7790 N.3    54  GLY54      -0.1210
     41  CA       -35.7770    4.4010   99.5690 C.3    54  GLY54       0.1956
     42  C        -36.5760    4.0930   98.3210 C.2    54  GLY54       0.2611
     43  O        -36.1180    4.3360   97.1970 O.2    54  GLY54      -0.2717
     44  N        -37.7940    3.5560   98.5320 N.am   55  LEU55      -0.1979
     45  CA       -38.7560    3.2180   97.4920 C.3    55  LEU55       0.1596
     46  C        -39.7470    4.3710   97.3230 C.2    55  LEU55       0.2287
     47  O        -40.7590    4.2230   96.6350 O.2    55  LEU55      -0.2864
     48  CB       -39.4640    1.8950   97.8060 C.3    55  LEU55       0.0297
     49  CG       -38.6770    0.6500   97.4500 C.3    55  LEU55       0.0022
     50  CD1      -37.8660    0.1760   98.6280 C.3    55  LEU55       0.0001
     51  CD2      -39.5880   -0.4560   97.0520 C.3    55  LEU55       0.0001
     52  N        -39.0890    6.8330   95.6240 N.3    57  ASN57      -0.1225
     53  CA       -38.8590    6.8810   94.1810 C.3    57  ASN57       0.1785
     54  C        -39.4900    5.6050   93.6230 C.2    57  ASN57       0.2597
     55  O        -39.2470    4.5280   94.1720 O.2    57  ASN57      -0.2718
     56  CB       -37.3590    6.9830   93.8840 C.3    57  ASN57       0.1169
     57  CG       -36.6450    8.0300   94.7130 C.2    57  ASN57       0.2627
     58  OD1      -37.0350    9.2060   94.7610 O.2    57  ASN57      -0.2716
     59  ND2      -35.5870    7.6210   95.3950 N.am   57  ASN57      -0.0877
     60  N        -40.3440    5.7330   92.5860 N.am   58  ALA58      -0.1979
     61  CA       -41.2310    4.7100   91.9900 C.3    58  ALA58       0.1597
     62  C        -42.5530    4.7960   92.7680 C.2    58  ALA58       0.2287
     63  O        -42.8100    3.9810   93.6600 O.2    58  ALA58      -0.2864
     64  CB       -40.6270    3.3010   92.0380 C.3    58  ALA58       0.0319
     65  N        -43.3990   -3.9400  110.3550 N.3    73  TYR73      -0.1241
     66  CA       -42.3960   -3.3260  111.2230 C.3    73  TYR73       0.1605
     67  C        -42.9780   -2.7210  112.5070 C.2    73  TYR73       0.2264
     68  O        -42.4290   -2.9810  113.5790 O.2    73  TYR73      -0.2867
     69  CB       -41.5680   -2.2860  110.4640 C.3    73  TYR73       0.0534
     70  CG       -40.5780   -2.9270  109.5200 C.ar   73  TYR73      -0.0201
     71  CD1      -40.8560   -3.0480  108.1640 C.ar   73  TYR73      -0.0009
     72  CD2      -39.3590   -3.4030  109.9790 C.ar   73  TYR73      -0.0009
     73  CE1      -39.9670   -3.6860  107.2970 C.ar   73  TYR73       0.0417
     74  CE2      -38.4770   -4.0670  109.1310 C.ar   73  TYR73       0.0417
     75  CZ       -38.7690   -4.1770  107.7810 C.ar   73  TYR73       0.1957
     76  OH       -37.8860   -4.7850  106.9240 O.3    73  TYR73      -0.2866
     77  N        -39.5840   -4.1990   91.3440 N.3    99  ILE99      -0.1231
     78  CA       -38.2030   -3.7120   91.4710 C.3    99  ILE99       0.1692
     79  C        -37.4790   -4.4240   92.6370 C.2    99  ILE99       0.2591
     80  O        -36.2740   -4.6550   92.5430 O.2    99  ILE99      -0.2718
     81  CB       -38.1530   -2.1620   91.6480 C.3    99  ILE99       0.0266
     82  CG1      -39.1840   -1.6560   92.6970 C.3    99  ILE99       0.0019
     83  CG2      -38.3180   -1.4390   90.3160 C.3    99  ILE99       0.0020
     84  CD1      -38.9470   -0.2250   93.2560 C.3    99  ILE99       0.0001
     85  N        -38.2250   -4.7820   93.7140 N.am  100  VAL100     -0.1980
     86  CA       -37.7330   -5.4550   94.9270 C.3   100  VAL100      0.1595
     87  C        -37.2590   -6.8840   94.6080 C.2   100  VAL100      0.2287
     88  O        -36.1410   -7.2330   94.9830 O.2   100  VAL100     -0.2864
     89  CB       -38.7850   -5.4620   96.0740 C.3   100  VAL100      0.0276
     90  CG1      -38.1810   -5.9590   97.3880 C.3   100  VAL100      0.0022
     91  CG2      -39.4030   -4.0850   96.2660 C.3   100  VAL100      0.0022
     92  N        -34.0100   -6.8970   92.1550 N.3   103  GLU103     -0.1231
     93  CA       -32.7060   -6.4820   92.6590 C.3   103  GLU103      0.1699
     94  C        -32.2260   -7.2780   93.9060 C.2   103  GLU103      0.2592
     95  O        -31.1960   -7.9460   93.8020 O.2   103  GLU103     -0.2718
     96  CB       -32.6680   -4.9620   92.9190 C.3   103  GLU103      0.0402
     97  CG       -32.7200   -4.1010   91.6580 C.3   103  GLU103      0.1161
     98  CD       -31.6850   -4.3350   90.5650 C.2   103  GLU103      0.3649
     99  OE1      -30.4840   -4.4880   90.8880 O.co2 103  GLU103     -0.2457
    100  OE2      -32.0750   -4.3290   89.3740 O.co2 103  GLU103     -0.2457
    101  N        -32.9240   -7.2070   95.0640 N.am  104  ARG104     -0.1966
    102  CA       -32.4430   -7.9270   96.2610 C.3   104  ARG104      0.1729
    103  C        -33.3400   -9.1300   96.6280 C.2   104  ARG104      0.2616
    104  O        -32.9670   -9.9320   97.4900 O.2   104  ARG104     -0.2715
    105  CB       -32.2900   -6.9820   97.4710 C.3   104  ARG104      0.0348
    106  CG       -31.0500   -7.2710   98.3220 C.3   104  ARG104      0.0492
    107  CD       -31.0500   -6.5160   99.6430 C.3   104  ARG104      0.2205
    108  NE       -30.8470   -7.4060  100.7960 N.pl3 104  ARG104     -0.0865
    109  CZ       -30.1920   -7.0790  101.9100 C.cat 104  ARG104      0.5346
    110  NH1      -29.6420   -5.8750  102.0360 N.pl3 104  ARG104      0.1354
    111  NH2      -30.0690   -7.9550  102.8980 N.pl3 104  ARG104      0.1354
    112  N        -34.4980   -9.2540   95.9820 N.am  105  GLY105     -0.1955
    113  CA       -35.4550  -10.3130   96.2810 C.3   105  GLY105      0.1869
    114  C        -36.2860  -10.0090   97.5160 C.2   105  GLY105      0.2309
    115  O        -35.8250   -9.3220   98.4380 O.2   105  GLY105     -0.2863
    116  N        -37.9180  -10.5140  101.1100 N.3   107  PRO107     -0.2116
    117  CA       -37.5120  -11.2790  102.3010 C.3   107  PRO107      0.1372
    118  C        -38.5580  -12.3290  102.6690 C.2   107  PRO107      0.2244
    119  O        -39.7370  -12.1600  102.3490 O.2   107  PRO107     -0.2868
    120  CB       -37.3730  -10.2070  103.3890 C.3   107  PRO107      0.0268
    121  CG       -37.3730   -8.8970  102.6640 C.3   107  PRO107      0.0207
    122  CD       -38.2300   -9.1180  101.4660 C.3   107  PRO107      0.0892
    123  N        -40.1430  -13.1610  105.3380 N.3   109  PHE109     -0.1241
    124  CA       -41.2680  -12.6570  106.1230 C.3   109  PHE109      0.1605
    125  C        -42.1400  -11.6790  105.3260 C.2   109  PHE109      0.2264
    126  O        -43.2470  -11.3650  105.7730 O.2   109  PHE109     -0.2867
    127  CB       -40.7840  -12.0110  107.4370 C.3   109  PHE109      0.0534
    128  CG       -39.9230  -10.7810  107.2880 C.ar  109  PHE109     -0.0203
    129  CD1      -38.5520  -10.8910  107.1000 C.ar  109  PHE109     -0.0042
    130  CD2      -40.4750   -9.5130  107.3850 C.ar  109  PHE109     -0.0042
    131  CE1      -37.7560   -9.7550  106.9780 C.ar  109  PHE109     -0.0003
    132  CE2      -39.6760   -8.3780  107.2650 C.ar  109  PHE109     -0.0003
    133  CZ       -38.3270   -8.5060  107.0470 C.ar  109  PHE109     -0.0000
    134  N        -35.1810   10.6430   86.0630 N.3   140  LEU140     -0.1245
    135  CA       -36.5830   10.3520   85.7880 C.3   140  LEU140      0.1561
    136  C        -37.4600   11.5150   86.2420 C.2   140  LEU140      0.2260
    137  O        -37.0690   12.2770   87.1280 O.2   140  LEU140     -0.2867
    138  CB       -37.0300    9.0290   86.4370 C.3   140  LEU140      0.0270
    139  CG       -36.2810    7.7590   86.0060 C.3   140  LEU140      0.0019
    140  CD1      -36.4540    6.6690   87.0160 C.3   140  LEU140      0.0001
    141  CD2      -36.7270    7.2690   84.6430 C.3   140  LEU140      0.0001
    142  N        -39.9210    0.4360   87.0820 N.3   153  VAL153     -0.1245
    143  CA       -40.1440    1.6790   87.8350 C.3   153  VAL153      0.1561
    144  C        -41.4080    2.3670   87.2740 C.2   153  VAL153      0.2260
    145  O        -41.3310    3.1020   86.2880 O.2   153  VAL153     -0.2867
    146  CB       -38.8930    2.6070   87.8100 C.3   153  VAL153      0.0252
    147  CG1      -39.1080    3.8400   88.6690 C.3   153  VAL153      0.0019
    148  CG2      -37.6440    1.8710   88.2730 C.3   153  VAL153      0.0019
    149  N        -29.3470    4.9390   87.1010 N.3   523  VAL523     -0.1231
    150  CA       -30.7050    5.1810   87.6020 C.3   523  VAL523      0.1692
    151  C        -30.8860    4.4780   88.9670 C.2   523  VAL523      0.2591
    152  O        -31.2910    5.1310   89.9290 O.2   523  VAL523     -0.2718
    153  CB       -31.7690    4.7460   86.5560 C.3   523  VAL523      0.0266
    154  CG1      -33.1680    4.6950   87.1560 C.3   523  VAL523      0.0020
    155  CG2      -31.7470    5.6670   85.3430 C.3   523  VAL523      0.0020
    156  N        -30.5320    3.1760   89.0540 N.am  524  LEU524     -0.1980
    157  CA       -30.6240    2.3730   90.2780 C.3   524  LEU524      0.1596
    158  C        -29.7070    2.9110   91.3770 C.2   524  LEU524      0.2287
    159  O        -30.0330    2.7720   92.5570 O.2   524  LEU524     -0.2864
    160  CB       -30.2960    0.8980   90.0040 C.3   524  LEU524      0.0297
    161  CG       -31.3600    0.0740   89.2750 C.3   524  LEU524      0.0022
    162  CD1      -30.7870   -1.2310   88.7920 C.3   524  LEU524      0.0001
    163  CD2      -32.5650   -0.2120   90.1630 C.3   524  LEU524      0.0001
    164  N        -31.2010    5.7970   93.6570 N.3   527  ALA527     -0.1231
    165  CA       -32.0960    5.3680   94.7320 C.3   527  ALA527      0.1694
    166  C        -31.3440    4.5810   95.8190 C.2   527  ALA527      0.2592
    167  O        -31.8380    4.4690   96.9440 O.2   527  ALA527     -0.2718
    168  CB       -33.2230    4.5290   94.1660 C.3   527  ALA527      0.0304
    169  N        -30.1630    4.0290   95.4830 N.am  528  ASN528     -0.1974
    170  CA       -29.3500    3.2650   96.4270 C.3   528  ASN528      0.1688
    171  C        -28.4730    4.2060   97.2570 C.2   528  ASN528      0.2292
    172  O        -28.3700    4.0070   98.4660 O.2   528  ASN528     -0.2864
    173  CB       -28.4890    2.2070   95.6930 C.3   528  ASN528      0.1181
    174  CG       -27.5790    1.3380   96.5750 C.2   528  ASN528      0.2629
    175  OD1      -26.8490    1.8320   97.4410 O.2   528  ASN528     -0.2716
    176  ND2      -27.5260    0.0130   96.3950 N.am  528  ASN528     -0.0877
    177  N        -30.0670    5.9240  100.3020 N.3   531  ILE531     -0.1245
    178  CA       -30.2740    5.0520  101.4750 C.3   531  ILE531      0.1561
    179  C        -28.9210    4.5380  102.0110 C.2   531  ILE531      0.2260
    180  O        -27.9480    4.4630  101.2560 O.2   531  ILE531     -0.2867
    181  CB       -31.2670    3.8770  101.2070 C.3   531  ILE531      0.0252
    182  CG1      -30.7430    2.8530  100.1660 C.3   531  ILE531      0.0019
    183  CG2      -32.6350    4.4070  100.8250 C.3   531  ILE531      0.0019
    184  CD1      -31.1200    1.3970  100.4360 C.3   531  ILE531      0.0001
@<TRIPOS>BOND
     1   141   139    1
     2   155   153    1
     3   135   134    1
     4   135   136    1
     5   135   138    1
     6   139   138    1
     7   139   140    1
     8   136   137    2
     9   145   144    2
    10   153   154    1
    11   153   150    1
    12   142   143    1
    13   149   150    1
    14   144   143    1
    15   150   151    1
    16   146   143    1
    17   146   148    1
    18   146   147    1
    19   162   161    1
    20   151   156   am
    21   151   152    2
    22   156   157    1
    23   161   160    1
    24   161   163    1
    25   100    98   ar
    26   160   157    1
    27   157   158    1
    28    83    81    1
    29    98    99   ar
    30    98    97    1
    31    77    78    1
    32   158   159    2
    33    78    81    1
    34    78    79    1
    35    81    82    1
    36    97    96    1
    37    61    64    1
    38    61    60    1
    39    61    62    1
    40    92    93    1
    41    80    79    2
    42    60    54   am
    43    79    85   am
    44    93    96    1
    45    93    94    1
    46    82    84    1
    47    62    63    2
    48    54    55    2
    49    54    53    1
    50   164   165    1
    51    85    86    1
    52    95    94    2
    53    56    53    1
    54    56    57    1
    55    94   101   am
    56   168   165    1
    57    53    52    1
    58    87    86    1
    59    87    88    2
    60    57    58    2
    61    57    59   am
    62   165   166    1
    63    86    89    1
    64   101   102    1
    65   169   166   am
    66   169   170    1
    67   173   170    1
    68   173   174    1
    69   166   167    2
    70   112   113    1
    71   112   103   am
    72    89    91    1
    73    89    90    1
    74   102   103    1
    75   102   105    1
    76   113   114    1
    77   176   174   am
    78   170   171    1
    79   174   175    2
    80   103   104    2
    81    47    46    2
    82    51    49    1
    83    43    42    2
    84   171   172    2
    85    46    45    1
    86    49    48    1
    87    49    50    1
    88   105   106    1
    89    45    48    1
    90    45    44    1
    91   114   115    2
    92    42    44   am
    93    42    41    1
    94   106   107    1
    95    41    40    1
    96   107   108    1
    97   182   184    1
    98   182   181    1
    99   177   178    1
   100    38    39   ar
   101    38    36   ar
   102   108   109    2
   103   183   181    1
   104    39    37   ar
   105   116   122    1
   106   116   117    1
   107    36    33   ar
   108   181   178    1
   109    29    28    2
   110   180   179    2
   111   122   121    1
   112   178   179    1
   113   109   110    1
   114   109   111    1
   115    21    20    2
   116    37    35   ar
   117    28    27    1
   118   117   118    1
   119   117   120    1
   120   119   118    2
   121    33    35   ar
   122    33    31   ar
   123   121   120    1
   124    27    30    1
   125    27    26    1
   126    35    34   ar
   127    20    26   am
   128    20    19    1
   129    30    31    1
   130    31    32   ar
   131    19    22    1
   132    19    18    1
   133    34    32   ar
   134    22    23    1
   135    25    23    1
   136   125   126    2
   137   125   124    1
   138   123   124    1
   139    23    24    1
   140   124   127    1
   141    12    11    2
   142    76    75    1
   143   131   133   ar
   144   131   129   ar
   145   133   132   ar
   146   129   128   ar
   147   132   130   ar
   148   128   130   ar
   149   128   127    1
   150    73    75   ar
   151    73    71   ar
   152    11    10    1
   153    75    74   ar
   154     8     6   ar
   155    71    70   ar
   156    10    13    1
   157    10     9    1
   158    15    16    1
   159    15    14    1
   160    13    14    1
   161     6     5    1
   162     6     7   ar
   163     5     2    1
   164    74    72   ar
   165    16    17    1
   166    70    72   ar
   167    70    69    1
   168     2     1    1
   169     2     3    1
   170    65    66    1
   171    69    66    1
   172    66    67    1
   173     3     4    2
   174    67    68    2
