@<TRIPOS>MOLECULE
tmp/5l7eA03.pdb
 185 173 0 0 0
SMALL
GASTEIGER

@<TRIPOS>ATOM
      1  N         14.5810   23.6370   18.9310 N.3    30  LEU30      -0.1245
      2  CA        13.2450   23.2420   19.4050 C.3    30  LEU30       0.1561
      3  C         12.1910   24.2800   19.0610 C.2    30  LEU30       0.2260
      4  O         11.0930   23.8960   18.6660 O.2    30  LEU30      -0.2867
      5  CB        13.2310   22.9080   20.9120 C.3    30  LEU30       0.0270
      6  CG        14.0970   21.7050   21.3140 C.3    30  LEU30       0.0019
      7  CD1       14.3030   21.6630   22.8020 C.3    30  LEU30       0.0001
      8  CD2       13.5570   20.3890   20.7540 C.3    30  LEU30       0.0001
      9  N         11.4060   23.8100   15.3810 N.3    33  LEU33      -0.1231
     10  CA        10.6090   22.5770   15.2270 C.3    33  LEU33       0.1693
     11  C          9.1610   22.7970   15.6810 C.2    33  LEU33       0.2592
     12  O          8.2410   22.3220   15.0250 O.2    33  LEU33      -0.2718
     13  CB        11.2470   21.4180   15.9950 C.3    33  LEU33       0.0284
     14  CG        12.5070   20.8380   15.3450 C.3    33  LEU33       0.0019
     15  CD1       13.2160   19.9030   16.2790 C.3    33  LEU33       0.0001
     16  CD2       12.1800   20.1450   14.0660 C.3    33  LEU33       0.0001
     17  N          8.9660   23.5330   16.8040 N.am   34  ASN34      -0.1974
     18  CA         7.6270   23.8480   17.3180 C.3    34  ASN34       0.1688
     19  C          6.8470   24.7290   16.3480 C.2    34  ASN34       0.2292
     20  O          5.6620   24.4570   16.1310 O.2    34  ASN34      -0.2864
     21  CB         7.6900   24.4610   18.7280 C.3    34  ASN34       0.1181
     22  CG         8.1960   23.4690   19.7350 C.2    34  ASN34       0.2629
     23  OD1        8.3090   22.2740   19.4620 O.2    34  ASN34      -0.2716
     24  ND2        8.5600   23.9430   20.8950 N.am   34  ASN34      -0.0877
     25  N          7.3920   24.8590   13.0700 N.3    36  LEU36      -0.1231
     26  CA         7.0940   23.9620   11.9470 C.3    36  LEU36       0.1693
     27  C          5.8780   23.0520   12.2850 C.2    36  LEU36       0.2591
     28  O          4.9860   22.9020   11.4530 O.2    36  LEU36      -0.2718
     29  CB         8.3280   23.1100   11.5930 C.3    36  LEU36       0.0284
     30  CG         8.1310   22.0580   10.4650 C.3    36  LEU36       0.0019
     31  CD1        7.7550   22.7140    9.1100 C.3    36  LEU36       0.0001
     32  CD2        9.3800   21.1990   10.3230 C.3    36  LEU36       0.0001
     33  N          5.8280   22.4950   13.5100 N.am   37  ALA37      -0.1980
     34  CA         4.6880   21.6560   13.9420 C.3    37  ALA37       0.1597
     35  C          3.3770   22.4310   13.9030 C.2    37  ALA37       0.2287
     36  O          2.3670   21.8740   13.4880 O.2    37  ALA37      -0.2864
     37  CB         4.9270   21.0740   15.3320 C.3    37  ALA37       0.0319
     38  N          2.3630   22.6540   10.2730 N.3    40  GLN40      -0.1245
     39  CA         1.9430   21.3090    9.8720 C.3    40  GLN40       0.1566
     40  C          0.5860   20.9440   10.4590 C.2    40  GLN40       0.2260
     41  O         -0.1850   20.2530    9.7970 O.2    40  GLN40      -0.2867
     42  CB         3.0010   20.2920   10.2660 C.3    40  GLN40       0.0367
     43  CG         4.2570   20.3950    9.3760 C.3    40  GLN40       0.0905
     44  CD         5.2340   19.3230    9.7340 C.2    40  GLN40       0.2608
     45  OE1        5.0670   18.6450   10.7380 O.2    40  GLN40      -0.2717
     46  NE2        6.2990   19.1750    8.9570 N.am   40  GLN40      -0.0878
     47  N         -2.1940   14.1390   17.1230 N.3    70  TRP70      -0.1227
     48  CA        -1.2820   15.0870   16.4700 C.3    70  TRP70       0.1737
     49  C          0.1850   14.6470   16.4420 C.2    70  TRP70       0.2595
     50  O          0.7910   14.6430   15.3630 O.2    70  TRP70      -0.2718
     51  CB        -1.4500   16.5060   17.0120 C.3    70  TRP70       0.0564
     52  CG        -0.8060   16.7540   18.3510 C.ar   70  TRP70       0.0003
     53  CD1       -1.2560   16.3420   19.5690 C.ar   70  TRP70       0.0946
     54  CD2        0.4490   17.3970   18.5830 C.ar   70  TRP70       0.0152
     55  NE1       -0.3830   16.7370   20.5530 N.ar   70  TRP70      -0.2442
     56  CE2        0.6570   17.4210   19.9760 C.ar   70  TRP70       0.0810
     57  CE3        1.3920   18.0320   17.7470 C.ar   70  TRP70       0.0012
     58  CZ2        1.7870   18.0160   20.5560 C.ar   70  TRP70       0.0191
     59  CZ3        2.4760   18.6730   18.3310 C.ar   70  TRP70       0.0001
     60  CH2        2.6700   18.6550   19.7150 C.ar   70  TRP70       0.0015
     61  N          0.7290   14.2240   17.5990 N.am   71  MET71      -0.1979
     62  CA         2.1370   13.7710   17.6620 C.3    71  MET71       0.1605
     63  C          2.3680   12.5300   16.7990 C.2    71  MET71       0.2287
     64  O          3.4230   12.4300   16.1430 O.2    71  MET71      -0.2864
     65  CB         2.5620   13.5310   19.1240 C.3    71  MET71       0.0413
     66  CG         4.0620   13.1980   19.2780 C.3    71  MET71       0.0598
     67  SD         5.1260   14.6160   18.8880 S.3    71  MET71      -0.1393
     68  CE         5.0680   15.5160   20.5000 C.3    71  MET71       0.0692
     69  N          2.3210   13.6170   13.0430 N.3    74  LEU74      -0.1231
     70  CA         3.5500   14.3590   12.7060 C.3    74  LEU74       0.1693
     71  C          4.7790   13.4450   12.6610 C.2    74  LEU74       0.2592
     72  O          5.6100   13.5960   11.7660 O.2    74  LEU74      -0.2718
     73  CB         3.7790   15.5520   13.6480 C.3    74  LEU74       0.0284
     74  CG         2.7030   16.6780   13.6270 C.3    74  LEU74       0.0019
     75  CD1        3.2370   17.9380   14.2270 C.3    74  LEU74       0.0001
     76  CD2        2.2440   17.0000   12.2520 C.3    74  LEU74       0.0001
     77  N          4.8970   12.4960   13.6070 N.am   75  SER75      -0.1952
     78  CA         6.0570   11.5920   13.6100 C.3    75  SER75       0.1924
     79  C          6.0080   10.5670   12.4600 C.2    75  SER75       0.2314
     80  O          7.0510   10.2350   11.8990 O.2    75  SER75      -0.2863
     81  CB         6.2600   10.9350   14.9750 C.3    75  SER75       0.2116
     82  OG         5.0850   10.3070   15.4570 O.3    75  SER75      -0.2180
     83  N          6.9660   12.4840    9.3540 N.3    78  LEU78      -0.1245
     84  CA         8.4190   12.7210    9.4130 C.3    78  LEU78       0.1561
     85  C          9.1690   11.4630    8.9050 C.2    78  LEU78       0.2260
     86  O         10.0980   11.5740    8.0940 O.2    78  LEU78      -0.2867
     87  CB         8.8510   13.0410   10.8610 C.3    78  LEU78       0.0270
     88  CG        10.3620   12.9810   11.1380 C.3    78  LEU78       0.0019
     89  CD1       11.0930   14.0430   10.3450 C.3    78  LEU78       0.0001
     90  CD2       10.6380   13.1190   12.6200 C.3    78  LEU78       0.0001
     91  N          8.7700   11.3260    5.0430 N.3    81  ARG81      -0.1245
     92  CA         9.6740   12.2640    4.3610 C.3    81  ARG81       0.1563
     93  C         11.1200   11.7750    4.4430 C.2    81  ARG81       0.2260
     94  O         11.8530   11.8930    3.4610 O.2    81  ARG81      -0.2867
     95  CB         9.5890   13.6690    4.9530 C.3    81  ARG81       0.0307
     96  CG         8.2060   14.3200    4.7560 C.3    81  ARG81       0.0489
     97  CD         8.2520   15.7910    5.1520 C.3    81  ARG81       0.2205
     98  NE         8.6220   16.0290    6.5570 N.pl3  81  ARG81      -0.0865
     99  CZ         7.7770   15.9880    7.5830 C.cat  81  ARG81       0.5346
    100  NH1        6.5210   15.5900    7.4050 N.pl3  81  ARG81       0.1354
    101  NH2        8.1990   16.2770    8.8060 N.pl3  81  ARG81       0.1354
    102  N         12.9200   16.7860    8.5780 N.3    93  PHE93      -0.1241
    103  CA        11.8180   17.5830    9.1760 C.3    93  PHE93       0.1605
    104  C         11.2000   18.4710    8.0870 C.2    93  PHE93       0.2264
    105  O          9.9810   18.5470    7.9560 O.2    93  PHE93      -0.2867
    106  CB        12.3250   18.4310   10.3580 C.3    93  PHE93       0.0534
    107  CG        12.5280   17.6020   11.6140 C.ar   93  PHE93      -0.0203
    108  CD1       11.4470   17.2510   12.4210 C.ar   93  PHE93      -0.0042
    109  CD2       13.7990   17.1720   11.9860 C.ar   93  PHE93      -0.0042
    110  CE1       11.6270   16.4490   13.5520 C.ar   93  PHE93      -0.0003
    111  CE2       13.9810   16.3700   13.1300 C.ar   93  PHE93      -0.0003
    112  CZ        12.8930   16.0270   13.9070 C.ar   93  PHE93      -0.0000
    113  N         17.4270   16.2060   22.3120 N.3   109  MET109     -0.1245
    114  CA        16.4030   15.1840   22.0760 C.3   109  MET109      0.1570
    115  C         17.0280   13.9680   21.4140 C.2   109  MET109      0.2261
    116  O         16.3420   13.2790   20.6670 O.2   109  MET109     -0.2867
    117  CB        15.4030   15.7510   21.0460 C.3   109  MET109      0.0387
    118  CG        14.4610   16.7090   21.5820 C.3   109  MET109      0.0595
    119  SD        13.0850   16.9040   20.4200 S.3   109  MET109     -0.1393
    120  CE        12.2030   15.3600   20.6730 C.3   109  MET109      0.0692
    121  N         15.0900   11.3300   18.9820 N.3   113  CYS113     -0.1235
    122  CA        15.3780   11.3640   17.5320 C.3   113  CYS113      0.1677
    123  C         15.7050    9.9390   17.0110 C.2   113  CYS113      0.2270
    124  O         15.2440    9.5680   15.9330 O.2   113  CYS113     -0.2867
    125  CB        16.4960   12.3510   17.2120 C.3   113  CYS113      0.0956
    126  SG        16.0010   14.0910   17.2650 S.3   113  CYS113     -0.0801
    127  N         12.4130    8.0600   16.6760 N.3   116  MET116     -0.1245
    128  CA        11.6830    8.4620   15.4600 C.3   116  MET116      0.1570
    129  C         12.3810    7.8750   14.2450 C.2   116  MET116      0.2261
    130  O         11.7050    7.3830   13.3480 O.2   116  MET116     -0.2867
    131  CB        11.6040   10.0000   15.3380 C.3   116  MET116      0.0387
    132  CG        10.7130   10.6460   16.4010 C.3   116  MET116      0.0595
    133  SD        10.4520   12.4430   16.2160 S.3   116  MET116     -0.1393
    134  CE        11.9540   13.0440   16.9060 C.3   116  MET116      0.0692
    135  N          7.5670   10.8930   23.2400 N.3   197  LEU197     -0.1245
    136  CA         7.6510   12.2310   22.6200 C.3   197  LEU197      0.1561
    137  C          6.7910   13.2300   23.4000 C.2   197  LEU197      0.2260
    138  O          7.2360   14.3390   23.7040 O.2   197  LEU197     -0.2867
    139  CB         7.2270   12.1620   21.1340 C.3   197  LEU197      0.0270
    140  CG         8.2230   11.4790   20.1720 C.3   197  LEU197      0.0019
    141  CD1        7.5960   11.2580   18.7990 C.3   197  LEU197      0.0001
    142  CD2        9.5100   12.2720   20.0460 C.3   197  LEU197      0.0001
    143  N          8.3070   14.4350   26.7200 N.3   200  PHE200     -0.1227
    144  CA         9.2770   15.5000   26.4930 C.3   200  PHE200      0.1736
    145  C          8.5540   16.7960   26.1250 C.2   200  PHE200      0.2595
    146  O          8.8830   17.8520   26.6600 O.2   200  PHE200     -0.2718
    147  CB        10.2850   15.0910   25.4080 C.3   200  PHE200      0.0547
    148  CG        11.3050   16.1660   25.0900 C.ar  200  PHE200     -0.0202
    149  CD1       12.4930   16.2590   25.8170 C.ar  200  PHE200     -0.0042
    150  CD2       11.0830   17.0810   24.0690 C.ar  200  PHE200     -0.0042
    151  CE1       13.4240   17.2690   25.5410 C.ar  200  PHE200     -0.0003
    152  CE2       12.0130   18.0850   23.7930 C.ar  200  PHE200     -0.0003
    153  CZ        13.1760   18.1760   24.5330 C.ar  200  PHE200     -0.0000
    154  N          7.5800   16.7220   25.1970 N.am  201  CYS201     -0.1970
    155  CA         6.8070   17.8870   24.7620 C.3   201  CYS201      0.1712
    156  C          6.2100   18.6080   25.9840 C.2   201  CYS201      0.2296
    157  O          6.3910   19.8230   26.1370 O.2   201  CYS201     -0.2864
    158  CB         5.7070   17.4530   23.7890 C.3   201  CYS201      0.0983
    159  SG         4.6510   18.8140   23.2150 S.3   201  CYS201     -0.0798
    160  N          8.7570   20.4840   28.1850 N.3   204  THR204     -0.1218
    161  CA         9.1880   21.7570   27.5800 C.3   204  THR204      0.1862
    162  C          8.0910   22.8070   27.6010 C.2   204  THR204      0.2287
    163  O          8.3900   24.0080   27.6330 O.2   204  THR204     -0.2866
    164  CB         9.7790   21.5840   26.1610 C.3   204  THR204      0.1770
    165  OG1        8.7500   21.1550   25.2670 O.3   204  THR204     -0.2211
    166  CG2       10.9860   20.6220   26.1270 C.3   204  THR204      0.0375
    167  N          6.4110   28.2920   21.5960 N.3   215  PHE215     -0.1241
    168  CA         5.2930   27.4920   21.0790 C.3   215  PHE215      0.1605
    169  C          4.3400   28.3700   20.2940 C.2   215  PHE215      0.2264
    170  O          3.8870   29.4060   20.8070 O.2   215  PHE215     -0.2867
    171  CB         4.5180   26.7660   22.1920 C.3   215  PHE215      0.0534
    172  CG         5.2540   25.5970   22.8020 C.ar  215  PHE215     -0.0203
    173  CD1        6.1490   25.7870   23.8510 C.ar  215  PHE215     -0.0042
    174  CD2        5.0720   24.3080   22.3110 C.ar  215  PHE215     -0.0042
    175  CE1        6.8500   24.7080   24.3960 C.ar  215  PHE215     -0.0003
    176  CE2        5.7690   23.2280   22.8640 C.ar  215  PHE215     -0.0003
    177  CZ         6.6520   23.4380   23.9050 C.ar  215  PHE215     -0.0000
    178  N         -0.1420   25.0530   18.7780 N.3   219  LEU219     -0.1245
    179  CA         0.3890   24.0760   19.7450 C.3   219  LEU219      0.1561
    180  C         -0.0070   24.4090   21.1590 C.2   219  LEU219      0.2260
    181  O         -0.3160   23.5090   21.9270 O.2   219  LEU219     -0.2867
    182  CB         1.9140   23.9250   19.6710 C.3   219  LEU219      0.0270
    183  CG         2.5670   23.2240   18.4620 C.3   219  LEU219      0.0019
    184  CD1        3.9010   22.5580   18.8750 C.3   219  LEU219      0.0001
    185  CD2        1.6190   22.2810   17.6950 C.3   219  LEU219      0.0001
@<TRIPOS>BOND
     1    94    93    2
     2    92    93    1
     3    92    95    1
     4    92    91    1
     5    96    95    1
     6    96    97    1
     7    97    98    1
     8    98    99    2
     9   100    99    1
    10    99   101    1
    11   105   104    2
    12   104   103    1
    13    86    85    2
    14   102   103    1
    15    85    84    1
    16    46    44   am
    17    31    30    1
    18   103   106    1
    19    83    84    1
    20    43    44    1
    21    43    42    1
    22    84    87    1
    23    44    45    2
    24    41    40    2
    25    39    42    1
    26    39    38    1
    27    39    40    1
    28    32    30    1
    29    89    88    1
    30   106   107    1
    31    30    29    1
    32    87    88    1
    33    88    90    1
    34    28    27    2
    35    29    26    1
    36   107   109   ar
    37   107   108   ar
    38    72    71    2
    39    80    79    2
    40    26    27    1
    41    26    25    1
    42   109   111   ar
    43    76    74    1
    44    27    33   am
    45   108   110   ar
    46    79    78    1
    47    71    70    1
    48    71    77   am
    49    70    69    1
    50    70    73    1
    51   111   112   ar
    52   130   129    2
    53    36    35    2
    54    33    34    1
    55   110   112   ar
    56    77    78    1
    57    78    81    1
    58    74    73    1
    59    74    75    1
    60    35    34    1
    61    34    37    1
    62    16    14    1
    63   129   128    1
    64    81    82    1
    65    12    11    2
    66    10     9    1
    67    10    11    1
    68    10    13    1
    69   131   128    1
    70   131   132    1
    71    14    13    1
    72    14    15    1
    73    50    49    2
    74   128   127    1
    75    11    17   am
    76   124   123    2
    77    20    19    2
    78    64    63    2
    79   133   132    1
    80   133   134    1
    81    19    18    1
    82    49    48    1
    83    49    61   am
    84    48    51    1
    85    48    47    1
    86    63    62    1
    87    17    18    1
    88   123   122    1
    89    51    52    1
    90   125   126    1
    91   125   122    1
    92    18    21    1
    93   122   121    1
    94    61    62    1
    95    62    65    1
    96   185   183    1
    97    57    59   ar
    98    57    54   ar
    99    59    60   ar
   100    52    54   ar
   101    52    53   ar
   102   183   184    1
   103   183   182    1
   104    54    56   ar
   105     4     3    2
   106    21    22    1
   107   178   179    1
   108   141   140    1
   109    67    66    1
   110    67    68    1
   111     1     2    1
   112     3     2    1
   113    65    66    1
   114     2     5    1
   115    23    22    2
   116    53    55   ar
   117   182   179    1
   118    60    58   ar
   119    22    24   am
   120   179   180    1
   121    56    55   ar
   122    56    58   ar
   123   142   140    1
   124   140   139    1
   125   169   170    2
   126   169   168    1
   127   119   120    1
   128   119   118    1
   129   116   115    2
   130     8     6    1
   131     5     6    1
   132   117   118    1
   133   117   114    1
   134   168   167    1
   135   168   171    1
   136   139   136    1
   137   180   181    2
   138     6     7    1
   139   115   114    1
   140   114   113    1
   141   171   172    1
   142   174   172   ar
   143   174   176   ar
   144   136   135    1
   145   136   137    1
   146   172   173   ar
   147   176   177   ar
   148   159   158    1
   149   137   138    2
   150   158   155    1
   151   152   150   ar
   152   152   153   ar
   153   173   175   ar
   154   177   175   ar
   155   150   148   ar
   156   153   151   ar
   157   155   154    1
   158   155   156    1
   159   148   147    1
   160   148   149   ar
   161   154   145   am
   162   165   164    1
   163   147   144    1
   164   151   149   ar
   165   156   157    2
   166   145   144    1
   167   145   146    2
   168   166   164    1
   169   164   161    1
   170   144   143    1
   171   161   162    1
   172   161   160    1
   173   162   163    2
