@<TRIPOS>MOLECULE
tmp/5l7gA01.pdb
 209 195 0 0 0
SMALL
GASTEIGER

@<TRIPOS>ATOM
      1  N        -14.5000   23.5380  -18.8050 N.3    30  LEU30      -0.1245
      2  CA       -13.1730   23.1740  -19.3100 C.3    30  LEU30       0.1561
      3  C        -12.1000   24.1780  -18.8950 C.2    30  LEU30       0.2260
      4  O        -11.0200   23.7630  -18.4760 O.2    30  LEU30      -0.2867
      5  CB       -13.1650   22.9210  -20.8340 C.3    30  LEU30       0.0270
      6  CG       -13.9480   21.6940  -21.3150 C.3    30  LEU30       0.0019
      7  CD1      -14.1560   21.7350  -22.8050 C.3    30  LEU30       0.0001
      8  CD2      -13.2950   20.3940  -20.8810 C.3    30  LEU30       0.0001
      9  N        -11.3610   23.6140  -15.2670 N.3    33  LEU33      -0.1231
     10  CA       -10.5350   22.4050  -15.1870 C.3    33  LEU33       0.1693
     11  C         -9.0930   22.7030  -15.5910 C.2    33  LEU33       0.2592
     12  O         -8.1690   22.1670  -14.9760 O.2    33  LEU33      -0.2718
     13  CB       -11.1020   21.2720  -16.0590 C.3    33  LEU33       0.0284
     14  CG       -12.3060   20.5150  -15.5290 C.3    33  LEU33       0.0019
     15  CD1      -12.6510   19.3510  -16.4430 C.3    33  LEU33       0.0001
     16  CD2      -12.0760   20.0120  -14.1100 C.3    33  LEU33       0.0001
     17  N         -8.9010   23.5550  -16.6140 N.am   34  ASN34      -0.1974
     18  CA        -7.5650   23.9350  -17.1050 C.3    34  ASN34       0.1688
     19  C         -6.8060   24.7570  -16.0960 C.2    34  ASN34       0.2292
     20  O         -5.6090   24.4970  -15.8600 O.2    34  ASN34      -0.2864
     21  CB        -7.6410   24.6250  -18.4680 C.3    34  ASN34       0.1181
     22  CG        -8.0090   23.6660  -19.5530 C.2    34  ASN34       0.2629
     23  OD1       -7.9660   22.4630  -19.3620 O.2    34  ASN34      -0.2716
     24  ND2       -8.4970   24.1570  -20.6680 N.am   34  ASN34      -0.0877
     25  N         -7.4030   24.6890  -12.8570 N.3    36  LEU36      -0.1231
     26  CA        -7.1030   23.7570  -11.7790 C.3    36  LEU36       0.1693
     27  C         -5.8750   22.8900  -12.1300 C.2    36  LEU36       0.2591
     28  O         -4.9770   22.7390  -11.2950 O.2    36  LEU36      -0.2718
     29  CB        -8.3410   22.9080  -11.4180 C.3    36  LEU36       0.0284
     30  CG        -8.1440   21.7840  -10.3640 C.3    36  LEU36       0.0019
     31  CD1       -7.7770   22.3540   -8.9870 C.3    36  LEU36       0.0001
     32  CD2       -9.3670   20.9050  -10.2750 C.3    36  LEU36       0.0001
     33  N         -5.8260   22.3590  -13.3670 N.am   37  ALA37      -0.1980
     34  CA        -4.6960   21.5660  -13.8730 C.3    37  ALA37       0.1597
     35  C         -3.3890   22.3950  -13.8180 C.2    37  ALA37       0.2287
     36  O         -2.3640   21.8800  -13.3760 O.2    37  ALA37      -0.2864
     37  CB        -4.9750   21.0560  -15.2840 C.3    37  ALA37       0.0319
     38  N         -2.2990   22.5670  -10.0450 N.3    40  GLN40      -0.1245
     39  CA        -1.8990   21.2160   -9.6770 C.3    40  GLN40       0.1566
     40  C         -0.5610   20.8510  -10.3080 C.2    40  GLN40       0.2260
     41  O          0.2000   20.1320   -9.6890 O.2    40  GLN40      -0.2867
     42  CB        -2.9830   20.2190  -10.1000 C.3    40  GLN40       0.0367
     43  CG        -4.2210   20.2330   -9.1970 C.3    40  GLN40       0.0905
     44  CD        -5.2400   19.2110   -9.6270 C.2    40  GLN40       0.2608
     45  OE1       -5.1530   18.6260  -10.7060 O.2    40  GLN40      -0.2717
     46  NE2       -6.2470   18.9820   -8.8040 N.am   40  GLN40      -0.0878
     47  N          2.3600   14.1780  -17.1100 N.3    70  TRP70      -0.1227
     48  CA         1.4580   15.1520  -16.4400 C.3    70  TRP70       0.1737
     49  C         -0.0250   14.7080  -16.3610 C.2    70  TRP70       0.2595
     50  O         -0.6130   14.7130  -15.2700 O.2    70  TRP70      -0.2718
     51  CB         1.5900   16.5640  -17.0420 C.3    70  TRP70       0.0564
     52  CG         0.9330   16.7580  -18.3710 C.ar   70  TRP70       0.0003
     53  CD1        1.3580   16.2680  -19.5680 C.ar   70  TRP70       0.0946
     54  CD2       -0.3010   17.4380  -18.6310 C.ar   70  TRP70       0.0152
     55  NE1        0.5040   16.6500  -20.5650 N.ar   70  TRP70      -0.2442
     56  CE2       -0.5370   17.3560  -20.0190 C.ar   70  TRP70       0.0810
     57  CE3       -1.2120   18.1580  -17.8300 C.ar   70  TRP70       0.0012
     58  CZ2       -1.6610   17.9340  -20.6260 C.ar   70  TRP70       0.0191
     59  CZ3       -2.3080   18.7490  -18.4370 C.ar   70  TRP70       0.0001
     60  CH2       -2.5160   18.6500  -19.8200 C.ar   70  TRP70       0.0015
     61  N         -0.6000   14.2750  -17.5000 N.am   71  MET71      -0.1979
     62  CA        -1.9830   13.8270  -17.5930 C.3    71  MET71       0.1605
     63  C         -2.2340   12.5850  -16.7450 C.2    71  MET71       0.2287
     64  O         -3.2790   12.4960  -16.0970 O.2    71  MET71      -0.2864
     65  CB        -2.4020   13.6340  -19.0690 C.3    71  MET71       0.0413
     66  CG        -3.8980   13.3480  -19.2690 C.3    71  MET71       0.0598
     67  SD        -4.9940   14.7270  -18.8160 S.3    71  MET71      -0.1393
     68  CE        -5.0010   15.6130  -20.3760 C.3    71  MET71       0.0692
     69  N         -2.2440   13.7120  -12.9370 N.3    74  LEU74      -0.1231
     70  CA        -3.4710   14.4480  -12.6520 C.3    74  LEU74       0.1693
     71  C         -4.7020   13.5450  -12.5950 C.2    74  LEU74       0.2592
     72  O         -5.4940   13.6660  -11.6640 O.2    74  LEU74      -0.2718
     73  CB        -3.6780   15.6330  -13.6220 C.3    74  LEU74       0.0284
     74  CG        -2.6280   16.7750  -13.5450 C.3    74  LEU74       0.0019
     75  CD1       -3.0850   17.9870  -14.3170 C.3    74  LEU74       0.0001
     76  CD2       -2.2530   17.1560  -12.0990 C.3    74  LEU74       0.0001
     77  N         -4.8320   12.6170  -13.5540 N.am   75  SER75      -0.1952
     78  CA        -5.9750   11.7020  -13.5930 C.3    75  SER75       0.1924
     79  C         -5.9330   10.6680  -12.4690 C.2    75  SER75       0.2314
     80  O         -6.9800   10.3330  -11.9100 O.2    75  SER75      -0.2863
     81  CB        -6.1440   11.0620  -14.9690 C.3    75  SER75       0.2116
     82  OG        -4.9580   10.4380  -15.4260 O.3    75  SER75      -0.2180
     83  N         -6.9430   12.4650   -9.3420 N.3    78  LEU78      -0.1245
     84  CA        -8.3800   12.6890   -9.4210 C.3    78  LEU78       0.1561
     85  C         -9.1180   11.4190   -8.9380 C.2    78  LEU78       0.2260
     86  O        -10.0410   11.5240   -8.1290 O.2    78  LEU78      -0.2867
     87  CB        -8.8320   13.0520  -10.8600 C.3    78  LEU78       0.0270
     88  CG       -10.3730   13.0190  -11.1350 C.3    78  LEU78       0.0019
     89  CD1      -11.1280   14.0720  -10.3140 C.3    78  LEU78       0.0001
     90  CD2      -10.6760   13.2120  -12.6170 C.3    78  LEU78       0.0001
     91  N         -8.7680   11.1110   -5.1200 N.3    81  ARG81      -0.1245
     92  CA        -9.6220   12.0990   -4.4550 C.3    81  ARG81       0.1563
     93  C        -11.0710   11.6480   -4.5280 C.2    81  ARG81       0.2260
     94  O        -11.8030   11.7780   -3.5440 O.2    81  ARG81      -0.2867
     95  CB        -9.4860   13.4880   -5.0940 C.3    81  ARG81       0.0307
     96  CG        -8.2600   14.2440   -4.6520 C.3    81  ARG81       0.0489
     97  CD        -8.3320   15.7260   -5.0150 C.3    81  ARG81       0.2205
     98  NE        -8.6850   15.9690   -6.4220 N.pl3  81  ARG81      -0.0865
     99  CZ        -7.8420   15.9260   -7.4550 C.cat  81  ARG81       0.5346
    100  NH1       -6.5760   15.5840   -7.2740 N.pl3  81  ARG81       0.1354
    101  NH2       -8.2740   16.1900   -8.6810 N.pl3  81  ARG81       0.1354
    102  N        -16.7590   12.4180   -9.3620 N.3    91  LEU91      -0.1245
    103  CA       -15.3990   12.7950   -9.7030 C.3    91  LEU91       0.1561
    104  C        -15.0380   14.0480   -8.8800 C.2    91  LEU91       0.2260
    105  O        -15.5420   15.1500   -9.1420 O.2    91  LEU91      -0.2867
    106  CB       -15.1810   12.9900  -11.2250 C.3    91  LEU91       0.0270
    107  CG       -15.2480   11.7420  -12.1160 C.3    91  LEU91       0.0019
    108  CD1      -14.9980   12.1040  -13.5500 C.3    91  LEU91       0.0001
    109  CD2      -14.2270   10.6690  -11.6940 C.3    91  LEU91       0.0001
    110  N        -12.7460   16.6660   -8.3790 N.3    93  PHE93      -0.1241
    111  CA       -11.6670   17.4780   -8.9440 C.3    93  PHE93       0.1605
    112  C        -11.0480   18.3440   -7.8550 C.2    93  PHE93       0.2264
    113  O         -9.8340   18.4110   -7.7350 O.2    93  PHE93      -0.2867
    114  CB       -12.1800   18.3630  -10.0950 C.3    93  PHE93       0.0534
    115  CG       -12.4200   17.5750  -11.3500 C.ar   93  PHE93      -0.0203
    116  CD1      -11.3680   17.2840  -12.2210 C.ar   93  PHE93      -0.0042
    117  CD2      -13.6810   17.0610  -11.6360 C.ar   93  PHE93      -0.0042
    118  CE1      -11.5840   16.5210  -13.3710 C.ar   93  PHE93      -0.0003
    119  CE2      -13.8930   16.2830  -12.7810 C.ar   93  PHE93      -0.0003
    120  CZ       -12.8460   16.0250  -13.6400 C.ar   93  PHE93      -0.0000
    121  N        -17.4440   15.8740  -22.0580 N.3   109  MET109     -0.1245
    122  CA       -16.4290   14.8670  -21.7460 C.3   109  MET109      0.1570
    123  C        -16.9820   13.6070  -21.0820 C.2   109  MET109      0.2261
    124  O        -16.2180   12.9120  -20.4050 O.2   109  MET109     -0.2867
    125  CB       -15.4450   15.4860  -20.7570 C.3   109  MET109      0.0387
    126  CG       -14.6250   16.6100  -21.3080 C.3   109  MET109      0.0595
    127  SD       -13.3220   16.9170  -20.1200 S.3   109  MET109     -0.1393
    128  CE       -12.3740   15.3850  -20.3240 C.3   109  MET109      0.0692
    129  N        -15.1490   10.1170  -21.4270 N.3   112  LEU112     -0.1231
    130  CA       -13.8560   10.2650  -20.7500 C.3   112  LEU112      0.1693
    131  C        -14.0270   10.2220  -19.2310 C.2   112  LEU112      0.2592
    132  O        -13.2700    9.5210  -18.5510 O.2   112  LEU112     -0.2718
    133  CB       -13.1450   11.5620  -21.1730 C.3   112  LEU112      0.0284
    134  CG       -12.6420   11.6120  -22.6150 C.3   112  LEU112      0.0019
    135  CD1      -12.3510   13.0280  -23.0330 C.3   112  LEU112      0.0001
    136  CD2      -11.4040   10.7480  -22.8110 C.3   112  LEU112      0.0001
    137  N        -15.0400   10.9500  -18.7150 N.am  113  CYS113     -0.1970
    138  CA       -15.3990   11.0030  -17.2920 C.3   113  CYS113      0.1712
    139  C        -15.8070    9.6250  -16.7660 C.2   113  CYS113      0.2296
    140  O        -15.3960    9.2350  -15.6720 O.2   113  CYS113     -0.2864
    141  CB       -16.4880   12.0420  -17.0520 C.3   113  CYS113      0.0983
    142  SG       -15.9020   13.7520  -17.0990 S.3   113  CYS113     -0.0798
    143  N        -12.6870    7.4170  -16.3510 N.3   116  MET116     -0.1245
    144  CA       -11.9820    7.7830  -15.1320 C.3   116  MET116      0.1570
    145  C        -12.6920    7.2020  -13.9090 C.2   116  MET116      0.2261
    146  O        -12.0340    6.7710  -12.9560 O.2   116  MET116     -0.2867
    147  CB       -11.9020    9.3040  -15.0020 C.3   116  MET116      0.0387
    148  CG       -11.2590    9.7420  -13.7270 C.3   116  MET116      0.0595
    149  SD        -9.5010   10.0350  -13.9280 S.3   116  MET116     -0.1393
    150  CE        -8.8250    8.3640  -13.8970 C.3   116  MET116      0.0692
    151  N         -6.5100    5.2020  -21.1060 N.3   197  LEU197     -0.1245
    152  CA        -7.3940    6.2880  -20.6820 C.3   197  LEU197      0.1561
    153  C         -6.7000    7.6540  -20.9210 C.2   197  LEU197      0.2260
    154  O         -7.3250    8.5770  -21.4340 O.2   197  LEU197     -0.2867
    155  CB        -7.7820    6.1140  -19.1970 C.3   197  LEU197      0.0270
    156  CG        -8.2450    7.4040  -18.4660 C.3   197  LEU197      0.0019
    157  CD1       -9.7230    7.7260  -18.7280 C.3   197  LEU197      0.0001
    158  CD2       -7.9380    7.3310  -17.0110 C.3   197  LEU197      0.0001
    159  N         -7.5740   11.0900  -23.0630 N.3   201  LEU201     -0.1245
    160  CA        -7.6210   12.4270  -22.4310 C.3   201  LEU201      0.1561
    161  C         -6.7200   13.3940  -23.1950 C.2   201  LEU201      0.2260
    162  O         -7.1050   14.5330  -23.4330 O.2   201  LEU201     -0.2867
    163  CB        -7.1970   12.3680  -20.9390 C.3   201  LEU201      0.0270
    164  CG        -8.1720   11.6820  -19.9760 C.3   201  LEU201      0.0019
    165  CD1       -7.5010   11.3580  -18.6440 C.3   201  LEU201      0.0001
    166  CD2       -9.4320   12.5210  -19.7670 C.3   201  LEU201      0.0001
    167  N         -8.3240   14.4810  -26.4610 N.3   204  PHE204     -0.1227
    168  CA        -9.2960   15.5350  -26.1800 C.3   204  PHE204      0.1736
    169  C         -8.5410   16.8440  -25.9010 C.2   204  PHE204      0.2595
    170  O         -8.9230   17.8890  -26.4230 O.2   204  PHE204     -0.2718
    171  CB       -10.2060   15.1540  -24.9940 C.3   204  PHE204      0.0547
    172  CG       -11.2790   16.1780  -24.7050 C.ar  204  PHE204     -0.0202
    173  CD1      -12.4840   16.1630  -25.4010 C.ar  204  PHE204     -0.0042
    174  CD2      -11.0670   17.1910  -23.7760 C.ar  204  PHE204     -0.0042
    175  CE1      -13.4570   17.1400  -25.1710 C.ar  204  PHE204     -0.0003
    176  CE2      -12.0440   18.1580  -23.5380 C.ar  204  PHE204     -0.0003
    177  CZ       -13.2290   18.1330  -24.2420 C.ar  204  PHE204     -0.0000
    178  N         -7.4840   16.7740  -25.0650 N.am  205  CYS205     -0.1970
    179  CA        -6.6290   17.9060  -24.7160 C.3   205  CYS205      0.1712
    180  C         -6.0990   18.5950  -25.9640 C.2   205  CYS205      0.2296
    181  O         -6.3210   19.7870  -26.1420 O.2   205  CYS205     -0.2864
    182  CB        -5.4810   17.4490  -23.8120 C.3   205  CYS205      0.0983
    183  SG        -4.3740   18.7800  -23.2760 S.3   205  CYS205     -0.0798
    184  N         -8.7750   20.4340  -28.0880 N.3   208  THR208     -0.1218
    185  CA        -9.2330   21.6630  -27.4370 C.3   208  THR208      0.1862
    186  C         -8.1710   22.7490  -27.4580 C.2   208  THR208      0.2287
    187  O         -8.5330   23.9190  -27.4970 O.2   208  THR208     -0.2866
    188  CB        -9.7900   21.4180  -26.0320 C.3   208  THR208      0.1770
    189  OG1       -8.7270   21.0040  -25.1730 O.3   208  THR208     -0.2211
    190  CG2      -10.9310   20.4050  -26.0230 C.3   208  THR208      0.0375
    191  N         -6.4170   28.3340  -21.4240 N.3   219  PHE219     -0.1241
    192  CA        -5.2980   27.5120  -20.9680 C.3   219  PHE219      0.1605
    193  C         -4.3040   28.3530  -20.1910 C.2   219  PHE219      0.2264
    194  O         -3.8130   29.3540  -20.7220 O.2   219  PHE219     -0.2867
    195  CB        -4.5960   26.8160  -22.1410 C.3   219  PHE219      0.0534
    196  CG        -5.3400   25.6180  -22.6760 C.ar  219  PHE219     -0.0203
    197  CD1       -6.2570   25.7560  -23.7160 C.ar  219  PHE219     -0.0042
    198  CD2       -5.0860   24.3410  -22.1800 C.ar  219  PHE219     -0.0042
    199  CE1       -6.9440   24.6490  -24.2110 C.ar  219  PHE219     -0.0003
    200  CE2       -5.7550   23.2290  -22.6970 C.ar  219  PHE219     -0.0003
    201  CZ        -6.6690   23.3900  -23.7160 C.ar  219  PHE219     -0.0000
    202  N          0.2180   25.0440  -18.6990 N.3   223  LEU223     -0.1245
    203  CA        -0.3360   24.1030  -19.6820 C.3   223  LEU223      0.1561
    204  C          0.0820   24.4140  -21.1010 C.2   223  LEU223      0.2260
    205  O          0.3290   23.4810  -21.8510 O.2   223  LEU223     -0.2867
    206  CB        -1.8670   23.9610  -19.5850 C.3   223  LEU223      0.0270
    207  CG        -2.4660   23.3710  -18.2790 C.3   223  LEU223      0.0019
    208  CD1       -3.8870   22.8500  -18.5120 C.3   223  LEU223      0.0001
    209  CD2       -1.5820   22.3000  -17.6420 C.3   223  LEU223      0.0001
@<TRIPOS>BOND
     1   184   185    1
     2   187   186    2
     3   186   185    1
     4   185   188    1
     5   167   168    1
     6   170   169    2
     7   168   169    1
     8   168   171    1
     9   181   180    2
    10   188   190    1
    11   188   189    1
    12   180   179    1
    13   169   178   am
    14   173   175   ar
    15   173   172   ar
    16   175   177   ar
    17   178   179    1
    18   171   172    1
    19   179   182    1
    20   172   174   ar
    21   177   176   ar
    22   199   197   ar
    23   199   201   ar
    24   182   183    1
    25   174   176   ar
    26   197   196   ar
    27   201   200   ar
    28   162   161    2
    29   161   160    1
    30   159   160    1
    31   135   134    1
    32   136   134    1
    33     7     6    1
    34   200   198   ar
    35   196   198   ar
    36   196   195    1
    37   134   133    1
    38   160   163    1
    39   195   192    1
    40   121   122    1
    41   205   204    2
    42   122   123    1
    43   122   125    1
    44   154   153    2
    45   129   130    1
    46   191   192    1
    47     6     8    1
    48     6     5    1
    49   126   125    1
    50   126   127    1
    51   133   130    1
    52   151   152    1
    53   204   203    1
    54   123   124    2
    55   192   193    1
    56   163   164    1
    57   153   152    1
    58     5     2    1
    59   130   131    1
    60   194   193    2
    61   152   155    1
    62    24    22   am
    63    58    56   ar
    64    58    60   ar
    65    55    56   ar
    66    55    53   ar
    67    68    67    1
    68   128   127    1
    69    56    54   ar
    70   164   166    1
    71   164   165    1
    72    60    59   ar
    73   203   206    1
    74   203   202    1
    75   206   207    1
    76    53    52   ar
    77    22    23    2
    78    22    21    1
    79     2     3    1
    80     2     1    1
    81    66    65    1
    82    66    67    1
    83   131   137   am
    84   131   132    2
    85   155   156    1
    86    65    62    1
    87     3     4    2
    88   157   156    1
    89   137   138    1
    90    54    52   ar
    91    54    57   ar
    92   208   207    1
    93    21    18    1
    94   156   158    1
    95    59    57   ar
    96    52    51    1
    97   207   209    1
    98    62    61    1
    99    62    63    1
   100    61    49   am
   101   138   141    1
   102   138   139    1
   103    47    48    1
   104    18    17    1
   105    18    19    1
   106   142   141    1
   107    51    48    1
   108   139   140    2
   109    63    64    2
   110    17    11   am
   111    15    14    1
   112    48    49    1
   113    49    50    2
   114   143   144    1
   115    19    20    2
   116    13    14    1
   117    13    10    1
   118    11    10    1
   119    11    12    2
   120    14    16    1
   121    82    81    1
   122    37    34    1
   123     9    10    1
   124   144   147    1
   125   144   145    1
   126   147   148    1
   127    81    78    1
   128    75    74    1
   129   149   150    1
   130   149   148    1
   131   145   146    2
   132    34    35    1
   133    34    33    1
   134    35    36    2
   135   120   118   ar
   136   120   119   ar
   137    73    74    1
   138    73    70    1
   139    78    77    1
   140    78    79    1
   141    77    71   am
   142   108   107    1
   143    74    76    1
   144   118   116   ar
   145    33    27   am
   146    69    70    1
   147    25    26    1
   148   119   117   ar
   149    70    71    1
   150    90    88    1
   151    71    72    2
   152    79    80    2
   153   116   115   ar
   154    27    26    1
   155    27    28    2
   156   107   109    1
   157   107   106    1
   158    26    29    1
   159   117   115   ar
   160    29    30    1
   161   115   114    1
   162   106   103    1
   163    88    87    1
   164    88    89    1
   165    87    84    1
   166    45    44    2
   167    30    32    1
   168    30    31    1
   169    40    41    2
   170    40    39    1
   171    42    39    1
   172    42    43    1
   173   114   111    1
   174    38    39    1
   175   103   102    1
   176   103   104    1
   177    44    43    1
   178    44    46   am
   179    84    83    1
   180    84    85    1
   181   105   104    2
   182   111   110    1
   183   111   112    1
   184    85    86    2
   185   101    99    1
   186   112   113    2
   187    99   100    1
   188    99    98    2
   189    98    97    1
   190    91    92    1
   191    95    96    1
   192    95    92    1
   193    97    96    1
   194    93    92    1
   195    93    94    2
