@<TRIPOS>MOLECULE
tmp/5l7hA01.pdb
 201 188 0 0 0
SMALL
GASTEIGER

@<TRIPOS>ATOM
      1  N         14.6350   23.7460   18.9450 N.3    32  LEU32      -0.1245
      2  CA        13.2930   23.3740   19.4150 C.3    32  LEU32       0.1561
      3  C         12.2400   24.3820   19.0010 C.2    32  LEU32       0.2260
      4  O         11.1840   23.9680   18.5470 O.2    32  LEU32      -0.2867
      5  CB        13.2210   23.0780   20.9360 C.3    32  LEU32       0.0270
      6  CG        14.0130   21.8540   21.4250 C.3    32  LEU32       0.0019
      7  CD1       14.0350   21.7860   22.9350 C.3    32  LEU32       0.0001
      8  CD2       13.4840   20.5650   20.8430 C.3    32  LEU32       0.0001
      9  N         11.4890   23.7980   15.3670 N.3    35  LEU35      -0.1231
     10  CA        10.6640   22.5820   15.2450 C.3    35  LEU35       0.1693
     11  C          9.2120   22.8620   15.6290 C.2    35  LEU35       0.2592
     12  O          8.3020   22.3670   14.9660 O.2    35  LEU35      -0.2718
     13  CB        11.2400   21.4550   16.1040 C.3    35  LEU35       0.0284
     14  CG        12.4960   20.7750   15.5520 C.3    35  LEU35       0.0019
     15  CD1       13.0630   19.8020   16.5640 C.3    35  LEU35       0.0001
     16  CD2       12.1940   20.0350   14.2610 C.3    35  LEU35       0.0001
     17  N          9.0020   23.6620   16.6990 N.am   36  ASN36      -0.1974
     18  CA         7.6580   24.0300   17.1650 C.3    36  ASN36       0.1688
     19  C          6.9190   24.8770   16.1400 C.2    36  ASN36       0.2292
     20  O          5.7240   24.6500   15.8920 O.2    36  ASN36      -0.2864
     21  CB         7.7270   24.7230   18.5400 C.3    36  ASN36       0.1181
     22  CG         8.1170   23.7550   19.6200 C.2    36  ASN36       0.2629
     23  OD1        8.1820   22.5620   19.4020 O.2    36  ASN36      -0.2716
     24  ND2        8.4450   24.2380   20.8030 N.am   36  ASN36      -0.0877
     25  N          7.5340   24.8900   12.9200 N.3    38  LEU38      -0.1231
     26  CA         7.2110   23.9600   11.8460 C.3    38  LEU38       0.1693
     27  C          5.9710   23.0860   12.1930 C.2    38  LEU38       0.2591
     28  O          5.1310   22.9060   11.3310 O.2    38  LEU38      -0.2718
     29  CB         8.4280   23.1230   11.4080 C.3    38  LEU38       0.0284
     30  CG         8.1940   21.9930   10.3870 C.3    38  LEU38       0.0019
     31  CD1        7.7980   22.5330    9.0220 C.3    38  LEU38       0.0001
     32  CD2        9.4360   21.0880   10.2720 C.3    38  LEU38       0.0001
     33  N          5.8780   22.5400   13.4240 N.am   39  ALA39      -0.1980
     34  CA         4.7300   21.7150   13.8670 C.3    39  ALA39       0.1597
     35  C          3.4230   22.5050   13.8010 C.2    39  ALA39       0.2287
     36  O          2.4180   21.9540   13.3820 O.2    39  ALA39      -0.2864
     37  CB         4.9520   21.1890   15.2870 C.3    39  ALA39       0.0319
     38  N          2.4660   22.6840   10.1670 N.3    42  GLN42      -0.1245
     39  CA         1.9980   21.3500    9.7510 C.3    42  GLN42       0.1566
     40  C          0.6370   20.9880   10.3690 C.2    42  GLN42       0.2260
     41  O         -0.1260   20.2900    9.7320 O.2    42  GLN42      -0.2867
     42  CB         3.0300   20.2720   10.0710 C.3    42  GLN42       0.0367
     43  CG         4.2930   20.3730    9.1820 C.3    42  GLN42       0.0905
     44  CD         5.3240   19.3480    9.5690 C.2    42  GLN42       0.2608
     45  OE1        5.2780   18.7810   10.6530 O.2    42  GLN42      -0.2717
     46  NE2        6.3160   19.1430    8.7210 N.am   42  GLN42      -0.0878
     47  N         -2.2590   14.2880   17.1850 N.3    72  TRP72      -0.1227
     48  CA        -1.3630   15.2550   16.5180 C.3    72  TRP72       0.1737
     49  C          0.1150   14.7870   16.4700 C.2    72  TRP72       0.2595
     50  O          0.6970   14.7860   15.3810 O.2    72  TRP72      -0.2718
     51  CB        -1.5160   16.6630   17.0900 C.3    72  TRP72       0.0564
     52  CG        -0.8460   16.8780   18.4120 C.ar   72  TRP72       0.0003
     53  CD1       -1.2770   16.4510   19.6290 C.ar   72  TRP72       0.0946
     54  CD2        0.4130   17.5200   18.6300 C.ar   72  TRP72       0.0152
     55  NE1       -0.3740   16.8020   20.5970 N.ar   72  TRP72      -0.2442
     56  CE2        0.6500   17.5100   20.0190 C.ar   72  TRP72       0.0810
     57  CE3        1.3330   18.1810   17.7880 C.ar   72  TRP72       0.0012
     58  CZ2        1.8070   18.0600   20.5830 C.ar   72  TRP72       0.0191
     59  CZ3        2.4470   18.7740   18.3550 C.ar   72  TRP72       0.0001
     60  CH2        2.6880   18.6950   19.7310 C.ar   72  TRP72       0.0015
     61  N          0.6860   14.3300   17.6080 N.am   73  MET73      -0.1979
     62  CA         2.0910   13.8910   17.6510 C.3    73  MET73       0.1605
     63  C          2.3010   12.6570   16.7850 C.2    73  MET73       0.2287
     64  O          3.3340   12.5480   16.1140 O.2    73  MET73      -0.2864
     65  CB         2.5510   13.6450   19.1030 C.3    73  MET73       0.0413
     66  CG         4.0570   13.3100   19.2290 C.3    73  MET73       0.0598
     67  SD         5.1420   14.7180   18.8050 S.3    73  MET73      -0.1393
     68  CE         5.1740   15.6050   20.4350 C.3    73  MET73       0.0692
     69  N          2.2650   13.7870   13.0490 N.3    76  LEU76      -0.1231
     70  CA         3.4890   14.5130   12.7100 C.3    76  LEU76       0.1693
     71  C          4.7160   13.5620   12.6450 C.2    76  LEU76       0.2592
     72  O          5.5000   13.6680   11.6940 O.2    76  LEU76      -0.2718
     73  CB         3.7070   15.6890   13.6620 C.3    76  LEU76       0.0284
     74  CG         2.6320   16.8310   13.5860 C.3    76  LEU76       0.0019
     75  CD1        3.0640   18.0240   14.3580 C.3    76  LEU76       0.0001
     76  CD2        2.2890   17.2230   12.1480 C.3    76  LEU76       0.0001
     77  N          4.8560   12.6390   13.6350 N.am   77  SER77      -0.1952
     78  CA         5.9770   11.6820   13.6870 C.3    77  SER77       0.1924
     79  C          5.9390   10.6610   12.5410 C.2    77  SER77       0.2314
     80  O          6.9860   10.3320   11.9910 O.2    77  SER77      -0.2863
     81  CB         6.0880   11.0050   15.0550 C.3    77  SER77       0.2116
     82  OG         4.8850   10.3810   15.4680 O.3    77  SER77      -0.2180
     83  N          6.9660   12.5230    9.3590 N.3    80  LEU80      -0.1245
     84  CA         8.4100   12.7670    9.4180 C.3    80  LEU80       0.1561
     85  C          9.1410   11.4690    8.9960 C.2    80  LEU80       0.2260
     86  O         10.0850   11.5340    8.2130 O.2    80  LEU80      -0.2867
     87  CB         8.8060   13.1660   10.8460 C.3    80  LEU80       0.0270
     88  CG        10.3230   13.1310   11.1590 C.3    80  LEU80       0.0019
     89  CD1       11.0890   14.1710   10.3450 C.3    80  LEU80       0.0001
     90  CD2       10.5650   13.2830   12.6610 C.3    80  LEU80       0.0001
     91  N          8.7860   11.2140    5.1640 N.3    83  ARG83      -0.1245
     92  CA         9.6850   12.1410    4.4700 C.3    83  ARG83       0.1563
     93  C         11.1580   11.6730    4.5660 C.2    83  ARG83       0.2260
     94  O         11.8790   11.7700    3.5870 O.2    83  ARG83      -0.2867
     95  CB         9.5730   13.5490    5.0310 C.3    83  ARG83       0.0307
     96  CG         8.2330   14.2470    4.7420 C.3    83  ARG83       0.0489
     97  CD         8.3300   15.7170    5.1230 C.3    83  ARG83       0.2205
     98  NE         8.6460   15.9570    6.5430 N.pl3  83  ARG83      -0.0865
     99  CZ         7.7630   15.9690    7.5400 C.cat  83  ARG83       0.5346
    100  NH1        6.4970   15.6080    7.3260 N.pl3  83  ARG83       0.1354
    101  NH2        8.1510   16.2730    8.7700 N.pl3  83  ARG83       0.1354
    102  N         16.7190   12.5650    9.5330 N.3    93  LEU93      -0.1245
    103  CA        15.3440   12.9530    9.8940 C.3    93  LEU93       0.1561
    104  C         15.0190   14.1970    9.0580 C.2    93  LEU93       0.2260
    105  O         15.5830   15.2830    9.2860 O.2    93  LEU93      -0.2867
    106  CB        15.1480   13.1910   11.4030 C.3    93  LEU93       0.0270
    107  CG        15.2480   11.9400   12.3030 C.3    93  LEU93       0.0019
    108  CD1       14.9670   12.3120   13.7700 C.3    93  LEU93       0.0001
    109  CD2       14.2340   10.8560   11.8790 C.3    93  LEU93       0.0001
    110  N         12.9190   16.7860    8.5560 N.3    95  PHE95      -0.1241
    111  CA        11.8230   17.6010    9.1110 C.3    95  PHE95       0.1605
    112  C         11.2030   18.4690    8.0090 C.2    95  PHE95       0.2264
    113  O          9.9830   18.5630    7.9070 O.2    95  PHE95      -0.2867
    114  CB        12.3250   18.4590   10.2730 C.3    95  PHE95       0.0534
    115  CG        12.5180   17.6410   11.5240 C.ar   95  PHE95      -0.0203
    116  CD1       11.4310   17.3180   12.3370 C.ar   95  PHE95      -0.0042
    117  CD2       13.7850   17.2000   11.8990 C.ar   95  PHE95      -0.0042
    118  CE1       11.6060   16.5560   13.4960 C.ar   95  PHE95      -0.0003
    119  CE2       13.9550   16.4150   13.0540 C.ar   95  PHE95      -0.0003
    120  CZ        12.8660   16.1050   13.8420 C.ar   95  PHE95      -0.0000
    121  N         17.6940   16.1290   22.2190 N.3   111  MET111     -0.1245
    122  CA        16.6880   15.0790   22.0320 C.3   111  MET111      0.1570
    123  C         17.2510   13.8470   21.3230 C.2   111  MET111      0.2261
    124  O         16.4980   13.1390   20.6530 O.2   111  MET111     -0.2867
    125  CB        15.5620   15.6160   21.1590 C.3   111  MET111      0.0387
    126  CG        14.8070   16.7450   21.7550 C.3   111  MET111      0.0595
    127  SD        13.3590   17.0140   20.7340 S.3   111  MET111     -0.1393
    128  CE        14.1690   17.4600   19.1530 C.3   111  MET111      0.0692
    129  N         15.3080   10.3810   21.6360 N.3   114  LEU114     -0.1231
    130  CA        13.9790   10.4160   20.9990 C.3   114  LEU114      0.1693
    131  C         14.1070   10.3980   19.4810 C.2   114  LEU114      0.2592
    132  O         13.3390    9.7080   18.8100 O.2   114  LEU114     -0.2718
    133  CB        13.1970   11.6650   21.4200 C.3   114  LEU114      0.0284
    134  CG        12.7250   11.6970   22.8560 C.3   114  LEU114      0.0019
    135  CD1       12.3460   13.1150   23.2500 C.3   114  LEU114      0.0001
    136  CD2       11.5780   10.7270   23.0700 C.3   114  LEU114      0.0001
    137  N         15.0810   11.1610   18.9410 N.am  115  CYS115     -0.1970
    138  CA        15.3610   11.2130   17.4970 C.3   115  CYS115      0.1712
    139  C         15.7410    9.7930   16.9960 C.2   115  CYS115      0.2296
    140  O         15.3040    9.3680   15.9240 O.2   115  CYS115     -0.2864
    141  CB        16.4770   12.2120   17.2050 C.3   115  CYS115      0.0983
    142  SG        15.9870   13.9500   17.2600 S.3   115  CYS115     -0.0798
    143  N         12.7100    7.6140   16.6730 N.3   118  MET118     -0.1245
    144  CA        12.0260    7.9970   15.4450 C.3   118  MET118      0.1570
    145  C         12.7280    7.4410   14.2180 C.2   118  MET118      0.2261
    146  O         12.0670    7.0090   13.2660 O.2   118  MET118     -0.2867
    147  CB        11.9970    9.5250   15.3220 C.3   118  MET118      0.0387
    148  CG        11.2760    9.9880   14.1040 C.3   118  MET118      0.0595
    149  SD         9.5380   10.1370   14.5060 S.3   118  MET118     -0.1393
    150  CE         8.9300    8.5110   14.1330 C.3   118  MET118      0.0692
    151  N          7.6250   11.0420   23.1450 N.3   203  LEU203     -0.1245
    152  CA         7.6790   12.3770   22.5110 C.3   203  LEU203      0.1561
    153  C          6.8010   13.3600   23.2870 C.2   203  LEU203      0.2260
    154  O          7.2200   14.4860   23.5600 O.2   203  LEU203     -0.2867
    155  CB         7.2240   12.3070   21.0350 C.3   203  LEU203      0.0270
    156  CG         8.1900   11.5520   20.1140 C.3   203  LEU203      0.0019
    157  CD1        7.5450   11.2420   18.7770 C.3   203  LEU203      0.0001
    158  CD2        9.5220   12.3010   19.9720 C.3   203  LEU203      0.0001
    159  N          8.3300   14.5170   26.6280 N.3   206  PHE206     -0.1227
    160  CA         9.3110   15.5590   26.3900 C.3   206  PHE206      0.1736
    161  C          8.5820   16.8690   26.0750 C.2   206  PHE206      0.2595
    162  O          8.9370   17.9120   26.6270 O.2   206  PHE206     -0.2718
    163  CB        10.2400   15.1730   25.2260 C.3   206  PHE206      0.0547
    164  CG        11.3190   16.1990   24.9720 C.ar  206  PHE206     -0.0202
    165  CD1       12.5150   16.1680   25.6880 C.ar  206  PHE206     -0.0042
    166  CD2       11.1230   17.2270   24.0530 C.ar  206  PHE206     -0.0042
    167  CE1       13.5010   17.1430   25.4820 C.ar  206  PHE206     -0.0003
    168  CE2       12.1010   18.2070   23.8580 C.ar  206  PHE206     -0.0003
    169  CZ        13.2860   18.1550   24.5700 C.ar  206  PHE206     -0.0000
    170  N          7.5950   16.8140   25.1520 N.am  207  CYS207     -0.1970
    171  CA         6.8390   18.0020   24.7330 C.3   207  CYS207      0.1712
    172  C          6.2120   18.7140   25.9430 C.2   207  CYS207      0.2296
    173  O          6.3700   19.9330   26.1100 O.2   207  CYS207     -0.2864
    174  CB         5.7730   17.5980   23.7170 C.3   207  CYS207      0.0983
    175  SG         4.6920   18.9540   23.2070 S.3   207  CYS207     -0.0798
    176  N          8.6850   20.5110   28.1750 N.3   210  THR210     -0.1218
    177  CA         9.1550   21.7720   27.5900 C.3   210  THR210      0.1862
    178  C          8.0760   22.8210   27.6090 C.2   210  THR210      0.2287
    179  O          8.3910   23.9990   27.7280 O.2   210  THR210     -0.2866
    180  CB         9.7650   21.5960   26.1890 C.3   210  THR210      0.1770
    181  OG1        8.7230   21.2810   25.2810 O.3   210  THR210     -0.2211
    182  CG2       10.8540   20.5250   26.1490 C.3   210  THR210      0.0375
    183  N          6.4000   28.4290   21.4790 N.3   221  PHE221     -0.1241
    184  CA         5.2950   27.6040   20.9660 C.3   221  PHE221      0.1605
    185  C          4.3220   28.4600   20.1870 C.2   221  PHE221      0.2264
    186  O          3.8350   29.4640   20.7310 O.2   221  PHE221     -0.2867
    187  CB         4.5490   26.8550   22.0890 C.3   221  PHE221      0.0534
    188  CG         5.3050   25.6870   22.6830 C.ar  221  PHE221     -0.0203
    189  CD1        6.2090   25.8800   23.7280 C.ar  221  PHE221     -0.0042
    190  CD2        5.1070   24.3960   22.2100 C.ar  221  PHE221     -0.0042
    191  CE1        6.9170   24.7920   24.2750 C.ar  221  PHE221     -0.0003
    192  CE2        5.8120   23.3100   22.7590 C.ar  221  PHE221     -0.0003
    193  CZ         6.7170   23.5190   23.7860 C.ar  221  PHE221     -0.0000
    194  N         -0.1360   25.1220   18.6970 N.3   225  LEU225     -0.1245
    195  CA         0.4150   24.1660   19.6670 C.3   225  LEU225      0.1561
    196  C          0.0090   24.5010   21.0720 C.2   225  LEU225      0.2260
    197  O         -0.3100   23.5930   21.8450 O.2   225  LEU225     -0.2867
    198  CB         1.9450   24.0260   19.6000 C.3   225  LEU225      0.0270
    199  CG         2.6220   23.3760   18.3820 C.3   225  LEU225      0.0019
    200  CD1        3.9160   22.6430   18.8060 C.3   225  LEU225      0.0001
    201  CD2        1.6830   22.5000   17.5530 C.3   225  LEU225      0.0001
@<TRIPOS>BOND
     1    94    93    2
     2    92    93    1
     3    92    95    1
     4    92    91    1
     5    96    95    1
     6    96    97    1
     7    97    98    1
     8    98    99    2
     9   100    99    1
    10    99   101    1
    11   113   112    2
    12   112   111    1
    13    86    85    2
    14   110   111    1
    15    46    44   am
    16    85    84    1
    17    31    30    1
    18   104   105    2
    19   104   103    1
    20   111   114    1
    21    43    44    1
    22    43    42    1
    23    83    84    1
    24    84    87    1
    25   102   103    1
    26    44    45    2
    27    41    40    2
    28    39    42    1
    29    39    38    1
    30    39    40    1
    31   103   106    1
    32    32    30    1
    33   114   115    1
    34    89    88    1
    35    30    29    1
    36    87    88    1
    37    88    90    1
    38    28    27    2
    39   106   107    1
    40    29    26    1
    41   115   117   ar
    42   115   116   ar
    43    72    71    2
    44    26    27    1
    45    26    25    1
    46   109   107    1
    47   117   119   ar
    48    80    79    2
    49    76    74    1
    50    27    33   am
    51   107   108    1
    52   116   118   ar
    53    79    78    1
    54    71    70    1
    55    71    77   am
    56    70    69    1
    57    70    73    1
    58   119   120   ar
    59   146   145    2
    60    36    35    2
    61    33    34    1
    62   118   120   ar
    63    74    73    1
    64    74    75    1
    65    77    78    1
    66    78    81    1
    67    35    34    1
    68    34    37    1
    69   148   149    1
    70   148   147    1
    71   150   149    1
    72   145   144    1
    73    16    14    1
    74    12    11    2
    75    81    82    1
    76    10     9    1
    77    10    11    1
    78    10    13    1
    79   147   144    1
    80    50    49    2
    81   144   143    1
    82    14    13    1
    83    14    15    1
    84    11    17   am
    85    20    19    2
    86   140   139    2
    87    64    63    2
    88    19    18    1
    89    49    48    1
    90    49    61   am
    91    48    51    1
    92    48    47    1
    93    17    18    1
    94    63    62    1
    95   139   138    1
    96    51    52    1
    97    18    21    1
    98   141   142    1
    99   141   138    1
   100   138   137    1
   101   201   199    1
   102    61    62    1
   103    62    65    1
   104    57    59   ar
   105    57    54   ar
   106    59    60   ar
   107   199   200    1
   108   199   198    1
   109    52    54   ar
   110    52    53   ar
   111    21    22    1
   112     4     3    2
   113    54    56   ar
   114   194   195    1
   115   157   156    1
   116    67    66    1
   117    67    68    1
   118   132   131    2
   119   137   131   am
   120     1     2    1
   121     3     2    1
   122    65    66    1
   123   128   127    1
   124    23    22    2
   125     2     5    1
   126   131   130    1
   127   198   195    1
   128    22    24   am
   129    53    55   ar
   130   195   196    1
   131    60    58   ar
   132   158   156    1
   133    56    58   ar
   134    56    55   ar
   135   156   155    1
   136   185   186    2
   137   185   184    1
   138   124   123    2
   139   127   126    1
   140     8     6    1
   141     5     6    1
   142   184   183    1
   143   184   187    1
   144   130   133    1
   145   130   129    1
   146   155   152    1
   147   196   197    2
   148   125   126    1
   149   125   122    1
   150   123   122    1
   151   133   134    1
   152     6     7    1
   153   122   121    1
   154   187   188    1
   155   190   188   ar
   156   190   192   ar
   157   152   151    1
   158   152   153    1
   159   188   189   ar
   160   192   193   ar
   161   134   136    1
   162   134   135    1
   163   175   174    1
   164   153   154    2
   165   174   171    1
   166   189   191   ar
   167   193   191   ar
   168   168   166   ar
   169   168   169   ar
   170   166   164   ar
   171   169   167   ar
   172   171   170    1
   173   171   172    1
   174   164   163    1
   175   164   165   ar
   176   170   161   am
   177   163   160    1
   178   181   180    1
   179   167   165   ar
   180   172   173    2
   181   161   160    1
   182   161   162    2
   183   182   180    1
   184   180   177    1
   185   160   159    1
   186   177   178    1
   187   177   176    1
   188   178   179    2
