@<TRIPOS>MOLECULE
tmp/5l7iB01.pdb
 72 67 0 0 0
SMALL
GASTEIGER

@<TRIPOS>ATOM
      1  N          1.5010   33.0550  -73.1570 N.3   249  PRO249     -0.2102
      2  CA         0.8450   34.2800  -73.6560 C.3   249  PRO249      0.1504
      3  C          1.4680   34.8190  -74.9510 C.2   249  PRO249      0.2576
      4  O          2.6620   35.1300  -74.9950 O.2   249  PRO249     -0.2718
      5  CB         0.9970   35.2610  -72.4820 C.3   249  PRO249      0.0282
      6  CG         2.2300   34.8100  -71.7690 C.3   249  PRO249      0.0208
      7  CD         2.2260   33.3100  -71.8950 C.3   249  PRO249      0.0893
      8  N          0.6460   34.8970  -76.0150 N.am  250  THR250     -0.1953
      9  CA         1.0470   35.4130  -77.3300 C.3   250  THR250      0.1897
     10  C          0.4320   36.7940  -77.5620 C.2   250  THR250      0.2313
     11  O         -0.6340   37.1040  -77.0170 O.2   250  THR250     -0.2863
     12  CB         0.6630   34.4460  -78.4730 C.3   250  THR250      0.1794
     13  OG1       -0.6850   34.0010  -78.3180 O.3   250  THR250     -0.2208
     14  CG2        1.6000   33.2630  -78.5910 C.3   250  THR250      0.0378
     15  N         -6.5200   36.7860  -73.4300 N.3   255  LEU255     -0.1245
     16  CA        -5.8650   36.1900  -72.2580 C.3   255  LEU255      0.1561
     17  C         -6.5710   34.8950  -71.7940 C.2   255  LEU255      0.2260
     18  O         -5.9390   34.0760  -71.1300 O.2   255  LEU255     -0.2867
     19  CB        -5.8230   37.2250  -71.1120 C.3   255  LEU255      0.0270
     20  CG        -4.6590   37.1760  -70.1160 C.3   255  LEU255      0.0019
     21  CD1       -3.3110   37.4360  -70.7720 C.3   255  LEU255      0.0001
     22  CD2       -4.8430   38.2120  -69.0450 C.3   255  LEU255      0.0001
     23  N         -4.5330   31.5790  -70.9570 N.3   258  VAL258     -0.1231
     24  CA        -3.6540   31.6140  -69.7760 C.3   258  VAL258      0.1692
     25  C         -4.4740   31.8110  -68.4790 C.2   258  VAL258      0.2591
     26  O         -3.9860   31.4460  -67.4130 O.2   258  VAL258     -0.2718
     27  CB        -2.4760   32.6200  -69.8690 C.3   258  VAL258      0.0266
     28  CG1       -1.6590   32.4190  -71.1440 C.3   258  VAL258      0.0020
     29  CG2       -2.9390   34.0630  -69.7360 C.3   258  VAL258      0.0020
     30  N         -5.7120   32.3550  -68.5760 N.am  259  ILE259     -0.1980
     31  CA        -6.6210   32.5310  -67.4380 C.3   259  ILE259      0.1595
     32  C         -7.0120   31.1430  -66.9260 C.2   259  ILE259      0.2287
     33  O         -6.8090   30.8500  -65.7500 O.2   259  ILE259     -0.2864
     34  CB        -7.8720   33.3950  -67.8040 C.3   259  ILE259      0.0276
     35  CG1       -7.4960   34.8330  -68.2560 C.3   259  ILE259      0.0022
     36  CG2       -8.9220   33.4110  -66.6740 C.3   259  ILE259      0.0022
     37  CD1       -6.7910   35.7280  -67.2370 C.3   259  ILE259      0.0001
     38  N         -3.8880   29.1690  -65.5290 N.3   262  VAL262     -0.1231
     39  CA        -3.5320   29.6250  -64.1820 C.3   262  VAL262      0.1692
     40  C         -4.4970   28.9920  -63.1740 C.2   262  VAL262      0.2591
     41  O         -4.0380   28.3930  -62.2060 O.2   262  VAL262     -0.2718
     42  CB        -3.4850   31.1790  -64.0770 C.3   262  VAL262      0.0266
     43  CG1       -3.5210   31.6590  -62.6260 C.3   262  VAL262      0.0020
     44  CG2       -2.2550   31.7370  -64.7890 C.3   262  VAL262      0.0020
     45  N         -5.8180   29.0630  -63.4440 N.am  263  ILE263     -0.1980
     46  CA        -6.8640   28.4930  -62.5890 C.3   263  ILE263      0.1595
     47  C         -6.6440   26.9730  -62.4070 C.2   263  ILE263      0.2287
     48  O         -6.7010   26.5030  -61.2730 O.2   263  ILE263     -0.2864
     49  CB        -8.2880   28.8220  -63.1380 C.3   263  ILE263      0.0276
     50  CG1       -8.5820   30.3360  -63.0430 C.3   263  ILE263      0.0022
     51  CG2       -9.3810   28.0290  -62.4120 C.3   263  ILE263      0.0022
     52  CD1       -9.6700   30.8410  -64.0010 C.3   263  ILE263      0.0001
     53  N          4.2460   31.5590  -62.8010 N.3   316  VAL316     -0.1245
     54  CA         4.8720   32.7700  -63.3500 C.3   316  VAL316      0.1561
     55  C          5.9990   32.3520  -64.3190 C.2   316  VAL316      0.2260
     56  O          6.1210   32.9380  -65.3980 O.2   316  VAL316     -0.2867
     57  CB         5.3550   33.7190  -62.2120 C.3   316  VAL316      0.0252
     58  CG1        6.4300   34.6990  -62.6800 C.3   316  VAL316      0.0019
     59  CG2        4.1780   34.4740  -61.6000 C.3   316  VAL316      0.0019
     60  N          4.5110   31.1090  -67.6480 N.3   319  LEU319     -0.1231
     61  CA         4.0420   32.2900  -68.3820 C.3   319  LEU319      0.1693
     62  C          5.2180   33.0920  -68.9560 C.2   319  LEU319      0.2591
     63  O          5.0830   33.6660  -70.0370 O.2   319  LEU319     -0.2718
     64  CB         3.1620   33.1870  -67.4970 C.3   319  LEU319      0.0284
     65  CG         1.8350   32.5860  -67.0130 C.3   319  LEU319      0.0019
     66  CD1        1.2170   33.4500  -65.9400 C.3   319  LEU319      0.0001
     67  CD2        0.8540   32.3860  -68.1500 C.3   319  LEU319      0.0001
     68  N          6.3710   33.1060  -68.2530 N.am  320  ALA320     -0.1980
     69  CA         7.5870   33.7970  -68.6890 C.3   320  ALA320      0.1597
     70  C          8.2160   33.1010  -69.9070 C.2   320  ALA320      0.2287
     71  O          8.5740   33.7780  -70.8730 O.2   320  ALA320     -0.2864
     72  CB         8.5890   33.8740  -67.5450 C.3   320  ALA320      0.0319
@<TRIPOS>BOND
     1    14    12    1
     2    12    13    1
     3    12     9    1
     4    10     9    1
     5    10    11    2
     6     9     8    1
     7     8     3   am
     8     4     3    2
     9     3     2    1
    10     2     1    1
    11     2     5    1
    12    15    16    1
    13     1     7    1
    14     5     6    1
    15    16    17    1
    16    16    19    1
    17     7     6    1
    18    17    18    2
    19    28    27    1
    20    19    20    1
    21    23    24    1
    22    71    70    2
    23    21    20    1
    24    20    22    1
    25    63    62    2
    26    70    69    1
    27    27    24    1
    28    27    29    1
    29    24    25    1
    30    62    61    1
    31    62    68   am
    32    69    68    1
    33    69    72    1
    34    30    25   am
    35    30    31    1
    36    25    26    2
    37    61    60    1
    38    61    64    1
    39    35    34    1
    40    35    37    1
    41    67    65    1
    42    34    31    1
    43    34    36    1
    44    64    65    1
    45    31    32    1
    46    65    66    1
    47    32    33    2
    48    38    39    1
    49    56    55    2
    50    44    42    1
    51    55    54    1
    52    39    42    1
    53    39    40    1
    54    42    43    1
    55    52    50    1
    56    45    40   am
    57    45    46    1
    58    54    53    1
    59    54    57    1
    60    40    41    2
    61    49    50    1
    62    49    46    1
    63    49    51    1
    64    58    57    1
    65    46    47    1
    66    47    48    2
    67    57    59    1
