@<TRIPOS>MOLECULE
tmp/5l7iA01.pdb
 238 227 0 0 0
SMALL
GASTEIGER

@<TRIPOS>ATOM
      1  N          1.2550   52.1870  -30.2060 N.3   163  ASN163     -0.1240
      2  CA         2.1900   53.3110  -30.0800 C.3   163  ASN163      0.1653
      3  C          1.7760   54.2030  -28.8880 C.2   163  ASN163      0.2266
      4  O          0.6600   54.7290  -28.8830 O.2   163  ASN163     -0.2867
      5  CB         2.2530   54.1180  -31.3900 C.3   163  ASN163      0.1155
      6  CG         3.5250   54.9140  -31.5990 C.2   163  ASN163      0.2627
      7  OD1        4.0900   55.5130  -30.6760 O.2   163  ASN163     -0.2716
      8  ND2        3.9800   54.9800  -32.8400 N.am  163  ASN163     -0.0877
      9  N          2.8110   57.1260  -27.9630 N.3   165  LEU165     -0.1231
     10  CA         2.8400   58.5530  -28.2840 C.3   165  LEU165      0.1693
     11  C          1.5180   59.0410  -28.9120 C.2   165  LEU165      0.2592
     12  O          1.3030   60.2510  -28.9910 O.2   165  LEU165     -0.2718
     13  CB         4.0210   58.8870  -29.2170 C.3   165  LEU165      0.0284
     14  CG         5.4430   58.5520  -28.7240 C.3   165  LEU165      0.0019
     15  CD1        6.4550   58.8770  -29.7800 C.3   165  LEU165      0.0001
     16  CD2        5.8040   59.3130  -27.4560 C.3   165  LEU165      0.0001
     17  N          0.6360   58.1120  -29.3330 N.am  166  PHE166     -0.1976
     18  CA        -0.6530   58.4410  -29.9510 C.3   166  PHE166      0.1639
     19  C         -1.8080   57.7570  -29.2090 C.2   166  PHE166      0.2290
     20  O         -1.6770   56.6050  -28.7860 O.2   166  PHE166     -0.2864
     21  CB        -0.6500   58.0660  -31.4450 C.3   166  PHE166      0.0560
     22  CG         0.4890   58.6820  -32.2270 C.ar  166  PHE166     -0.0200
     23  CD1        0.4010   59.9840  -32.7080 C.ar  166  PHE166     -0.0042
     24  CD2        1.6560   57.9680  -32.4660 C.ar  166  PHE166     -0.0042
     25  CE1        1.4600   60.5580  -33.4170 C.ar  166  PHE166     -0.0003
     26  CE2        2.7150   58.5430  -33.1750 C.ar  166  PHE166     -0.0003
     27  CZ         2.6090   59.8340  -33.6480 C.ar  166  PHE166     -0.0000
     28  N         -6.7760   57.7500  -37.9360 N.3   174  MET174     -0.1245
     29  CA        -5.8380   57.4070  -39.0070 C.3   174  MET174      0.1570
     30  C         -6.3200   56.1500  -39.7470 C.2   174  MET174      0.2261
     31  O         -6.2360   56.1040  -40.9760 O.2   174  MET174     -0.2867
     32  CB        -4.4060   57.2260  -38.4630 C.3   174  MET174      0.0387
     33  CG        -3.3690   56.8230  -39.5230 C.3   174  MET174      0.0595
     34  SD        -3.0640   58.0330  -40.8370 S.3   174  MET174     -0.1393
     35  CE        -1.8570   59.0440  -40.0530 C.3   174  MET174      0.0692
     36  N         -7.1770   55.5200  -43.8280 N.3   178  ILE178     -0.1245
     37  CA        -6.5740   54.4220  -44.5970 C.3   178  ILE178      0.1561
     38  C         -7.6810   53.5610  -45.2300 C.2   178  ILE178      0.2260
     39  O         -7.5620   53.2060  -46.4020 O.2   178  ILE178     -0.2867
     40  CB        -5.5880   53.5800  -43.7260 C.3   178  ILE178      0.0252
     41  CG1       -4.3840   54.4400  -43.2690 C.3   178  ILE178      0.0019
     42  CG2       -5.0970   52.3140  -44.4660 C.3   178  ILE178      0.0019
     43  CD1       -3.6310   53.9300  -42.0220 C.3   178  ILE178      0.0001
     44  N         -2.2870   47.2660  -47.6450 N.3   225  TRP225     -0.1241
     45  CA        -2.6990   48.3730  -46.7820 C.3   225  TRP225      0.1605
     46  C         -4.0560   48.0950  -46.1290 C.2   225  TRP225      0.2264
     47  O         -4.2570   48.4800  -44.9770 O.2   225  TRP225     -0.2867
     48  CB        -2.7500   49.6920  -47.5690 C.3   225  TRP225      0.0550
     49  CG        -1.4580   50.4530  -47.5710 C.ar  225  TRP225      0.0003
     50  CD1       -0.5720   50.5660  -48.6020 C.ar  225  TRP225      0.0946
     51  CD2       -0.9120   51.2110  -46.4870 C.ar  225  TRP225      0.0152
     52  NE1        0.4910   51.3520  -48.2300 N.ar  225  TRP225     -0.2442
     53  CE2        0.3100   51.7610  -46.9340 C.ar  225  TRP225      0.0810
     54  CE3       -1.3410   51.4880  -45.1750 C.ar  225  TRP225      0.0012
     55  CZ2        1.1130   52.5700  -46.1160 C.ar  225  TRP225      0.0191
     56  CZ3       -0.5500   52.2970  -44.3680 C.ar  225  TRP225      0.0001
     57  CH2        0.6670   52.8180  -44.8360 C.ar  225  TRP225      0.0015
     58  N          4.1220   49.3900  -37.1070 N.3   319  ASP319     -0.1239
     59  CA         3.5200   50.5270  -36.4080 C.3   319  ASP319      0.1674
     60  C          2.0020   50.3550  -36.3520 C.2   319  ASP319      0.2266
     61  O          1.3690   50.0790  -37.3740 O.2   319  ASP319     -0.2867
     62  CB         3.9030   51.8620  -37.0690 C.3   319  ASP319      0.1410
     63  CG         3.7540   53.0650  -36.1550 C.2   319  ASP319      0.3668
     64  OD1        4.4550   53.1180  -35.1190 O.co2 319  ASP319     -0.2456
     65  OD2        2.9740   53.9750  -36.4950 O.co2 319  ASP319     -0.2456
     66  N         -0.2790   52.6000  -35.7650 N.3   321  VAL321     -0.1231
     67  CA        -0.9470   53.7320  -36.4150 C.3   321  VAL321      0.1692
     68  C         -1.1440   53.4230  -37.9150 C.2   321  VAL321      0.2592
     69  O         -2.2590   53.5650  -38.4170 O.2   321  VAL321     -0.2718
     70  CB        -0.1760   55.0610  -36.1900 C.3   321  VAL321      0.0266
     71  CG1       -0.9500   56.2460  -36.7520 C.3   321  VAL321      0.0020
     72  CG2        0.1350   55.2800  -34.7090 C.3   321  VAL321      0.0020
     73  N         -0.0710   52.9850  -38.6130 N.am  322  SER322     -0.1952
     74  CA        -0.1160   52.6160  -40.0310 C.3   322  SER322      0.1924
     75  C         -0.8750   51.3010  -40.2410 C.2   322  SER322      0.2314
     76  O         -1.4850   51.1070  -41.2920 O.2   322  SER322     -0.2863
     77  CB         1.2950   52.4990  -40.6090 C.3   322  SER322      0.2116
     78  OG         1.9960   51.3630  -40.1310 O.3   322  SER322     -0.2180
     79  N          0.4380   48.4560  -40.6990 N.3   324  ILE324     -0.1245
     80  CA         1.2210   47.6190  -41.6120 C.3   324  ILE324      0.1561
     81  C          2.6820   47.5430  -41.1460 C.2   324  ILE324      0.2260
     82  O          3.1190   48.3530  -40.3220 O.2   324  ILE324     -0.2867
     83  CB         1.1290   48.0990  -43.1040 C.3   324  ILE324      0.0252
     84  CG1        1.6010   49.5600  -43.2900 C.3   324  ILE324      0.0019
     85  CG2       -0.2620   47.8760  -43.7010 C.3   324  ILE324      0.0019
     86  CD1        2.8770   49.7060  -44.0760 C.3   324  ILE324      0.0001
     87  N          6.7460   47.7390  -42.1540 N.3   326  PHE326     -0.1241
     88  CA         7.5680   48.5030  -43.0910 C.3   326  PHE326      0.1605
     89  C          9.0460   48.4810  -42.6780 C.2   326  PHE326      0.2264
     90  O          9.3830   47.9590  -41.6130 O.2   326  PHE326     -0.2867
     91  CB         7.0340   49.9460  -43.1690 C.3   326  PHE326      0.0534
     92  CG         7.3860   50.7400  -44.4040 C.ar  326  PHE326     -0.0203
     93  CD1        6.8630   50.3960  -45.6460 C.ar  326  PHE326     -0.0042
     94  CD2        8.1890   51.8700  -44.3160 C.ar  326  PHE326     -0.0042
     95  CE1        7.1760   51.1420  -46.7830 C.ar  326  PHE326     -0.0003
     96  CE2        8.4930   52.6200  -45.4520 C.ar  326  PHE326     -0.0003
     97  CZ         7.9860   52.2510  -46.6790 C.ar  326  PHE326     -0.0000
     98  N         11.1800   51.5450  -39.1350 N.3   329  TYR329     -0.1227
     99  CA        10.2790   52.2910  -38.2470 C.3   329  TYR329      0.1736
    100  C         11.0270   52.6650  -36.9620 C.2   329  TYR329      0.2595
    101  O         10.7510   53.7090  -36.3670 O.2   329  TYR329     -0.2718
    102  CB         9.0020   51.4970  -37.9190 C.3   329  TYR329      0.0548
    103  CG         7.8360   51.7130  -38.8620 C.ar  329  TYR329     -0.0200
    104  CD1        7.5270   52.9830  -39.3450 C.ar  329  TYR329     -0.0009
    105  CD2        6.9770   50.6660  -39.1870 C.ar  329  TYR329     -0.0009
    106  CE1        6.4420   53.1890  -40.1940 C.ar  329  TYR329      0.0417
    107  CE2        5.8720   50.8650  -40.0130 C.ar  329  TYR329      0.0417
    108  CZ         5.6140   52.1270  -40.5250 C.ar  329  TYR329      0.1957
    109  OH         4.5370   52.3290  -41.3560 O.3   329  TYR329     -0.2866
    110  N         11.9830   51.8060  -36.5520 N.am  330  LYS330     -0.1980
    111  CA        12.8360   51.9910  -35.3820 C.3   330  LYS330      0.1596
    112  C         14.1390   52.6850  -35.8110 C.2   330  LYS330      0.2287
    113  O         14.3980   53.8060  -35.3740 O.2   330  LYS330     -0.2864
    114  CB        13.1090   50.6300  -34.6930 C.3   330  LYS330      0.0298
    115  CG        14.0660   50.6720  -33.4920 C.3   330  LYS330      0.0038
    116  CD        13.4610   51.3150  -32.2310 C.3   330  LYS330      0.0206
    117  CE        14.4860   51.5150  -31.1380 C.3   330  LYS330      0.1093
    118  NZ        15.4850   52.5610  -31.4860 N.3   330  LYS330     -0.1314
    119  N         15.5760   53.0770  -43.2400 N.3   335  ARG335     -0.1245
    120  CA        14.3910   53.5700  -43.9440 C.3   335  ARG335      0.1563
    121  C         14.8240   54.5000  -45.0760 C.2   335  ARG335      0.2260
    122  O         14.3510   54.3310  -46.1900 O.2   335  ARG335     -0.2867
    123  CB        13.4020   54.2820  -43.0010 C.3   335  ARG335      0.0307
    124  CG        12.0800   54.6760  -43.6710 C.3   335  ARG335      0.0489
    125  CD        11.2990   55.6760  -42.8450 C.3   335  ARG335      0.2205
    126  NE         9.9740   55.9360  -43.4110 N.pl3 335  ARG335     -0.0865
    127  CZ         9.0320   56.6610  -42.8160 C.cat 335  ARG335      0.5346
    128  NH1        9.2580   57.2100  -41.6290 N.pl3 335  ARG335      0.1354
    129  NH2        7.8560   56.8410  -43.4010 N.pl3 335  ARG335      0.1354
    130  N          8.5000   61.4940  -46.5550 N.3   493  HIS493     -0.1241
    131  CA         9.4590   60.4970  -46.0760 C.3   493  HIS493      0.1621
    132  C         10.7570   61.1700  -45.6130 C.2   493  HIS493      0.2264
    133  O         11.4240   60.6470  -44.7180 O.2   493  HIS493     -0.2867
    134  CB         9.7580   59.4440  -47.1580 C.3   493  HIS493      0.0745
    135  CG         8.7390   58.3450  -47.2480 C.ar  493  HIS493      0.0817
    136  ND1        8.6400   57.3700  -46.2700 N.ar  493  HIS493     -0.2268
    137  CD2        7.8370   58.0760  -48.2180 C.ar  493  HIS493      0.1154
    138  CE1        7.6690   56.5590  -46.6630 C.ar  493  HIS493      0.1986
    139  NE2        7.1590   56.9460  -47.8310 N.ar  493  HIS493     -0.2212
    140  N         10.2070   62.9740  -42.0410 N.3   496  ASP496     -0.1239
    141  CA        10.2540   61.9570  -41.0050 C.3   496  ASP496      0.1674
    142  C         11.6930   61.6310  -40.6440 C.2   496  ASP496      0.2266
    143  O         12.0430   61.7420  -39.4720 O.2   496  ASP496     -0.2867
    144  CB         9.4900   60.6970  -41.4300 C.3   496  ASP496      0.1410
    145  CG         7.9960   60.8930  -41.5760 C.2   496  ASP496      0.3668
    146  OD1        7.4050   61.6270  -40.7440 O.co2 496  ASP496     -0.2456
    147  OD2        7.4140   60.2970  -42.5040 O.co2 496  ASP496     -0.2456
    148  N         13.5440   62.2170  -37.1230 N.3   500  GLN500     -0.1245
    149  CA        13.5600   60.8930  -36.4750 C.3   500  GLN500      0.1566
    150  C         14.6450   60.7770  -35.3970 C.2   500  GLN500      0.2260
    151  O         14.5140   59.9340  -34.5110 O.2   500  GLN500     -0.2867
    152  CB        13.7170   59.7640  -37.4970 C.3   500  GLN500      0.0367
    153  CG        12.4100   59.0130  -37.7670 C.3   500  GLN500      0.0905
    154  CD        12.3830   57.6120  -37.2100 C.2   500  GLN500      0.2608
    155  OE1       12.8230   57.3440  -36.0840 O.2   500  GLN500     -0.2717
    156  NE2       11.8440   56.6860  -37.9890 N.am  500  GLN500     -0.0878
    157  N         12.7260   62.4040  -32.4720 N.3   503  TRP503     -0.1227
    158  CA        11.5320   61.6140  -32.1540 C.3   503  TRP503      0.1737
    159  C         11.9130   60.3140  -31.4320 C.2   503  TRP503      0.2595
    160  O         11.1310   59.8360  -30.6090 O.2   503  TRP503     -0.2718
    161  CB        10.6870   61.3310  -33.4050 C.3   503  TRP503      0.0564
    162  CG         9.9880   62.5410  -33.9610 C.ar  503  TRP503      0.0003
    163  CD1        9.5490   63.6310  -33.2660 C.ar  503  TRP503      0.0946
    164  CD2        9.5990   62.7520  -35.3250 C.ar  503  TRP503      0.0152
    165  NE1        8.9480   64.5280  -34.1190 N.ar  503  TRP503     -0.2442
    166  CE2        8.9630   64.0130  -35.3900 C.ar  503  TRP503      0.0810
    167  CE3        9.7460   62.0080  -36.5070 C.ar  503  TRP503      0.0012
    168  CZ2        8.4650   64.5400  -36.5860 C.ar  503  TRP503      0.0191
    169  CZ3        9.2440   62.5260  -37.6870 C.ar  503  TRP503      0.0001
    170  CH2        8.6160   63.7790  -37.7230 C.ar  503  TRP503      0.0015
    171  N         13.1250   59.7740  -31.7090 N.am  504  GLU504     -0.1979
    172  CA        13.6660   58.5980  -31.0300 C.3   504  GLU504      0.1602
    173  C         13.9320   58.9500  -29.5770 C.2   504  GLU504      0.2287
    174  O         13.5420   58.1950  -28.6900 O.2   504  GLU504     -0.2864
    175  CB        14.9620   58.1140  -31.7000 C.3   504  GLU504      0.0415
    176  CG        14.7730   57.0800  -32.7900 C.3   504  GLU504      0.1163
    177  CD        16.0710   56.5390  -33.3650 C.2   504  GLU504      0.3649
    178  OE1       16.9980   57.3390  -33.6300 O.co2 504  GLU504     -0.2457
    179  OE2       16.1540   55.3080  -33.5720 O.co2 504  GLU504     -0.2457
    180  N         10.5770   59.5300  -27.6600 N.3   507  PHE507     -0.1241
    181  CA         9.8810   58.2490  -27.4640 C.3   507  PHE507      0.1605
    182  C         10.5390   57.4730  -26.3210 C.2   507  PHE507      0.2264
    183  O          9.8360   56.9280  -25.4710 O.2   507  PHE507     -0.2867
    184  CB         9.8650   57.4130  -28.7630 C.3   507  PHE507      0.0534
    185  CG         9.3550   55.9900  -28.6320 C.ar  507  PHE507     -0.0203
    186  CD1        7.9910   55.7230  -28.5710 C.ar  507  PHE507     -0.0042
    187  CD2       10.2390   54.9160  -28.6100 C.ar  507  PHE507     -0.0042
    188  CE1        7.5220   54.4080  -28.4630 C.ar  507  PHE507     -0.0003
    189  CE2        9.7680   53.6010  -28.4980 C.ar  507  PHE507     -0.0003
    190  CZ         8.4120   53.3550  -28.4240 C.ar  507  PHE507     -0.0000
    191  N          5.8720   62.3410  -34.2350 N.3   526  PRO526     -0.2116
    192  CA         5.6800   62.5800  -35.6760 C.3   526  PRO526      0.1372
    193  C          4.2690   63.0640  -36.0040 C.2   526  PRO526      0.2244
    194  O          3.2990   62.5940  -35.4010 O.2   526  PRO526     -0.2868
    195  CB         5.9710   61.2140  -36.3120 C.3   526  PRO526      0.0268
    196  CG         6.6840   60.4280  -35.2580 C.3   526  PRO526      0.0207
    197  CD         6.1100   60.9080  -33.9720 C.3   526  PRO526      0.0892
    198  N          0.8990   63.2780  -37.7610 N.3   528  LEU528     -0.1245
    199  CA         0.0050   62.3320  -38.4330 C.3   528  LEU528      0.1561
    200  C         -0.5940   62.9100  -39.7060 C.2   528  LEU528      0.2260
    201  O         -0.8190   62.1650  -40.6590 O.2   528  LEU528     -0.2867
    202  CB        -1.1340   61.8840  -37.4980 C.3   528  LEU528      0.0270
    203  CG        -0.7570   61.0350  -36.2850 C.3   528  LEU528      0.0019
    204  CD1       -1.9790   60.7190  -35.4490 C.3   528  LEU528      0.0001
    205  CD2       -0.0660   59.7490  -36.7030 C.3   528  LEU528      0.0001
    206  N          1.6300   62.3520  -42.4780 N.3   531  GLU531     -0.1245
    207  CA         1.5140   60.9430  -42.8620 C.3   531  GLU531      0.1567
    208  C          0.2580   60.7440  -43.7080 C.2   531  GLU531      0.2260
    209  O          0.2710   59.9290  -44.6300 O.2   531  GLU531     -0.2867
    210  CB         1.5100   60.0220  -41.6270 C.3   531  GLU531      0.0388
    211  CG         2.7610   60.0950  -40.7630 C.3   531  GLU531      0.1160
    212  CD         4.0770   59.9150  -41.4980 C.2   531  GLU531      0.3649
    213  OE1        4.4540   58.7550  -41.7760 O.co2 531  GLU531     -0.2457
    214  OE2        4.7220   60.9400  -41.8130 O.co2 531  GLU531     -0.2457
    215  N          1.1290   61.9520  -47.1170 N.3   534  ASN534     -0.1225
    216  CA         1.9040   60.9020  -47.7890 C.3   534  ASN534      0.1785
    217  C          0.9710   59.8590  -48.4040 C.2   534  ASN534      0.2597
    218  O          1.1930   59.4400  -49.5400 O.2   534  ASN534     -0.2718
    219  CB         2.8800   60.2280  -46.8210 C.3   534  ASN534      0.1169
    220  CG         4.0610   59.5460  -47.4860 C.2   534  ASN534      0.2627
    221  OD1        4.0430   59.1760  -48.6690 O.2   534  ASN534     -0.2716
    222  ND2        5.1260   59.3600  -46.7240 N.am  534  ASN534     -0.0877
    223  N         -0.0790   59.4590  -47.6560 N.am  535  LEU535     -0.1980
    224  CA        -1.0860   58.4910  -48.1000 C.3   535  LEU535      0.1596
    225  C         -1.9790   59.0880  -49.1890 C.2   535  LEU535      0.2287
    226  O         -2.4650   58.3460  -50.0420 O.2   535  LEU535     -0.2864
    227  CB        -1.9410   57.9920  -46.9260 C.3   535  LEU535      0.0297
    228  CG        -1.2380   57.1300  -45.8770 C.3   535  LEU535      0.0022
    229  CD1       -2.0400   57.0950  -44.6020 C.3   535  LEU535      0.0001
    230  CD2       -0.9850   55.7180  -46.3880 C.3   535  LEU535      0.0001
    231  N          0.2710   58.7030  -52.2080 N.3   538  MET538     -0.1245
    232  CA         0.4000   57.2860  -52.5680 C.3   538  MET538      0.1570
    233  C         -0.8810   56.7740  -53.2310 C.2   538  MET538      0.2261
    234  O         -0.8370   56.3710  -54.3960 O.2   538  MET538     -0.2867
    235  CB         0.7520   56.4250  -51.3410 C.3   538  MET538      0.0387
    236  CG         2.2130   56.4790  -50.9690 C.3   538  MET538      0.0595
    237  SD         2.5520   55.6230  -49.4120 S.3   538  MET538     -0.1393
    238  CE         4.3000   55.8440  -49.3110 C.3   538  MET538      0.0692
@<TRIPOS>BOND
     1   234   233    2
     2   233   232    1
     3   232   231    1
     4   232   235    1
     5   235   236    1
     6   236   237    1
     7   226   225    2
     8   218   217    2
     9   237   238    1
    10   225   224    1
    11   221   220    2
    12    50    52   ar
    13    50    49   ar
    14   217   216    1
    15   217   223   am
    16    52    53   ar
    17   137   139   ar
    18   137   135   ar
    19   224   223    1
    20   224   227    1
    21   139   138   ar
    22   216   215    1
    23   216   219    1
    24    44    45    1
    25    49    48    1
    26    49    51   ar
    27    48    45    1
    28   220   219    1
    29   220   222   am
    30   135   134    1
    31   135   136   ar
    32   134   131    1
    33    53    51   ar
    34    53    55   ar
    35   227   228    1
    36    95    97   ar
    37    95    93   ar
    38    45    46    1
    39    97    96   ar
    40   138   136   ar
    41   130   131    1
    42    51    54   ar
    43    39    38    2
    44   230   228    1
    45   122   121    2
    46    46    47    2
    47    55    57   ar
    48   131   132    1
    49   228   229    1
    50    93    92   ar
    51   132   133    2
    52    96    94   ar
    53    38    37    1
    54    54    56   ar
    55   121   120    1
    56    57    56   ar
    57   209   208    2
    58    37    36    1
    59    37    40    1
    60    42    40    1
    61    92    94   ar
    62    92    91    1
    63    86    84    1
    64   120   119    1
    65   120   123    1
    66    40    41    1
    67   208   207    1
    68    85    83    1
    69   124   123    1
    70   124   125    1
    71   126   125    1
    72   126   127    2
    73   129   127    1
    74    84    83    1
    75    41    43    1
    76    91    88    1
    77    83    80    1
    78    88    89    1
    79    88    87    1
    80   207   206    1
    81   207   210    1
    82   127   128    1
    83    89    90    2
    84   147   145   ar
    85   140   141    1
    86   214   212   ar
    87   213   212   ar
    88   210   211    1
    89    80    81    1
    90    80    79    1
    91   145   144    1
    92   145   146   ar
    93   212   211    1
    94   144   141    1
    95   109   108    1
    96    76    75    2
    97    81    82    2
    98   141   142    1
    99    31    30    2
   100    34    35    1
   101    34    33    1
   102   201   200    2
   103   142   143    2
   104    77    78    1
   105    77    74    1
   106   108   106   ar
   107   108   107   ar
   108    75    74    1
   109   106   104   ar
   110    74    73    1
   111   107   105   ar
   112    30    29    1
   113   200   199    1
   114    33    32    1
   115   104   103   ar
   116   105   103   ar
   117    98    99    1
   118    29    32    1
   119    29    28    1
   120   103   102    1
   121    73    68   am
   122   199   198    1
   123   199   202    1
   124    69    68    2
   125    99   102    1
   126    99   100    1
   127   156   154   am
   128    68    67    1
   129   153   152    1
   130   153   154    1
   131   170   169   ar
   132   170   168   ar
   133   169   167   ar
   134   202   203    1
   135   152   149    1
   136    61    60    2
   137   154   155    2
   138   148   149    1
   139    58    59    1
   140    62    59    1
   141    62    63    1
   142   100   110   am
   143   100   101    2
   144    71    70    1
   145   205   203    1
   146   168   166   ar
   147   110   111    1
   148   167   164   ar
   149    65    63   ar
   150   149   150    1
   151    67    70    1
   152    67    66    1
   153    59    60    1
   154   195   192    1
   155   195   196    1
   156   203   204    1
   157    70    72    1
   158    63    64   ar
   159   193   192    1
   160   193   194    2
   161   112   111    1
   162   112   113    2
   163   192   191    1
   164   150   151    2
   165   166   164   ar
   166   166   165   ar
   167   111   114    1
   168   164   162   ar
   169   196   197    1
   170   114   115    1
   171   191   197    1
   172   165   163   ar
   173   162   161    1
   174   162   163   ar
   175    27    25   ar
   176    27    26   ar
   177   178   177   ar
   178   179   177   ar
   179   115   116    1
   180    25    23   ar
   181   161   158    1
   182   177   176    1
   183    26    24   ar
   184     8     6   am
   185   176   175    1
   186    23    22   ar
   187   157   158    1
   188    24    22   ar
   189   116   117    1
   190    22    21    1
   191   158   159    1
   192   171   159   am
   193   171   172    1
   194   175   172    1
   195     6     5    1
   196     6     7    2
   197   118   117    1
   198    21    18    1
   199   159   160    2
   200     5     2    1
   201   172   173    1
   202     1     2    1
   203     2     3    1
   204    18    17    1
   205    18    19    1
   206    15    14    1
   207   173   174    2
   208    17    11   am
   209    13    14    1
   210    13    10    1
   211    19    20    2
   212    12    11    2
   213    11    10    1
   214     3     4    2
   215   184   185    1
   216   184   181    1
   217    14    16    1
   218   185   187   ar
   219   185   186   ar
   220   187   189   ar
   221   186   188   ar
   222   189   190   ar
   223   188   190   ar
   224    10     9    1
   225   180   181    1
   226   181   182    1
   227   182   183    2
