@<TRIPOS>MOLECULE
tmp/5l7pB00.pdb
 183 173 0 0 0
SMALL
GASTEIGER

@<TRIPOS>ATOM
      1  N        -22.8570  -10.5200   45.5770 N.3    33  ILE33      -0.1231
      2  CA       -23.7010  -11.3220   46.4530 C.3    33  ILE33       0.1692
      3  C        -23.9260  -12.6540   45.7520 C.2    33  ILE33       0.2593
      4  O        -24.0020  -12.7150   44.5250 O.2    33  ILE33      -0.2718
      5  CB       -25.0630  -10.6680   46.7660 C.3    33  ILE33       0.0266
      6  CG1      -25.8490  -11.5440   47.7360 C.3    33  ILE33       0.0019
      7  CG2      -25.8390  -10.4460   45.5150 C.3    33  ILE33       0.0020
      8  CD1      -26.9350  -10.7360   48.5100 C.3    33  ILE33       0.0001
      9  N        -24.0500  -13.7130   46.5370 N.am   34  GLY34      -0.1942
     10  CA       -24.3940  -15.0290   46.0060 C.3    34  GLY34       0.2014
     11  C        -25.7360  -15.5490   46.5220 C.2    34  GLY34       0.2639
     12  O        -26.0580  -15.3740   47.6880 O.2    34  GLY34      -0.2714
     13  N        -26.4500  -16.2570   45.6630 N.am   35  PHE35      -0.1959
     14  CA       -27.6940  -16.9030   46.0590 C.3    35  PHE35       0.1771
     15  C        -27.6910  -18.3590   45.6230 C.2    35  PHE35       0.2619
     16  O        -27.5800  -18.6220   44.4270 O.2    35  PHE35      -0.2715
     17  CB       -28.9000  -16.2360   45.3920 C.3    35  PHE35       0.0574
     18  CG       -29.0900  -14.7820   45.7120 C.ar   35  PHE35      -0.0200
     19  CD1      -29.7690  -14.3930   46.8700 C.ar   35  PHE35      -0.0042
     20  CD2      -28.6690  -13.8050   44.8240 C.ar   35  PHE35      -0.0042
     21  CE1      -29.9630  -13.0450   47.1520 C.ar   35  PHE35      -0.0003
     22  CE2      -28.8580  -12.4630   45.1120 C.ar   35  PHE35      -0.0003
     23  CZ       -29.5180  -12.0900   46.2590 C.ar   35  PHE35      -0.0000
     24  N        -27.9280  -19.3000   46.5600 N.am   36  GLU36      -0.1977
     25  CA       -28.2980  -20.6520   46.1370 C.3    36  GLU36       0.1602
     26  C        -29.5670  -20.5630   45.3030 C.2    36  GLU36       0.2287
     27  O        -30.5520  -19.9820   45.7660 O.2    36  GLU36      -0.2864
     28  CB       -28.5400  -21.5800   47.3300 C.3    36  GLU36       0.0415
     29  CG       -27.2750  -21.8580   48.1500 C.3    36  GLU36       0.1163
     30  CD       -27.5170  -22.8550   49.2630 C.2    36  GLU36       0.3649
     31  OE1      -28.3530  -23.7580   49.0730 O.co2  36  GLU36      -0.2457
     32  OE2      -26.8880  -22.7410   50.3180 O.co2  36  GLU36      -0.2457
     33  N        -23.7590  -13.9080   41.9770 N.3    65  ILE65      -0.1245
     34  CA       -23.3770  -15.3080   41.8040 C.3    65  ILE65       0.1561
     35  C        -24.6190  -16.1810   41.9010 C.2    65  ILE65       0.2260
     36  O        -25.2660  -16.2380   42.9500 O.2    65  ILE65      -0.2867
     37  CB       -22.3360  -15.7290   42.8460 C.3    65  ILE65       0.0252
     38  CG1      -21.0890  -14.8560   42.6750 C.3    65  ILE65       0.0019
     39  CG2      -22.0310  -17.2590   42.7260 C.3    65  ILE65       0.0019
     40  CD1      -20.1620  -14.9010   43.8460 C.3    65  ILE65       0.0001
     41  N        -25.4240  -19.4400   42.6830 N.3    67  ALA67      -0.1245
     42  CA       -24.4740  -20.3250   43.3730 C.3    67  ALA67       0.1562
     43  C        -24.8870  -21.7890   43.2230 C.2    67  ALA67       0.2260
     44  O        -25.2560  -22.4720   44.1850 O.2    67  ALA67      -0.2867
     45  CB       -24.3330  -19.9180   44.8340 C.3    67  ALA67       0.0290
     46  N        -23.0270  -24.4870   42.6090 N.3    69  LEU69      -0.1231
     47  CA       -22.2280  -25.4590   43.3440 C.3    69  LEU69       0.1693
     48  C        -22.4830  -25.3830   44.8500 C.2    69  LEU69       0.2591
     49  O        -22.5040  -26.4090   45.5300 O.2    69  LEU69      -0.2718
     50  CB       -20.7660  -25.2080   43.0020 C.3    69  LEU69       0.0284
     51  CG       -19.7180  -26.2930   43.0100 C.3    69  LEU69       0.0019
     52  CD1      -20.2810  -27.6030   42.5300 C.3    69  LEU69       0.0001
     53  CD2      -18.5950  -25.8020   42.0890 C.3    69  LEU69       0.0001
     54  N        -22.6960  -24.1850   45.4030 N.am   70  ALA70      -0.1980
     55  CA       -23.0970  -24.1030   46.8050 C.3    70  ALA70       0.1597
     56  C        -24.4010  -24.8400   47.0390 C.2    70  ALA70       0.2287
     57  O        -24.5360  -25.5860   48.0050 O.2    70  ALA70      -0.2864
     58  CB       -23.2460  -22.6420   47.2380 C.3    70  ALA70       0.0319
     59  N        -23.6610  -28.5660   47.0290 N.3    73  LEU73      -0.1245
     60  CA       -23.0510  -28.9850   48.2910 C.3    73  LEU73       0.1561
     61  C        -24.0470  -28.9570   49.4350 C.2    73  LEU73       0.2260
     62  O        -23.9150  -29.7360   50.3900 O.2    73  LEU73      -0.2867
     63  CB       -21.8580  -28.1000   48.6330 C.3    73  LEU73       0.0270
     64  CG       -20.6230  -28.2930   47.7610 C.3    73  LEU73       0.0019
     65  CD1      -19.6410  -27.1510   47.9680 C.3    73  LEU73       0.0001
     66  CD2      -19.9220  -29.6050   48.0430 C.3    73  LEU73       0.0001
     67  N        -21.5960  -20.0160   39.9360 N.3   105  GLY105     -0.1225
     68  CA       -20.4330  -20.2940   40.7570 C.3   105  GLY105      0.1811
     69  C        -19.4780  -21.2350   40.0600 C.2   105  GLY105      0.2280
     70  O        -18.2650  -21.0190   40.0600 O.2   105  GLY105     -0.2866
     71  N        -16.3230  -20.3620   37.8440 N.3   108  PHE108     -0.1227
     72  CA       -15.0230  -20.0390   38.4000 C.3   108  PHE108      0.1736
     73  C        -14.6210  -20.9110   39.5790 C.2   108  PHE108      0.2595
     74  O        -13.4230  -21.0840   39.7990 O.2   108  PHE108     -0.2718
     75  CB       -14.9650  -18.5610   38.8320 C.3   108  PHE108      0.0547
     76  CG       -15.9640  -18.1930   39.8700 C.ar  108  PHE108     -0.0202
     77  CD1      -15.6660  -18.2980   41.2020 C.ar  108  PHE108     -0.0042
     78  CD2      -17.2100  -17.7350   39.5020 C.ar  108  PHE108     -0.0042
     79  CE1      -16.6050  -17.9610   42.1650 C.ar  108  PHE108     -0.0003
     80  CE2      -18.1380  -17.3980   40.4480 C.ar  108  PHE108     -0.0003
     81  CZ       -17.8320  -17.5140   41.7890 C.ar  108  PHE108     -0.0000
     82  N        -15.5520  -21.5150   40.2920 N.am  109  ALA109     -0.1980
     83  CA       -15.1950  -22.1360   41.5590 C.3   109  ALA109      0.1597
     84  C        -14.6180  -23.5250   41.3710 C.2   109  ALA109      0.2287
     85  O        -14.3410  -24.2040   42.3660 O.2   109  ALA109     -0.2864
     86  CB       -16.4230  -22.1610   42.4790 C.3   109  ALA109      0.0319
     87  N         -8.5270  -21.6710   42.0710 N.3   114  TYR114     -0.1241
     88  CA        -9.5640  -21.5330   43.0860 C.3   114  TYR114      0.1605
     89  C         -9.5090  -22.6990   44.0550 C.2   114  TYR114      0.2264
     90  O         -9.4140  -22.5170   45.2710 O.2   114  TYR114     -0.2867
     91  CB       -10.9230  -21.4790   42.3980 C.3   114  TYR114      0.0534
     92  CG       -12.0360  -20.9830   43.2550 C.ar  114  TYR114     -0.0201
     93  CD1      -12.6680  -21.8030   44.1880 C.ar  114  TYR114     -0.0009
     94  CD2      -12.4960  -19.6960   43.1050 C.ar  114  TYR114     -0.0009
     95  CE1      -13.7180  -21.3060   44.9730 C.ar  114  TYR114      0.0417
     96  CE2      -13.5240  -19.2230   43.8510 C.ar  114  TYR114      0.0417
     97  CZ       -14.1170  -20.0110   44.7900 C.ar  114  TYR114      0.1957
     98  OH       -15.1470  -19.4460   45.5130 O.3   114  TYR114     -0.2866
     99  N        -27.3900  -21.7820   57.6720 N.3   137  ILE137     -0.1245
    100  CA       -27.3550  -21.9600   56.2260 C.3   137  ILE137      0.1561
    101  C        -27.5500  -23.4100   55.8330 C.2   137  ILE137      0.2260
    102  O        -28.2380  -23.7150   54.8510 O.2   137  ILE137     -0.2867
    103  CB       -26.0200  -21.4310   55.6740 C.3   137  ILE137      0.0252
    104  CG1      -25.8840  -19.9330   56.0000 C.3   137  ILE137      0.0019
    105  CG2      -25.9070  -21.7750   54.1920 C.3   137  ILE137      0.0019
    106  CD1      -24.5650  -19.3710   55.7560 C.3   137  ILE137      0.0001
    107  N        -18.3480  -26.0570   52.0610 N.3   151  TYR151     -0.1241
    108  CA       -19.1340  -24.9100   51.6090 C.3   151  TYR151      0.1605
    109  C        -18.6200  -23.5770   52.1340 C.2   151  TYR151      0.2264
    110  O        -18.3650  -22.6820   51.3100 O.2   151  TYR151     -0.2867
    111  CB       -20.5820  -25.1890   52.0100 C.3   151  TYR151      0.0534
    112  CG       -21.6510  -24.1640   51.6480 C.ar  151  TYR151     -0.0201
    113  CD1      -21.5730  -22.8680   52.1310 C.ar  151  TYR151     -0.0009
    114  CD2      -22.7950  -24.5360   50.9290 C.ar  151  TYR151     -0.0009
    115  CE1      -22.5940  -21.9270   51.8620 C.ar  151  TYR151      0.0417
    116  CE2      -23.8370  -23.6090   50.6430 C.ar  151  TYR151      0.0417
    117  CZ       -23.7120  -22.2980   51.1300 C.ar  151  TYR151      0.1957
    118  OH       -24.6920  -21.3640   50.9070 O.3   151  TYR151     -0.2866
    119  N        -15.3460  -22.5000   50.4740 N.3   154  MET154     -0.1230
    120  CA       -15.5140  -22.0830   49.0990 C.3   154  MET154      0.1702
    121  C        -16.0700  -20.6720   49.0480 C.2   154  MET154      0.2592
    122  O        -15.6760  -19.8680   48.2010 O.2   154  MET154     -0.2718
    123  CB       -16.4130  -23.0660   48.3890 C.3   154  MET154      0.0401
    124  CG       -15.6770  -24.3710   48.1330 C.3   154  MET154      0.0596
    125  SD       -16.7760  -25.4320   47.2510 S.3   154  MET154     -0.1393
    126  CE       -16.6380  -24.7200   45.5920 C.3   154  MET154      0.0692
    127  N        -16.9440  -20.3320   49.9880 N.am  155  GLN155     -0.1979
    128  CA       -17.5170  -18.9940   49.9680 C.3   155  GLN155      0.1601
    129  C        -16.4860  -17.9360   50.3510 C.2   155  GLN155      0.2287
    130  O        -16.4310  -16.8700   49.7300 O.2   155  GLN155     -0.2864
    131  CB       -18.7210  -18.9230   50.8880 C.3   155  GLN155      0.0394
    132  CG       -19.3870  -17.5560   50.8200 C.3   155  GLN155      0.0908
    133  CD       -20.7520  -17.5640   51.4110 C.2   155  GLN155      0.2608
    134  OE1      -21.4160  -18.6040   51.4260 O.2   155  GLN155     -0.2717
    135  NE2      -21.1940  -16.4120   51.9110 N.am  155  GLN155     -0.0878
    136  N        -14.4630  -17.0040   47.3580 N.3   158  ALA158     -0.1245
    137  CA       -15.0900  -16.3830   46.1920 C.3   158  ALA158      0.1562
    138  C        -14.7130  -14.9070   46.1030 C.2   158  ALA158      0.2260
    139  O        -14.3800  -14.4080   45.0260 O.2   158  ALA158     -0.2867
    140  CB       -16.6190  -16.5360   46.2250 C.3   158  ALA158      0.0290
    141  N        -18.7960   -7.3020   49.9240 N.3   167  ASN167     -0.1225
    142  CA       -19.6540   -8.4800   49.8840 C.3   167  ASN167      0.1785
    143  C        -20.9530   -8.1100   50.5770 C.2   167  ASN167      0.2597
    144  O        -20.9180   -7.4710   51.6260 O.2   167  ASN167     -0.2718
    145  CB       -19.0250   -9.6600   50.6180 C.3   167  ASN167      0.1169
    146  CG       -18.3360  -10.6180   49.7010 C.2   167  ASN167      0.2627
    147  OD1      -17.2160  -11.0210   49.9570 O.2   167  ASN167     -0.2716
    148  ND2      -19.0090  -11.0150   48.6420 N.am  167  ASN167     -0.0877
    149  N        -22.0870   -8.4970   49.9940 N.am  168  VAL168     -0.1980
    150  CA       -23.3970   -8.2410   50.5790 C.3   168  VAL168      0.1595
    151  C        -24.0470   -9.5850   50.9000 C.2   168  VAL168      0.2287
    152  O        -23.8810  -10.5500   50.1470 O.2   168  VAL168     -0.2864
    153  CB       -24.3130   -7.4200   49.6380 C.3   168  VAL168      0.0276
    154  CG1      -25.6090   -7.0790   50.3680 C.3   168  VAL168      0.0022
    155  CG2      -23.5860   -6.1380   49.1710 C.3   168  VAL168      0.0022
    156  N        -27.4850  -13.9710   58.1710 N.3   172  GLU172     -0.1231
    157  CA       -27.1050  -15.3610   58.3770 C.3   172  GLU172      0.1699
    158  C        -25.7400  -15.6860   57.7710 C.2   172  GLU172      0.2592
    159  O        -25.1480  -16.7120   58.1380 O.2   172  GLU172     -0.2718
    160  CB       -28.2000  -16.2730   57.8300 C.3   172  GLU172      0.0402
    161  CG       -28.2450  -16.5270   56.3500 C.3   172  GLU172      0.1161
    162  CD       -28.7360  -15.3630   55.5130 C.2   172  GLU172      0.3649
    163  OE1      -28.5030  -15.4260   54.2650 O.co2 172  GLU172     -0.2457
    164  OE2      -29.3580  -14.4100   56.0890 O.co2 172  GLU172     -0.2457
    165  N        -25.2150  -14.8230   56.8890 N.am  173  GLN173     -0.1979
    166  CA       -23.8910  -15.0010   56.2960 C.3   173  GLN173      0.1601
    167  C        -22.7860  -14.4240   57.1840 C.2   173  GLN173      0.2287
    168  O        -21.6100  -14.5260   56.8290 O.2   173  GLN173     -0.2864
    169  CB       -23.8190  -14.3250   54.9290 C.3   173  GLN173      0.0394
    170  CG       -24.9780  -14.6090   53.9790 C.3   173  GLN173      0.0908
    171  CD       -25.0510  -16.0800   53.5940 C.2   173  GLN173      0.2608
    172  OE1      -24.0090  -16.7190   53.3450 O.2   173  GLN173     -0.2717
    173  NE2      -26.2690  -16.6210   53.5200 N.am  173  GLN173     -0.0878
    174  N        -18.5950  -14.3930   56.7880 N.3   177  HIS177     -0.1241
    175  CA       -17.8950  -13.1560   56.4620 C.3   177  HIS177      0.1621
    176  C        -16.8020  -12.8340   57.4880 C.2   177  HIS177      0.2264
    177  O        -15.7370  -12.3150   57.1220 O.2   177  HIS177     -0.2867
    178  CB       -18.9160  -12.0260   56.3190 C.3   177  HIS177      0.0745
    179  CG       -19.6450  -12.0540   55.0130 C.ar  177  HIS177      0.0817
    180  ND1      -20.8840  -11.4790   54.8300 N.ar  177  HIS177     -0.2268
    181  CD2      -19.3200  -12.6250   53.8290 C.ar  177  HIS177      0.1154
    182  CE1      -21.2890  -11.6960   53.5920 C.ar  177  HIS177      0.1986
    183  NE2      -20.3600  -12.3880   52.9650 N.ar  177  HIS177     -0.2212
@<TRIPOS>BOND
     1    71    72    1
     2    72    75    1
     3    72    73    1
     4    75    76    1
     5    78    76   ar
     6    78    80   ar
     7    73    74    2
     8    73    82   am
     9    76    77   ar
    10    67    68    1
    11    70    69    2
    12    69    68    1
    13    82    83    1
    14    80    81   ar
    15    77    79   ar
    16    84    83    1
    17    84    85    2
    18    83    86    1
    19    81    79   ar
    20    34    35    1
    21    34    33    1
    22    34    37    1
    23    35    36    2
    24    87    88    1
    25    53    51    1
    26    91    88    1
    27    91    92    1
    28    52    51    1
    29    46    47    1
    30    38    37    1
    31    38    40    1
    32    41    42    1
    33    39    37    1
    34    50    51    1
    35    50    47    1
    36    88    89    1
    37    94    92   ar
    38    94    96   ar
    39    43    42    1
    40    43    44    2
    41    92    93   ar
    42    47    48    1
    43    42    45    1
    44    96    97   ar
    45    89    90    2
    46    93    95   ar
    47    16    15    2
    48     4     3    2
    49    97    95   ar
    50    97    98    1
    51    20    22   ar
    52    20    18   ar
    53    48    54   am
    54    48    49    2
    55   139   138    2
    56    22    23   ar
    57    26    27    2
    58    26    25    1
    59    17    18    1
    60    17    14    1
    61    54    55    1
    62     7     5    1
    63     1     2    1
    64   126   125    1
    65    15    14    1
    66    15    24   am
    67    13    14    1
    68    13    11   am
    69    18    19   ar
    70     3     2    1
    71     3     9   am
    72    10    11    1
    73    10     9    1
    74   138   137    1
    75    25    24    1
    76    25    28    1
    77   137   140    1
    78   137   136    1
    79    23    21   ar
    80     2     5    1
    81    11    12    2
    82     5     6    1
    83    55    56    1
    84    55    58    1
    85    19    21   ar
    86    59    60    1
    87    56    57    2
    88   125   124    1
    89    28    29    1
    90     6     8    1
    91    64    65    1
    92    64    66    1
    93    64    63    1
    94   124   123    1
    95    29    30    1
    96   122   121    2
    97    60    63    1
    98    60    61    1
    99   123   120    1
   100   148   146   am
   101   121   120    1
   102   121   127   am
   103    31    30   ar
   104   120   119    1
   105   155   153    1
   106    30    32   ar
   107    61    62    2
   108   153   154    1
   109   153   150    1
   110   146   147    2
   111   146   145    1
   112   130   129    2
   113   142   141    1
   114   142   143    1
   115   142   145    1
   116   128   127    1
   117   128   129    1
   118   128   131    1
   119   149   143   am
   120   149   150    1
   121   152   151    2
   122   143   144    2
   123   150   151    1
   124   116   114   ar
   125   116   117   ar
   126   132   131    1
   127   132   133    1
   128   118   117    1
   129   114   112   ar
   130   117   115   ar
   131   110   109    2
   132   133   134    2
   133   133   135   am
   134   108   111    1
   135   108   107    1
   136   108   109    1
   137   112   111    1
   138   112   113   ar
   139   115   113   ar
   140   183   182   ar
   141   183   181   ar
   142   172   171    2
   143   173   171   am
   144   182   180   ar
   145   171   170    1
   146   181   179   ar
   147   170   169    1
   148   105   103    1
   149   163   162   ar
   150   180   179   ar
   151   102   101    2
   152   169   166    1
   153   179   178    1
   154   162   164   ar
   155   162   161    1
   156   103   104    1
   157   103   100    1
   158   106   104    1
   159   101   100    1
   160   100    99    1
   161   166   165    1
   162   166   167    1
   163   178   175    1
   164   161   160    1
   165   175   174    1
   166   175   176    1
   167   168   167    2
   168   165   158   am
   169   177   176    2
   170   158   159    2
   171   158   157    1
   172   160   157    1
   173   156   157    1
