@<TRIPOS>MOLECULE
tmp/5l7pA00.pdb
 121 113 0 0 0
SMALL
GASTEIGER

@<TRIPOS>ATOM
      1  N         -2.6540   -3.2970   26.4870 N.3    64  ILE64      -0.1245
      2  CA        -2.1110   -1.9520   26.3720 C.3    64  ILE64       0.1561
      3  C         -3.1010   -1.1650   25.5460 C.2    64  ILE64       0.2260
      4  O         -3.3330   -1.4830   24.3750 O.2    64  ILE64      -0.2867
      5  CB        -0.7160   -1.9460   25.7070 C.3    64  ILE64       0.0252
      6  CG1        0.2670   -2.7760   26.5110 C.3    64  ILE64       0.0019
      7  CG2       -0.2230   -0.5220   25.5460 C.3    64  ILE64       0.0019
      8  CD1        1.5340   -3.1610   25.7240 C.3    64  ILE64       0.0001
      9  N         -3.6170    2.0040   23.5780 N.3    66  ALA66      -0.1245
     10  CA        -2.5630    2.8020   22.9440 C.3    66  ALA66       0.1562
     11  C         -3.0510    4.2280   22.7140 C.2    66  ALA66       0.2260
     12  O         -3.2990    4.6750   21.5850 O.2    66  ALA66      -0.2867
     13  CB        -2.1160    2.1490   21.6470 C.3    66  ALA66       0.0290
     14  N         -1.4850    7.1460   23.4770 N.3    68  LEU68      -0.1231
     15  CA        -0.4850    8.0550   22.9210 C.3    68  LEU68       0.1693
     16  C         -0.3960    7.9070   21.4070 C.2    68  LEU68       0.2591
     17  O         -0.3850    8.9040   20.6730 O.2    68  LEU68      -0.2718
     18  CB         0.8620    7.7710   23.5840 C.3    68  LEU68       0.0284
     19  CG         2.0450    8.6780   23.3620 C.3    68  LEU68       0.0019
     20  CD1        1.7920    9.9870   23.9750 C.3    68  LEU68       0.0001
     21  CD2        3.2350    8.0350   24.0420 C.3    68  LEU68       0.0001
     22  N         -0.3620    6.6640   20.9230 N.am   69  ALA69      -0.1980
     23  CA        -0.3510    6.4220   19.4770 C.3    69  ALA69       0.1597
     24  C         -1.5930    7.0070   18.8000 C.2    69  ALA69       0.2287
     25  O         -1.4930    7.6530   17.7480 O.2    69  ALA69      -0.2864
     26  CB        -0.2440    4.9250   19.2140 C.3    69  ALA69       0.0319
     27  N         -1.2170   10.7310   18.7520 N.3    72  LEU72      -0.1231
     28  CA        -0.2900   11.1540   17.7020 C.3    72  LEU72       0.1693
     29  C         -0.8760   10.9240   16.3190 C.2    72  LEU72       0.2592
     30  O         -0.5840   11.6910   15.3960 O.2    72  LEU72      -0.2718
     31  CB         1.0570   10.4240   17.8320 C.3    72  LEU72       0.0284
     32  CG         1.8150   10.8350   19.0940 C.3    72  LEU72       0.0019
     33  CD1        2.9760    9.9170   19.3950 C.3    72  LEU72       0.0001
     34  CD2        2.2700   12.2760   19.0190 C.3    72  LEU72       0.0001
     35  N         -1.6850    9.8790   16.1480 N.am   73  ASN73      -0.1974
     36  CA        -2.3320    9.6170   14.8690 C.3    73  ASN73       0.1688
     37  C         -3.6360   10.4160   14.6670 C.2    73  ASN73       0.2292
     38  O         -4.4050   10.0740   13.7610 O.2    73  ASN73      -0.2864
     39  CB        -2.5840    8.1180   14.7150 C.3    73  ASN73       0.1181
     40  CG        -1.3290    7.3700   14.2650 C.2    73  ASN73       0.2629
     41  OD1       -0.3400    8.0000   13.8720 O.2    73  ASN73      -0.2716
     42  ND2       -1.3660    6.0320   14.3050 N.am   73  ASN73      -0.0877
     43  N         -0.7990    3.5540   27.2490 N.3   104  GLY104     -0.1225
     44  CA         0.5330    3.8930   26.7610 C.3   104  GLY104      0.1811
     45  C          1.0940    5.1460   27.4020 C.2   104  GLY104      0.2280
     46  O          2.2760    5.1960   27.7600 O.2   104  GLY104     -0.2866
     47  N          3.2650    5.0220   30.8470 N.3   107  PHE107     -0.1227
     48  CA         4.6440    4.5990   31.0170 C.3   107  PHE107      0.1736
     49  C          5.5680    5.0580   29.9050 C.2   107  PHE107      0.2595
     50  O          6.7700    5.2040   30.1720 O.2   107  PHE107     -0.2718
     51  CB         4.7290    3.0720   31.1620 C.3   107  PHE107      0.0547
     52  CG         4.2950    2.3110   29.9460 C.ar  107  PHE107     -0.0202
     53  CD1        5.2020    1.9720   28.9580 C.ar  107  PHE107     -0.0042
     54  CD2        2.9850    1.9290   29.7910 C.ar  107  PHE107     -0.0042
     55  CE1        4.8030    1.2610   27.8430 C.ar  107  PHE107     -0.0003
     56  CE2        2.5730    1.2290   28.6520 C.ar  107  PHE107     -0.0003
     57  CZ         3.4680    0.8850   27.6980 C.ar  107  PHE107     -0.0000
     58  N          5.0630    5.3720   28.7160 N.am  108  ALA108     -0.1980
     59  CA         5.8910    5.5220   27.5450 C.3   108  ALA108      0.1597
     60  C          6.4550    6.9140   27.3770 C.2   108  ALA108      0.2287
     61  O          7.1750    7.1340   26.4070 O.2   108  ALA108     -0.2864
     62  CB         5.1040    5.1520   26.2810 C.3   108  ALA108      0.0319
     63  N         12.1230    5.4970   30.8350 N.3   113  TYR113     -0.1241
     64  CA        11.6480    4.8260   29.6270 C.3   113  TYR113      0.1605
     65  C         12.2280    5.4860   28.3840 C.2   113  TYR113      0.2264
     66  O         12.7800    4.8150   27.4930 O.2   113  TYR113     -0.2867
     67  CB        10.1000    4.8690   29.5850 C.3   113  TYR113      0.0534
     68  CG         9.4990    4.1070   28.4340 C.ar  113  TYR113     -0.0201
     69  CD1        9.3540    4.6860   27.1860 C.ar  113  TYR113     -0.0009
     70  CD2        9.1280    2.7810   28.5860 C.ar  113  TYR113     -0.0009
     71  CE1        8.8080    3.9630   26.1110 C.ar  113  TYR113      0.0417
     72  CE2        8.5890    2.0510   27.5450 C.ar  113  TYR113      0.0417
     73  CZ         8.4370    2.6270   26.3030 C.ar  113  TYR113      0.1957
     74  OH         7.8930    1.8370   25.2920 O.3   113  TYR113     -0.2866
     75  N          9.2980    9.6120   12.3600 N.3   142  ALA142     -0.1245
     76  CA         8.3950    8.7820   13.1500 C.3   142  ALA142      0.1562
     77  C          8.4620    7.3170   12.7470 C.2   142  ALA142      0.2260
     78  O          8.2790    6.4260   13.5860 O.2   142  ALA142     -0.2867
     79  CB         6.9680    9.3220   13.0080 C.3   142  ALA142      0.0290
     80  N         11.1930    5.6330   14.6530 N.3   145  ILE145     -0.1231
     81  CA        11.0190    5.6700   16.1040 C.3   145  ILE145      0.1692
     82  C         10.0330    4.5980   16.5290 C.2   145  ILE145      0.2592
     83  O         10.1990    3.9750   17.5750 O.2   145  ILE145     -0.2718
     84  CB        10.5620    7.0510   16.5950 C.3   145  ILE145      0.0266
     85  CG1       11.6320    8.1070   16.3390 C.3   145  ILE145      0.0019
     86  CG2       10.1960    7.0060   18.1020 C.3   145  ILE145      0.0020
     87  CD1       11.1550    9.5510   16.6600 C.3   145  ILE145      0.0001
     88  N          8.9980    4.3670   15.7320 N.am  146  TYR146     -0.1976
     89  CA         8.0050    3.3430   16.0620 C.3   146  TYR146      0.1639
     90  C          8.6020    1.9880   16.4580 C.2   146  TYR146      0.2290
     91  O          8.2410    1.4700   17.5260 O.2   146  TYR146     -0.2864
     92  CB         7.0290    3.1550   14.8960 C.3   146  TYR146      0.0560
     93  CG         5.8740    2.2400   15.2820 C.ar  146  TYR146     -0.0198
     94  CD1        4.8190    2.7140   16.0460 C.ar  146  TYR146     -0.0009
     95  CD2        5.8720    0.8990   14.9230 C.ar  146  TYR146     -0.0009
     96  CE1        3.7810    1.8850   16.4350 C.ar  146  TYR146      0.0417
     97  CE2        4.8130    0.0550   15.2990 C.ar  146  TYR146      0.0417
     98  CZ         3.7780    0.5630   16.0530 C.ar  146  TYR146      0.1957
     99  OH         2.7300   -0.2480   16.4450 O.3   146  TYR146     -0.2866
    100  N         10.3970    2.0330   19.7930 N.3   149  MET149     -0.1230
    101  CA         9.4020    2.2510   20.8460 C.3   149  MET149      0.1702
    102  C          8.6610    0.9620   21.1860 C.2   149  MET149      0.2592
    103  O          8.3550    0.6930   22.3600 O.2   149  MET149     -0.2718
    104  CB         8.4100    3.3290   20.3770 C.3   149  MET149      0.0401
    105  CG         7.1860    3.4970   21.2260 C.3   149  MET149      0.0596
    106  SD         7.5580    4.0620   22.9260 S.3   149  MET149     -0.1393
    107  CE         8.4820    5.5640   22.5880 C.3   149  MET149      0.0692
    108  N          8.3490    0.1550   20.1770 N.am  150  GLN150     -0.1979
    109  CA         7.6750   -1.1190   20.4170 C.3   150  GLN150      0.1601
    110  C          8.5800   -2.1190   21.1240 C.2   150  GLN150      0.2287
    111  O          8.1110   -2.8720   21.9810 O.2   150  GLN150     -0.2864
    112  CB         7.1830   -1.6950   19.0930 C.3   150  GLN150      0.0394
    113  CG         6.0510   -0.9160   18.4930 C.3   150  GLN150      0.0908
    114  CD         4.8530   -0.9380   19.4030 C.2   150  GLN150      0.2608
    115  OE1        4.3660    0.1040   19.8590 O.2   150  GLN150     -0.2717
    116  NE2        4.3980   -2.1360   19.7170 N.am  150  GLN150     -0.0878
    117  N          8.7790   -1.0830   24.7820 N.3   153  ALA153     -0.1245
    118  CA         7.5420   -1.3940   25.4740 C.3   153  ALA153      0.1562
    119  C          7.4730   -2.8750   25.8280 C.2   153  ALA153      0.2260
    120  O          6.9930   -3.2360   26.9110 O.2   153  ALA153     -0.2867
    121  CB         6.3610   -0.9670   24.6050 C.3   153  ALA153      0.0290
@<TRIPOS>BOND
     1    75    76    1
     2    77    76    1
     3    77    78    2
     4    79    76    1
     5    38    37    2
     6    41    40    2
     7    40    42   am
     8    40    39    1
     9    80    81    1
    10    37    36    1
    11    39    36    1
    12    36    35    1
    13    92    93    1
    14    92    89    1
    15    95    93   ar
    16    95    97   ar
    17    93    94   ar
    18    97    98   ar
    19    30    29    2
    20    88    89    1
    21    88    82   am
    22    94    96   ar
    23    98    96   ar
    24    98    99    1
    25    89    90    1
    26    81    82    1
    27    81    84    1
    28    35    29   am
    29    29    28    1
    30    85    84    1
    31    85    87    1
    32    90    91    2
    33    82    83    2
    34    84    86    1
    35    28    31    1
    36    28    27    1
    37    25    24    2
    38    31    32    1
    39   113   112    1
    40   113   114    1
    41    24    23    1
    42    34    32    1
    43   112   109    1
    44    32    33    1
    45    26    23    1
    46   114   116   am
    47   114   115    2
    48    23    22    1
    49   100   101    1
    50   108   109    1
    51   108   102   am
    52   104   101    1
    53   104   105    1
    54   109   110    1
    55    17    16    2
    56   101   102    1
    57    22    16   am
    58   110   111    2
    59   102   103    2
    60   105   106    1
    61    16    15    1
    62    12    11    2
    63    13    10    1
    64   107   106    1
    65    11    10    1
    66    15    14    1
    67    15    18    1
    68    10     9    1
    69    19    18    1
    70    19    20    1
    71    19    21    1
    72     4     3    2
    73   121   118    1
    74   117   118    1
    75    74    73    1
    76   118   119    1
    77     7     5    1
    78     3     2    1
    79     5     2    1
    80     5     6    1
    81     8     6    1
    82   119   120    2
    83    71    73   ar
    84    71    69   ar
    85    62    59    1
    86    73    72   ar
    87     2     1    1
    88    61    60    2
    89    44    43    1
    90    44    45    1
    91    69    68   ar
    92    60    59    1
    93    45    46    2
    94    66    65    2
    95    59    58    1
    96    72    70   ar
    97    57    55   ar
    98    57    56   ar
    99    55    53   ar
   100    65    64    1
   101    68    70   ar
   102    68    67    1
   103    56    54   ar
   104    58    49   am
   105    53    52   ar
   106    67    64    1
   107    64    63    1
   108    54    52   ar
   109    49    50    2
   110    49    48    1
   111    52    51    1
   112    47    48    1
   113    48    51    1
