@<TRIPOS>MOLECULE
tmp/5l7tA01.pdb
 150 146 0 0 0
SMALL
GASTEIGER

@<TRIPOS>ATOM
      1  N        -12.0250  -37.2890  -19.3700 N.3    90  HIS90      -0.1241
      2  CA       -12.6060  -38.4920  -18.7910 C.3    90  HIS90       0.1621
      3  C        -13.7010  -38.9770  -19.7190 C.2    90  HIS90       0.2264
      4  O        -14.7270  -38.2970  -19.8530 O.2    90  HIS90      -0.2867
      5  CB       -13.1710  -38.2320  -17.3910 C.3    90  HIS90       0.0745
      6  CG       -13.4920  -39.4840  -16.6290 C.ar   90  HIS90       0.0817
      7  ND1      -14.3310  -40.4640  -17.1200 N.ar   90  HIS90      -0.2268
      8  CD2      -13.0770  -39.9200  -15.4140 C.ar   90  HIS90       0.1154
      9  CE1      -14.4180  -41.4480  -16.2420 C.ar   90  HIS90       0.1986
     10  NE2      -13.6620  -41.1460  -15.2010 N.ar   90  HIS90      -0.2212
     11  N        -18.6280  -43.3110  -18.6940 N.3    93  PRO93      -0.2116
     12  CA       -18.4760  -44.6440  -18.1030 C.3    93  PRO93       0.1372
     13  C        -18.5780  -45.7340  -19.1530 C.2    93  PRO93       0.2244
     14  O        -19.5130  -45.7610  -19.9500 O.2    93  PRO93      -0.2868
     15  CB       -19.6410  -44.7230  -17.1100 C.3    93  PRO93       0.0268
     16  CG       -19.9820  -43.2990  -16.7930 C.3    93  PRO93       0.0207
     17  CD       -19.6520  -42.5000  -18.0100 C.3    93  PRO93       0.0892
     18  N         -5.3420  -37.7300  -10.7230 N.3   138  SER138     -0.1202
     19  CA        -6.6630  -37.9710  -10.1840 C.3   138  SER138      0.2020
     20  C         -6.5340  -38.9380   -9.0220 C.2   138  SER138      0.2619
     21  O         -5.7040  -39.8440   -9.0460 O.2   138  SER138     -0.2717
     22  CB        -7.6070  -38.5660  -11.2270 C.3   138  SER138      0.2103
     23  OG        -8.8380  -38.8800  -10.6000 O.3   138  SER138     -0.2182
     24  N         -7.4010  -38.7580   -8.0360 N.am  139  LEU139     -0.1965
     25  CA        -7.5180  -39.7320   -6.9590 C.3   139  LEU139      0.1728
     26  C         -7.8040  -41.1330   -7.4880 C.2   139  LEU139      0.2616
     27  O         -7.3130  -42.1110   -6.9200 O.2   139  LEU139     -0.2715
     28  CB        -8.6140  -39.2920   -5.9870 C.3   139  LEU139      0.0311
     29  CG        -9.0660  -40.2890   -4.9140 C.3   139  LEU139      0.0022
     30  CD1       -7.9550  -40.5820   -3.9390 C.3   139  LEU139      0.0001
     31  CD2      -10.3020  -39.7590   -4.1850 C.3   139  LEU139      0.0001
     32  N         -8.5650  -41.2600   -8.5830 N.am  140  VAL140     -0.1977
     33  CA        -8.9160  -42.6000   -9.0410 C.3   140  VAL140      0.1596
     34  C         -7.7040  -43.3320   -9.6050 C.2   140  VAL140      0.2287
     35  O         -7.7390  -44.5510   -9.7330 O.2   140  VAL140     -0.2864
     36  CB       -10.0730  -42.5940  -10.0730 C.3   140  VAL140      0.0276
     37  CG1      -11.3190  -41.9430   -9.5060 C.3   140  VAL140      0.0022
     38  CG2       -9.6680  -41.9220  -11.3670 C.3   140  VAL140      0.0022
     39  N        -11.5700  -46.7710  -10.0180 N.3   145  GLN145     -0.1231
     40  CA       -12.9090  -46.2600  -10.2870 C.3   145  GLN145      0.1698
     41  C        -13.6140  -47.2960  -11.1460 C.2   145  GLN145      0.2592
     42  O        -12.9760  -47.9920  -11.9350 O.2   145  GLN145     -0.2718
     43  CB       -12.8740  -44.8950  -11.0050 C.3   145  GLN145      0.0381
     44  CG       -14.2100  -44.1190  -11.1170 C.3   145  GLN145      0.0905
     45  CD       -14.0670  -42.8140  -11.9290 C.2   145  GLN145      0.2608
     46  OE1      -13.3550  -42.7700  -12.9370 O.2   145  GLN145     -0.2717
     47  NE2      -14.7310  -41.7460  -11.4770 N.am  145  GLN145     -0.0878
     48  N        -14.9280  -47.3870  -10.9970 N.am  146  ALA146     -0.1966
     49  CA       -15.6910  -48.3210  -11.8100 C.3   146  ALA146      0.1728
     50  C        -15.9500  -47.7280  -13.1890 C.2   146  ALA146      0.2616
     51  O        -16.0900  -46.5120  -13.3430 O.2   146  ALA146     -0.2715
     52  CB       -17.0180  -48.6780  -11.1390 C.3   146  ALA146      0.0334
     53  N        -16.0010  -48.6150  -14.1860 N.am  147  GLN147     -0.1977
     54  CA       -16.3040  -48.2920  -15.5810 C.3   147  GLN147      0.1601
     55  C        -15.3910  -47.1980  -16.1270 C.2   147  GLN147      0.2287
     56  O        -15.8320  -46.2660  -16.7930 O.2   147  GLN147     -0.2864
     57  CB       -17.7810  -47.9190  -15.7400 C.3   147  GLN147      0.0394
     58  CG       -18.6990  -48.9700  -15.1180 C.3   147  GLN147      0.0908
     59  CD       -20.1010  -48.9940  -15.6860 C.2   147  GLN147      0.2608
     60  OE1      -20.4740  -48.1690  -16.5160 O.2   147  GLN147     -0.2717
     61  NE2      -20.8860  -49.9610  -15.2440 N.am  147  GLN147     -0.0878
     62  N         -9.2380  -44.5940  -18.3310 N.3   151  TYR151     -0.1241
     63  CA        -8.9770  -43.3550  -17.5990 C.3   151  TYR151      0.1605
     64  C         -8.1070  -43.6050  -16.3610 C.2   151  TYR151      0.2264
     65  O         -7.0860  -42.9380  -16.1560 O.2   151  TYR151     -0.2867
     66  CB       -10.2970  -42.6970  -17.1980 C.3   151  TYR151      0.0534
     67  CG       -10.1090  -41.4060  -16.4320 C.ar  151  TYR151     -0.0201
     68  CD1       -9.8680  -40.2200  -17.0980 C.ar  151  TYR151     -0.0009
     69  CD2      -10.1590  -41.3800  -15.0340 C.ar  151  TYR151     -0.0009
     70  CE1       -9.6930  -39.0290  -16.4160 C.ar  151  TYR151      0.0417
     71  CE2       -9.9870  -40.1960  -14.3420 C.ar  151  TYR151      0.0417
     72  CZ        -9.7520  -39.0210  -15.0370 C.ar  151  TYR151      0.1957
     73  OH        -9.5720  -37.8400  -14.3660 O.3   151  TYR151     -0.2866
     74  N         -6.9340  -34.4930   -7.7680 N.3   181  PRO181     -0.2102
     75  CA        -8.2550  -34.0490   -7.3290 C.3   181  PRO181      0.1504
     76  C         -9.2170  -35.2250   -7.2710 C.2   181  PRO181      0.2576
     77  O         -9.0310  -36.2430   -7.9410 O.2   181  PRO181     -0.2718
     78  CB        -8.6690  -33.0370   -8.4080 C.3   181  PRO181      0.0282
     79  CG        -7.4340  -32.8550   -9.3010 C.3   181  PRO181      0.0208
     80  CD        -6.6600  -34.1140   -9.1640 C.3   181  PRO181      0.0893
     81  N        -10.2330  -35.0890   -6.4240 N.am  182  GLY182     -0.1943
     82  CA       -11.3730  -35.9890   -6.4450 C.3   182  GLY182      0.2014
     83  C        -12.4680  -35.3190   -7.2500 C.2   182  GLY182      0.2639
     84  O        -12.1720  -34.6850   -8.2680 O.2   182  GLY182     -0.2714
     85  N        -13.7150  -35.3930   -6.8000 N.am  183  ASN183     -0.1958
     86  CA       -14.8230  -34.7950   -7.5460 C.3   183  ASN183      0.1819
     87  C        -14.7400  -33.2720   -7.4970 C.2   183  ASN183      0.2621
     88  O        -14.9840  -32.6660   -6.4500 O.2   183  ASN183     -0.2715
     89  CB       -16.1570  -35.2870   -6.9890 C.3   183  ASN183      0.1195
     90  CG       -16.3810  -36.7500   -7.2770 C.2   183  ASN183      0.2630
     91  OD1      -16.2290  -37.1900   -8.4180 O.2   183  ASN183     -0.2716
     92  ND2      -16.6970  -37.5210   -6.2490 N.am  183  ASN183     -0.0877
     93  N        -14.3930  -32.6510   -8.6270 N.am  184  ILE184     -0.1977
     94  CA       -14.3700  -31.2000   -8.7670 C.3   184  ILE184      0.1596
     95  C        -15.4740  -30.8000   -9.7420 C.2   184  ILE184      0.2287
     96  O        -15.5600  -31.3470  -10.8480 O.2   184  ILE184     -0.2864
     97  CB       -12.9940  -30.6970   -9.2480 C.3   184  ILE184      0.0276
     98  CG1      -11.8710  -31.2820   -8.3890 C.3   184  ILE184      0.0022
     99  CG2      -12.9390  -29.1560   -9.2450 C.3   184  ILE184      0.0022
    100  CD1      -11.9970  -30.9360   -6.8670 C.3   184  ILE184      0.0001
    101  N        -16.7870  -30.5080  -17.4240 N.3   188  LEU188     -0.1231
    102  CA       -16.7100  -31.9300  -17.7210 C.3   188  LEU188      0.1693
    103  C        -17.6150  -32.7440  -16.7980 C.2   188  LEU188      0.2592
    104  O        -18.3130  -33.6590  -17.2520 O.2   188  LEU188     -0.2718
    105  CB       -15.2690  -32.4100  -17.6270 C.3   188  LEU188      0.0284
    106  CG       -15.0770  -33.9030  -17.8930 C.3   188  LEU188      0.0019
    107  CD1      -15.4940  -34.2600  -19.3180 C.3   188  LEU188      0.0001
    108  CD2      -13.6340  -34.2770  -17.6540 C.3   188  LEU188      0.0001
    109  N        -17.6100  -32.4410  -15.4960 N.am  189  TRP189     -0.1976
    110  CA       -18.4960  -33.1740  -14.5950 C.3   189  TRP189      0.1640
    111  C        -19.9450  -33.0030  -15.0270 C.2   189  TRP189      0.2290
    112  O        -20.7080  -33.9730  -15.0870 O.2   189  TRP189     -0.2864
    113  CB       -18.3130  -32.7130  -13.1380 C.3   189  TRP189      0.0576
    114  CG       -18.2530  -33.8470  -12.1410 C.ar  189  TRP189      0.0006
    115  CD1      -17.1500  -34.2710  -11.4650 C.ar  189  TRP189      0.0946
    116  CD2      -19.3280  -34.6970  -11.7190 C.ar  189  TRP189      0.0152
    117  NE1      -17.4630  -35.3280  -10.6570 N.ar  189  TRP189     -0.2442
    118  CE2      -18.7930  -35.6130  -10.7880 C.ar  189  TRP189      0.0810
    119  CE3      -20.6900  -34.7720  -12.0300 C.ar  189  TRP189      0.0012
    120  CZ2      -19.5650  -36.5960  -10.1730 C.ar  189  TRP189      0.0191
    121  CZ3      -21.4580  -35.7460  -11.4090 C.ar  189  TRP189      0.0001
    122  CH2      -20.8930  -36.6440  -10.4950 C.ar  189  TRP189      0.0015
    123  N        -20.6930  -35.0770  -18.2390 N.3   192  LEU192     -0.1231
    124  CA       -20.8110  -36.5050  -17.9660 C.3   192  LEU192      0.1693
    125  C        -22.1010  -36.8270  -17.2200 C.2   192  LEU192      0.2591
    126  O        -22.7670  -37.8220  -17.5270 O.2   192  LEU192     -0.2718
    127  CB       -19.6000  -37.0040  -17.1860 C.3   192  LEU192      0.0284
    128  CG       -18.2880  -37.1530  -17.9650 C.3   192  LEU192      0.0019
    129  CD1      -17.1420  -37.5350  -17.0300 C.3   192  LEU192      0.0001
    130  CD2      -18.4050  -38.1750  -19.0790 C.3   192  LEU192      0.0001
    131  N        -22.4790  -35.9950  -16.2460 N.am  193  ALA193     -0.1980
    132  CA       -23.7220  -36.2430  -15.5230 C.3   193  ALA193      0.1597
    133  C        -24.9250  -36.1900  -16.4560 C.2   193  ALA193      0.2287
    134  O        -25.8740  -36.9660  -16.2980 O.2   193  ALA193     -0.2864
    135  CB       -23.8940  -35.2400  -14.3830 C.3   193  ALA193      0.0319
    136  N        -26.1960  -39.3420  -18.0850 N.3   196  MET196     -0.1245
    137  CA       -26.6730  -40.4150  -17.2410 C.3   196  MET196      0.1570
    138  C        -28.1900  -40.5030  -17.2960 C.2   196  MET196      0.2261
    139  O        -28.8650  -39.5450  -17.6760 O.2   196  MET196     -0.2867
    140  CB       -26.2000  -40.2010  -15.8050 C.3   196  MET196      0.0387
    141  CG       -24.7190  -40.1830  -15.6250 C.3   196  MET196      0.0595
    142  SD       -23.9300  -41.6920  -16.2510 S.3   196  MET196     -0.1393
    143  CE       -25.3240  -42.8160  -16.3320 C.3   196  MET196      0.0692
    144  N        -27.0400  -38.4510  -10.2020 N.3   202  THR202     -0.1218
    145  CA       -25.6100  -38.6550  -10.3630 C.3   202  THR202      0.1862
    146  C        -24.8320  -37.5280   -9.7000 C.2   202  THR202      0.2287
    147  O        -23.8080  -37.7650   -9.0540 O.2   202  THR202     -0.2866
    148  CB       -25.2740  -38.7690  -11.8490 C.3   202  THR202      0.1770
    149  OG1      -26.0080  -39.8640  -12.4130 O.3   202  THR202     -0.2211
    150  CG2      -23.7980  -39.0130  -12.0590 C.3   202  THR202      0.0375
@<TRIPOS>BOND
     1    14    13    2
     2     4     3    2
     3     3     2    1
     4     1     2    1
     5   107   106    1
     6    13    12    1
     7   130   128    1
     8     2     5    1
     9    11    12    1
    10    11    17    1
    11    62    63    1
    12   123   124    1
    13    12    15    1
    14   136   137    1
    15    17    16    1
    16   124   125    1
    17   124   127    1
    18   128   127    1
    19   128   129    1
    20   106   108    1
    21   106   105    1
    22   102   105    1
    23   102   101    1
    24   102   103    1
    25   139   138    2
    26    63    66    1
    27    63    64    1
    28   126   125    2
    29     5     6    1
    30   138   137    1
    31   104   103    2
    32   137   140    1
    33   125   131   am
    34    66    67    1
    35     7     6   ar
    36     7     9   ar
    37    15    16    1
    38    68    67   ar
    39    68    70   ar
    40   103   109   am
    41    56    55    2
    42     6     8   ar
    43    60    59    2
    44   133   134    2
    45   133   132    1
    46    67    69   ar
    47    70    72   ar
    48    64    65    2
    49   143   142    1
    50   142   141    1
    51   131   132    1
    52     9    10   ar
    53    55    54    1
    54   140   141    1
    55    57    54    1
    56    57    58    1
    57    59    61   am
    58    59    58    1
    59    54    53    1
    60   132   135    1
    61   109   110    1
    62     8    10   ar
    63   112   111    2
    64    72    73    1
    65    72    71   ar
    66    69    71   ar
    67   111   110    1
    68   110   113    1
    69    53    50   am
    70    51    50    2
    71    50    49    1
    72   113   114    1
    73    46    45    2
    74   149   148    1
    75   114   116   ar
    76   114   115   ar
    77   150   148    1
    78   119   116   ar
    79   119   121   ar
    80    42    41    2
    81    45    47   am
    82    45    44    1
    83   148   145    1
    84    49    52    1
    85    49    48    1
    86   116   118   ar
    87   115   117   ar
    88   121   122   ar
    89    38    36    1
    90    22    23    1
    91    22    19    1
    92    41    48   am
    93    41    40    1
    94    44    43    1
    95    43    40    1
    96    96    95    2
    97   118   117   ar
    98   118   120   ar
    99    18    19    1
   100   122   120   ar
   101   145   144    1
   102   145   146    1
   103    40    39    1
   104    19    20    1
   105    36    37    1
   106    36    33    1
   107    95    94    1
   108    35    34    2
   109   146   147    2
   110    34    33    1
   111    79    80    1
   112    79    78    1
   113    97    99    1
   114    97    94    1
   115    97    98    1
   116    80    74    1
   117    21    20    2
   118    33    32    1
   119    20    24   am
   120    94    93    1
   121    93    87   am
   122    32    26   am
   123    91    90    2
   124    78    75    1
   125    98   100    1
   126    84    83    2
   127    24    25    1
   128    77    76    2
   129    74    75    1
   130    86    87    1
   131    86    89    1
   132    86    85    1
   133    87    88    2
   134    26    25    1
   135    26    27    2
   136    75    76    1
   137    90    89    1
   138    90    92   am
   139    76    81   am
   140    83    85   am
   141    83    82    1
   142    25    28    1
   143    82    81    1
   144    28    29    1
   145    29    31    1
   146    29    30    1
