@<TRIPOS>MOLECULE
tmp/5l7uB00.pdb
 139 139 0 0 0
SMALL
GASTEIGER

@<TRIPOS>ATOM
      1  N         -0.9240  -35.4970   26.5950 N.3   204  TRP204     -0.1241
      2  CA        -1.3720  -34.2240   26.0220 C.3   204  TRP204      0.1605
      3  C         -2.8310  -34.3060   25.6420 C.2   204  TRP204      0.2264
      4  O         -3.2380  -35.2670   25.0200 O.2   204  TRP204     -0.2867
      5  CB        -0.5390  -33.8180   24.8000 C.3   204  TRP204      0.0550
      6  CG         0.9070  -33.6840   25.0530 C.ar  204  TRP204      0.0003
      7  CD1        1.5360  -33.6890   26.2840 C.ar  204  TRP204      0.0946
      8  CD2        1.9530  -33.4960   24.0770 C.ar  204  TRP204      0.0152
      9  NE1        2.9020  -33.5450   26.1100 N.ar  204  TRP204     -0.2442
     10  CE2        3.1760  -33.4070   24.7800 C.ar  204  TRP204      0.0810
     11  CE3        1.9630  -33.3710   22.6880 C.ar  204  TRP204      0.0012
     12  CZ2        4.4110  -33.2240   24.1370 C.ar  204  TRP204      0.0191
     13  CZ3        3.1980  -33.1790   22.0380 C.ar  204  TRP204      0.0001
     14  CH2        4.3940  -33.1040   22.7620 C.ar  204  TRP204      0.0015
     15  N          1.1920  -27.9970   16.0160 N.3   251  TRP251     -0.1241
     16  CA         1.7580  -29.1730   15.3440 C.3   251  TRP251      0.1605
     17  C          1.3330  -29.2760   13.9160 C.2   251  TRP251      0.2264
     18  O          1.3610  -30.3570   13.3600 O.2   251  TRP251     -0.2867
     19  CB         1.3480  -30.4380   16.1200 C.3   251  TRP251      0.0550
     20  CG         1.9140  -30.4490   17.4940 C.ar  251  TRP251      0.0003
     21  CD1        3.1820  -30.8030   17.8350 C.ar  251  TRP251      0.0946
     22  CD2        1.2470  -30.1450   18.7070 C.ar  251  TRP251      0.0152
     23  NE1        3.3420  -30.7220   19.1790 N.ar  251  TRP251     -0.2442
     24  CE2        2.1720  -30.3210   19.7430 C.ar  251  TRP251      0.0810
     25  CE3       -0.0460  -29.7790   19.0230 C.ar  251  TRP251      0.0012
     26  CZ2        1.8660  -30.1090   21.0610 C.ar  251  TRP251      0.0191
     27  CZ3       -0.3710  -29.5700   20.3580 C.ar  251  TRP251      0.0001
     28  CH2        0.5920  -29.7250   21.3630 C.ar  251  TRP251      0.0015
     29  N         -1.1840  -32.3170   12.5910 N.3   254  GLN254     -0.1245
     30  CA        -0.6980  -33.7100   12.4100 C.3   254  GLN254      0.1566
     31  C         -1.7190  -34.7310   12.8730 C.2   254  GLN254      0.2260
     32  O         -1.7210  -35.8320   12.3850 O.2   254  GLN254     -0.2867
     33  CB         0.6380  -33.9710   13.1340 C.3   254  GLN254      0.0367
     34  CG         0.5760  -33.9570   14.6680 C.3   254  GLN254      0.0905
     35  CD         1.9250  -34.2080   15.3540 C.2   254  GLN254      0.2608
     36  OE1        2.9020  -34.5210   14.6970 O.2   254  GLN254     -0.2717
     37  NE2        1.9610  -34.1050   16.6890 N.am  254  GLN254     -0.0878
     38  N          6.5390  -26.8620   13.3370 N.3   304  TRP304     -0.1241
     39  CA         7.4770  -27.2770   12.1880 C.3   304  TRP304      0.1605
     40  C          7.4640  -26.2950   11.0460 C.2   304  TRP304      0.2264
     41  O          8.5140  -26.0260   10.3950 O.2   304  TRP304     -0.2867
     42  CB         7.1510  -28.6800   11.6180 C.3   304  TRP304      0.0550
     43  CG         7.7340  -29.8420   12.4270 C.ar  304  TRP304      0.0003
     44  CD1        8.9600  -30.4180   12.2670 C.ar  304  TRP304      0.0946
     45  CD2        7.0890  -30.5560   13.5160 C.ar  304  TRP304      0.0152
     46  NE1        9.1300  -31.4420   13.1790 N.ar  304  TRP304     -0.2442
     47  CE2        8.0060  -31.5560   13.9570 C.ar  304  TRP304      0.0810
     48  CE3        5.8390  -30.4330   14.1730 C.ar  304  TRP304      0.0012
     49  CZ2        7.7010  -32.4420   15.0290 C.ar  304  TRP304      0.0191
     50  CZ3        5.5490  -31.3140   15.2270 C.ar  304  TRP304      0.0001
     51  CH2        6.4640  -32.3030   15.6420 C.ar  304  TRP304      0.0015
     52  N          9.2880  -28.6960   21.1960 N.3   359  ASP359     -0.1239
     53  CA         9.6000  -29.9890   20.6970 C.3   359  ASP359      0.1674
     54  C         11.1140  -29.7970   20.2630 C.2   359  ASP359      0.2266
     55  O         11.6790  -28.6720   20.3170 O.2   359  ASP359     -0.2867
     56  CB         8.6110  -30.2560   19.5800 C.3   359  ASP359      0.1410
     57  CG         8.7770  -31.6050   18.9260 C.2   359  ASP359      0.3668
     58  OD1        9.5800  -32.4620   19.3970 O.co2 359  ASP359     -0.2456
     59  OD2        8.0670  -31.8100   17.9130 O.co2 359  ASP359     -0.2456
     60  N         10.3530  -31.8020   25.4100 N.3   385  ALA385     -0.1245
     61  CA        10.3800  -33.2210   25.1410 C.3   385  ALA385      0.1562
     62  C         11.2320  -33.4950   23.8950 C.2   385  ALA385      0.2260
     63  O         10.7810  -33.2730   22.7780 O.2   385  ALA385     -0.2867
     64  CB         8.9720  -33.7440   24.9440 C.3   385  ALA385      0.0290
     65  N          9.8760  -40.2560   27.6400 N.3   425  TYR425     -0.1227
     66  CA         8.7280  -40.5690   26.7810 C.3   425  TYR425      0.1736
     67  C          9.0220  -41.6800   25.8020 C.2   425  TYR425      0.2596
     68  O         10.1720  -42.0070   25.5590 O.2   425  TYR425     -0.2718
     69  CB         8.2540  -39.3560   25.9740 C.3   425  TYR425      0.0548
     70  CG         9.1330  -38.9200   24.8390 C.ar  425  TYR425     -0.0200
     71  CD1       10.2550  -38.1300   25.0790 C.ar  425  TYR425     -0.0009
     72  CD2        8.8020  -39.2160   23.5180 C.ar  425  TYR425     -0.0009
     73  CE1       11.0430  -37.6790   24.0480 C.ar  425  TYR425      0.0417
     74  CE2        9.5940  -38.7760   22.4680 C.ar  425  TYR425      0.0417
     75  CZ        10.7100  -38.0090   22.7500 C.ar  425  TYR425      0.1957
     76  OH        11.4910  -37.5340   21.7630 O.3   425  TYR425     -0.2866
     77  N          7.9420  -42.2180   25.2420 N.am  426  THR426     -0.1939
     78  CA         7.9590  -43.0370   24.0450 C.3   426  THR426      0.2028
     79  C          6.9740  -42.4690   23.0560 C.2   426  THR426      0.2642
     80  O          6.0440  -41.7220   23.4210 O.2   426  THR426     -0.2714
     81  CB         7.5040  -44.4780   24.3340 C.3   426  THR426      0.1808
     82  OG1        6.1850  -44.4670   24.9490 O.3   426  THR426     -0.2208
     83  CG2        8.5100  -45.1470   25.2420 C.3   426  THR426      0.0379
     84  N          7.1500  -42.8600   21.8060 N.am  427  CYS427     -0.1953
     85  CA         6.2430  -42.4420   20.7540 C.3   427  CYS427      0.1843
     86  C          6.2750  -43.5300   19.6610 C.2   427  CYS427      0.2625
     87  O          6.5050  -44.7050   19.9850 O.2   427  CYS427     -0.2714
     88  CB         6.6910  -41.0670   20.2640 C.3   427  CYS427      0.0997
     89  SG         8.3580  -41.1020   19.5790 S.3   427  CYS427     -0.0797
     90  N          6.0490  -43.1590   18.3920 N.am  428  CYS428     -0.1968
     91  CA         6.1190  -44.1110   17.2860 C.3   428  CYS428      0.1712
     92  C          7.4930  -44.7780   17.0270 C.2   428  CYS428      0.2296
     93  O          7.5510  -45.7480   16.2770 O.2   428  CYS428     -0.2864
     94  CB         5.6150  -43.4500   15.9810 C.3   428  CYS428      0.0983
     95  SG         6.5940  -42.0210   15.4010 S.3   428  CYS428     -0.0798
     96  N          5.7250  -39.3320   29.9710 N.3   460  LEU460     -0.1245
     97  CA         5.0320  -38.3920   29.0720 C.3   460  LEU460      0.1561
     98  C          4.6750  -39.0890   27.7980 C.2   460  LEU460      0.2260
     99  O          5.4820  -39.8440   27.2780 O.2   460  LEU460     -0.2867
    100  CB         5.9320  -37.2070   28.7170 C.3   460  LEU460      0.0270
    101  CG         5.3830  -36.1350   27.7110 C.3   460  LEU460      0.0019
    102  CD1        6.0130  -34.7670   28.0220 C.3   460  LEU460      0.0001
    103  CD2        5.6470  -36.5020   26.2660 C.3   460  LEU460      0.0001
    104  N          2.4540  -38.1040   23.9810 N.3   462  TRP462     -0.1241
    105  CA         1.9770  -36.9650   23.2120 C.3   462  TRP462      0.1605
    106  C          0.4610  -36.9070   22.9050 C.2   462  TRP462      0.2264
    107  O          0.0110  -35.9130   22.3330 O.2   462  TRP462     -0.2867
    108  CB         2.7500  -36.9110   21.8990 C.3   462  TRP462      0.0550
    109  CG         2.2840  -37.8940   20.9000 C.ar  462  TRP462      0.0003
    110  CD1        2.5100  -39.2570   20.8990 C.ar  462  TRP462      0.0946
    111  CD2        1.4610  -37.6300   19.7700 C.ar  462  TRP462      0.0152
    112  NE1        1.9170  -39.8390   19.7910 N.ar  462  TRP462     -0.2442
    113  CE2        1.2580  -38.8640   19.0940 C.ar  462  TRP462      0.0810
    114  CE3        0.8570  -36.4730   19.2590 C.ar  462  TRP462      0.0012
    115  CZ2        0.4940  -38.9570   17.9320 C.ar  462  TRP462      0.0191
    116  CZ3        0.1290  -36.5550   18.0920 C.ar  462  TRP462      0.0001
    117  CH2       -0.0640  -37.7900   17.4420 C.ar  462  TRP462      0.0015
    118  N          1.6060  -43.4340   11.4920 N.3   480  TRP480     -0.1241
    119  CA         1.9760  -44.1510   12.7130 C.3   480  TRP480      0.1605
    120  C          1.1690  -45.4210   12.9530 C.2   480  TRP480      0.2264
    121  O          0.2200  -45.7240   12.2420 O.2   480  TRP480     -0.2867
    122  CB         1.9630  -43.2240   13.9530 C.3   480  TRP480      0.0550
    123  CG         2.4650  -41.8410   13.6600 C.ar  480  TRP480      0.0003
    124  CD1        3.7080  -41.4990   13.1850 C.ar  480  TRP480      0.0946
    125  CD2        1.7350  -40.6180   13.7660 C.ar  480  TRP480      0.0152
    126  NE1        3.8000  -40.1610   13.0270 N.ar  480  TRP480     -0.2442
    127  CE2        2.6140  -39.5780   13.3760 C.ar  480  TRP480      0.0810
    128  CE3        0.4460  -40.2980   14.1580 C.ar  480  TRP480      0.0012
    129  CZ2        2.2330  -38.2300   13.3570 C.ar  480  TRP480      0.0191
    130  CZ3        0.0700  -38.9660   14.1570 C.ar  480  TRP480      0.0001
    131  CH2        0.9640  -37.9450   13.7540 C.ar  480  TRP480      0.0015
    132  N         -1.5100  -44.9340   18.5110 N.3   484  ASP484     -0.1239
    133  CA        -0.5500  -43.9310   18.8760 C.3   484  ASP484      0.1674
    134  C         -1.2400  -42.5980   19.2630 C.2   484  ASP484      0.2266
    135  O         -0.7070  -41.8510   20.0700 O.2   484  ASP484     -0.2867
    136  CB         0.4560  -43.7200   17.7260 C.3   484  ASP484      0.1410
    137  CG         1.7350  -42.9790   18.1610 C.2   484  ASP484      0.3668
    138  OD1        2.1910  -43.0990   19.3290 O.co2 484  ASP484     -0.2456
    139  OD2        2.2820  -42.2450   17.3090 O.co2 484  ASP484     -0.2456
@<TRIPOS>BOND
     1    41    40    2
     2    40    39    1
     3   118   119    1
     4    42    39    1
     5    42    43    1
     6    39    38    1
     7   121   120    2
     8    44    43   ar
     9    44    46   ar
    10    32    31    2
    11    30    29    1
    12    30    31    1
    13    30    33    1
    14    43    45   ar
    15   119   120    1
    16   119   122    1
    17   126   124   ar
    18   126   127   ar
    19    33    34    1
    20    46    47   ar
    21   124   123   ar
    22   129   127   ar
    23   129   131   ar
    24    18    17    2
    25   127   125   ar
    26    45    47   ar
    27    45    48   ar
    28   123   125   ar
    29   123   122    1
    30   131   130   ar
    31   125   128   ar
    32    17    16    1
    33    47    49   ar
    34   130   128   ar
    35    48    50   ar
    36    34    35    1
    37    36    35    2
    38    49    51   ar
    39    50    51   ar
    40    16    15    1
    41    16    19    1
    42    35    37   am
    43    95    94    1
    44    94    91    1
    45    19    20    1
    46    93    92    2
    47    92    91    1
    48    91    90    1
    49   139   137   ar
    50   117   115   ar
    51   117   116   ar
    52    20    21   ar
    53    20    22   ar
    54   136   137    1
    55   136   133    1
    56    21    23   ar
    57    59    57   ar
    58   115   113   ar
    59   116   114   ar
    60   137   138   ar
    61    90    86   am
    62   132   133    1
    63    22    25   ar
    64    22    24   ar
    65   133   134    1
    66    57    58   ar
    67    57    56    1
    68    25    27   ar
    69   113   111   ar
    70   113   112   ar
    71    23    24   ar
    72   114   111   ar
    73   134   135    2
    74    89    88    1
    75    56    53    1
    76    86    87    2
    77    86    85    1
    78    24    26   ar
    79   111   109   ar
    80   112   110   ar
    81    54    55    2
    82    54    53    1
    83    88    85    1
    84    27    28   ar
    85    53    52    1
    86    85    84    1
    87   110   109   ar
    88   109   108    1
    89    26    28   ar
    90    76    75    1
    91    84    79   am
    92   108   105    1
    93    13    11   ar
    94    13    14   ar
    95   107   106    2
    96    74    75   ar
    97    74    72   ar
    98    11     8   ar
    99    75    73   ar
   100    14    12   ar
   101    63    62    2
   102   106   105    1
   103    79    80    2
   104    79    78    1
   105   105   104    1
   106    72    70   ar
   107    62    61    1
   108    78    81    1
   109    78    77    1
   110    73    71   ar
   111     8    10   ar
   112     8     6   ar
   113    12    10   ar
   114    81    82    1
   115    81    83    1
   116    10     9   ar
   117     5     6    1
   118     5     2    1
   119    70    71   ar
   120    70    69    1
   121    64    61    1
   122     4     3    2
   123     6     7   ar
   124    61    60    1
   125    77    67   am
   126    68    67    2
   127     3     2    1
   128    67    66    1
   129    69    66    1
   130     2     1    1
   131     9     7   ar
   132   103   101    1
   133    66    65    1
   134    99    98    2
   135   101   102    1
   136   101   100    1
   137    98    97    1
   138   100    97    1
   139    97    96    1
