@<TRIPOS>MOLECULE
tmp/5l7vA00.pdb
 148 148 0 0 0
SMALL
GASTEIGER

@<TRIPOS>ATOM
      1  N          4.7230   39.5490   28.9810 N.3   206  TRP206     -0.1241
      2  CA         4.2760   38.5750   29.9680 C.3   206  TRP206      0.1605
      3  C          2.8310   38.8240   30.3700 C.2   206  TRP206      0.2264
      4  O          2.4630   39.9510   30.6860 O.2   206  TRP206     -0.2867
      5  CB         5.1270   38.6040   31.2240 C.3   206  TRP206      0.0550
      6  CG         6.5560   38.4080   30.9960 C.ar  206  TRP206      0.0003
      7  CD1        7.1400   37.9430   29.8690 C.ar  206  TRP206      0.0946
      8  CD2        7.6060   38.6080   31.9300 C.ar  206  TRP206      0.0152
      9  NE1        8.4880   37.9220   30.0000 N.ar  206  TRP206     -0.2442
     10  CE2        8.8110   38.3020   31.2690 C.ar  206  TRP206      0.0810
     11  CE3        7.6570   39.0660   33.2480 C.ar  206  TRP206      0.0012
     12  CZ2       10.0590   38.4060   31.8830 C.ar  206  TRP206      0.0191
     13  CZ3        8.9170   39.1480   33.8750 C.ar  206  TRP206      0.0001
     14  CH2       10.0920   38.8300   33.1830 C.ar  206  TRP206      0.0015
     15  N          7.3040   36.4760   41.4030 N.3   253  TRP253     -0.1241
     16  CA         7.8510   37.8160   41.5670 C.3   253  TRP253      0.1605
     17  C          7.4810   38.4430   42.9120 C.2   253  TRP253      0.2264
     18  O          7.5770   39.6330   43.0510 O.2   253  TRP253     -0.2867
     19  CB         7.3720   38.6890   40.4200 C.3   253  TRP253      0.0550
     20  CG         7.7950   38.2020   39.0620 C.ar  253  TRP253      0.0003
     21  CD1        8.9950   38.4370   38.4630 C.ar  253  TRP253      0.0946
     22  CD2        7.0280   37.4300   38.1280 C.ar  253  TRP253      0.0152
     23  NE1        9.0170   37.8710   37.1970 N.ar  253  TRP253     -0.2442
     24  CE2        7.8350   37.2340   36.9770 C.ar  253  TRP253      0.0810
     25  CE3        5.7310   36.9200   38.1330 C.ar  253  TRP253      0.0012
     26  CZ2        7.4030   36.5240   35.8730 C.ar  253  TRP253      0.0191
     27  CZ3        5.2780   36.2150   37.0120 C.ar  253  TRP253      0.0001
     28  CH2        6.1150   36.0160   35.9040 C.ar  253  TRP253      0.0015
     29  N          5.0660   41.7110   43.1220 N.3   256  GLN256     -0.1245
     30  CA         5.4990   43.0690   42.7960 C.3   256  GLN256      0.1566
     31  C          4.3740   43.8200   42.0660 C.2   256  GLN256      0.2260
     32  O          4.3840   45.0310   42.0680 O.2   256  GLN256     -0.2867
     33  CB         6.7960   43.0930   41.9630 C.3   256  GLN256      0.0367
     34  CG         6.5660   42.7510   40.5020 C.3   256  GLN256      0.0905
     35  CD         7.8060   42.6540   39.6380 C.2   256  GLN256      0.2608
     36  OE1        8.8180   43.3660   39.8390 O.2   256  GLN256     -0.2717
     37  NE2        7.7210   41.7920   38.6130 N.am  256  GLN256     -0.0878
     38  N         11.6730   35.8070   43.3730 N.3   306  TRP306     -0.1241
     39  CA        12.2850   36.9690   43.9650 C.3   306  TRP306      0.1605
     40  C         12.4610   36.8970   45.4870 C.2   306  TRP306      0.2264
     41  O         13.3540   37.5310   46.0260 O.2   306  TRP306     -0.2867
     42  CB        11.5200   38.2240   43.4780 C.3   306  TRP306      0.0550
     43  CG        11.8960   38.5800   42.0280 C.ar  306  TRP306      0.0003
     44  CD1       12.3230   37.7070   41.0430 C.ar  306  TRP306      0.0946
     45  CD2       11.8980   39.8890   41.4270 C.ar  306  TRP306      0.0152
     46  NE1       12.5860   38.4080   39.8730 N.ar  306  TRP306     -0.2442
     47  CE2       12.3380   39.7390   40.0860 C.ar  306  TRP306      0.0810
     48  CE3       11.5330   41.1610   41.8780 C.ar  306  TRP306      0.0012
     49  CZ2       12.4320   40.8160   39.2060 C.ar  306  TRP306      0.0191
     50  CZ3       11.6510   42.2360   41.0140 C.ar  306  TRP306      0.0001
     51  CH2       12.0880   42.0620   39.6910 C.ar  306  TRP306      0.0015
     52  N         14.2230   35.8600   36.0490 N.3   361  ASP361     -0.1225
     53  CA        14.0460   37.2690   35.8150 C.3   361  ASP361      0.1805
     54  C         15.0690   37.9720   36.6810 C.2   361  ASP361      0.2597
     55  O         14.8690   38.1220   37.8570 O.2   361  ASP361     -0.2718
     56  CB        12.5840   37.6450   36.1580 C.3   361  ASP361      0.1424
     57  CG        12.2910   39.1310   36.0210 C.2   361  ASP361      0.3668
     58  OD1       13.1430   39.8850   35.4510 O.co2 361  ASP361     -0.2456
     59  OD2       11.1940   39.5340   36.4940 O.co2 361  ASP361     -0.2456
     60  N         16.1560   38.4110   36.0570 N.am  362  GLU362     -0.1979
     61  CA        17.1430   39.3070   36.6570 C.3   362  GLU362      0.1602
     62  C         17.8570   38.7480   37.9080 C.2   362  GLU362      0.2287
     63  O         18.0300   39.4520   38.9120 O.2   362  GLU362     -0.2864
     64  CB        16.5380   40.6870   36.9230 C.3   362  GLU362      0.0415
     65  CG        16.2210   41.4740   35.6660 C.3   362  GLU362      0.1163
     66  CD        15.8100   42.9190   35.9490 C.2   362  GLU362      0.3649
     67  OE1       15.3860   43.2010   37.0950 O.co2 362  GLU362     -0.2457
     68  OE2       15.8900   43.7940   35.0420 O.co2 362  GLU362     -0.2457
     69  N         15.9180   36.7510   31.3740 N.3   387  ALA387     -0.1245
     70  CA        15.8410   38.1370   31.0280 C.3   387  ALA387      0.1562
     71  C         16.6120   38.8270   32.1170 C.2   387  ALA387      0.2260
     72  O         16.1840   38.8480   33.2700 O.2   387  ALA387     -0.2867
     73  CB        14.3960   38.6030   30.9940 C.3   387  ALA387      0.0290
     74  N         15.3140   43.9280   26.3200 N.3   427  TYR427     -0.1227
     75  CA        14.2330   44.5860   27.0060 C.3   427  TYR427      0.1736
     76  C         14.5820   45.9750   27.4770 C.2   427  TYR427      0.2596
     77  O         15.7340   46.3670   27.5400 O.2   427  TYR427     -0.2718
     78  CB        13.7050   43.7740   28.1700 C.3   427  TYR427      0.0548
     79  CG        14.6140   43.6880   29.3630 C.ar  427  TYR427     -0.0200
     80  CD1       15.7040   42.8080   29.3720 C.ar  427  TYR427     -0.0009
     81  CD2       14.3680   44.4330   30.5020 C.ar  427  TYR427     -0.0009
     82  CE1       16.5420   42.7090   30.4670 C.ar  427  TYR427      0.0417
     83  CE2       15.1910   44.3240   31.6050 C.ar  427  TYR427      0.0417
     84  CZ        16.2750   43.4580   31.5730 C.ar  427  TYR427      0.1957
     85  OH        17.0820   43.3530   32.6530 O.3   427  TYR427     -0.2866
     86  N         13.5320   46.7600   27.6620 N.am  428  THR428     -0.1939
     87  CA        13.5660   47.9160   28.4960 C.3   428  THR428      0.2028
     88  C         12.5960   47.5780   29.6290 C.2   428  THR428      0.2642
     89  O         11.7140   46.6710   29.5380 O.2   428  THR428     -0.2714
     90  CB        13.0890   49.1730   27.7650 C.3   428  THR428      0.1808
     91  OG1       11.7010   49.0300   27.3980 O.3   428  THR428     -0.2208
     92  CG2       13.8780   49.4090   26.5270 C.3   428  THR428      0.0379
     93  N         12.7970   48.3340   30.6940 N.am  429  CYS429     -0.1953
     94  CA        12.0780   48.2150   31.9470 C.3   429  CYS429      0.1843
     95  C         11.9150   49.6740   32.4610 C.2   429  CYS429      0.2625
     96  O         11.8640   50.6200   31.6700 O.2   429  CYS429     -0.2714
     97  CB        12.9360   47.3470   32.8930 C.3   429  CYS429      0.0997
     98  SG        14.5780   48.0290   33.2540 S.3   429  CYS429     -0.0797
     99  N         11.8540   49.8480   33.7750 N.am  430  CYS430     -0.1968
    100  CA        11.8900   51.1710   34.3680 C.3   430  CYS430      0.1712
    101  C         13.1990   51.9830   34.2080 C.2   430  CYS430      0.2296
    102  O         13.1630   53.1730   34.4540 O.2   430  CYS430     -0.2864
    103  CB        11.5820   51.0330   35.8590 C.3   430  CYS430      0.0983
    104  SG        12.8410   50.0820   36.7770 S.3   430  CYS430     -0.0798
    105  N         11.2030   42.0600   24.3540 N.3   462  LEU462     -0.1245
    106  CA        10.5470   41.5940   25.5580 C.3   462  LEU462      0.1561
    107  C         10.1470   42.7490   26.4690 C.2   462  LEU462      0.2260
    108  O         10.9220   43.6540   26.7120 O.2   462  LEU462     -0.2867
    109  CB        11.4960   40.6760   26.3100 C.3   462  LEU462      0.0270
    110  CG        10.9250   39.9910   27.5530 C.3   462  LEU462      0.0019
    111  CD1       11.5660   38.5930   27.7400 C.3   462  LEU462      0.0001
    112  CD2       11.0420   40.8260   28.8290 C.3   462  LEU462      0.0001
    113  N          7.8610   43.1000   30.3450 N.3   464  TRP464     -0.1241
    114  CA         7.5120   42.2670   31.4620 C.3   464  TRP464      0.1605
    115  C          6.0610   42.3090   31.8920 C.2   464  TRP464      0.2264
    116  O          5.6810   41.5860   32.8010 O.2   464  TRP464     -0.2867
    117  CB         8.3840   42.6530   32.6480 C.3   464  TRP464      0.0550
    118  CG         7.9200   43.8960   33.2890 C.ar  464  TRP464      0.0003
    119  CD1        8.1000   45.1560   32.8430 C.ar  464  TRP464      0.0946
    120  CD2        7.1680   43.9980   34.4890 C.ar  464  TRP464      0.0152
    121  NE1        7.5240   46.0510   33.6930 N.ar  464  TRP464     -0.2442
    122  CE2        6.9440   45.3670   34.7230 C.ar  464  TRP464      0.0810
    123  CE3        6.6800   43.0680   35.4000 C.ar  464  TRP464      0.0012
    124  CZ2        6.2320   45.8250   35.8180 C.ar  464  TRP464      0.0191
    125  CZ3        6.0080   43.5090   36.4860 C.ar  464  TRP464      0.0001
    126  CH2        5.7830   44.8850   36.6950 C.ar  464  TRP464      0.0015
    127  N          7.2760   52.5730   39.8510 N.3   482  TRP482     -0.1241
    128  CA         7.5970   52.8470   38.4370 C.3   482  TRP482      0.1605
    129  C          6.7820   53.9520   37.8310 C.2   482  TRP482      0.2264
    130  O          5.7690   54.3780   38.3560 O.2   482  TRP482     -0.2867
    131  CB         7.5630   51.5710   37.5750 C.3   482  TRP482      0.0550
    132  CG         8.2500   50.4340   38.2940 C.ar  482  TRP482      0.0003
    133  CD1        9.5460   50.4220   38.7370 C.ar  482  TRP482      0.0946
    134  CD2        7.6650   49.1950   38.7300 C.ar  482  TRP482      0.0152
    135  NE1        9.7980   49.2660   39.4220 N.ar  482  TRP482     -0.2442
    136  CE2        8.6660   48.4890   39.4330 C.ar  482  TRP482      0.0810
    137  CE3        6.4080   48.6210   38.6000 C.ar  482  TRP482      0.0012
    138  CZ2        8.4430   47.2280   40.0140 C.ar  482  TRP482      0.0191
    139  CZ3        6.1790   47.3560   39.1870 C.ar  482  TRP482      0.0001
    140  CH2        7.2060   46.6780   39.8730 C.ar  482  TRP482      0.0015
    141  N          3.9390   51.3010   33.2110 N.3   486  ASP486     -0.1239
    142  CA         4.9740   50.2460   33.2210 C.3   486  ASP486      0.1674
    143  C          4.3770   48.8540   33.3230 C.2   486  ASP486      0.2266
    144  O          4.9200   47.8930   32.7460 O.2   486  ASP486     -0.2867
    145  CB         5.9150   50.4250   34.3890 C.3   486  ASP486      0.1410
    146  CG         7.1960   49.5870   34.2690 C.2   486  ASP486      0.3668
    147  OD1        7.8260   49.5040   33.1900 O.co2 486  ASP486     -0.2456
    148  OD2        7.6350   49.0610   35.3000 O.co2 486  ASP486     -0.2456
@<TRIPOS>BOND
     1   105   106    1
     2   106   109    1
     3   106   107    1
     4   109   110    1
     5    74    75    1
     6   107   108    2
     7    92    90    1
     8    75    76    1
     9    75    78    1
    10    91    90    1
    11    76    77    2
    12    76    86   am
    13   110   111    1
    14   110   112    1
    15    86    87    1
    16    90    87    1
    17    78    79    1
    18    87    88    1
    19     1     2    1
    20    79    80   ar
    21    79    81   ar
    22    80    82   ar
    23    89    88    2
    24    88    93   am
    25     7     9   ar
    26     7     6   ar
    27     2     3    1
    28     2     5    1
    29     9    10   ar
    30   113   114    1
    31     3     4    2
    32    82    84   ar
    33    81    83   ar
    34    93    94    1
    35    73    70    1
    36     6     5    1
    37     6     8   ar
    38    70    69    1
    39    70    71    1
    40    10    12   ar
    41    10     8   ar
    42   114   115    1
    43   114   117    1
    44    84    83   ar
    45    84    85    1
    46    96    95    2
    47    12    14   ar
    48   115   116    2
    49     8    11   ar
    50    94    95    1
    51    94    97    1
    52    71    72    2
    53    95    99   am
    54   117   118    1
    55   144   143    2
    56   119   118   ar
    57   119   121   ar
    58    97    98    1
    59    14    13   ar
    60   147   146   ar
    61   141   142    1
    62   142   143    1
    63   142   145    1
    64    11    13   ar
    65   118   120   ar
    66   121   122   ar
    67    99   100    1
    68   101   100    1
    69   101   102    2
    70   146   145    1
    71   146   148   ar
    72   100   103    1
    73   120   122   ar
    74   120   123   ar
    75   122   124   ar
    76    68    66   ar
    77   123   125   ar
    78    58    57   ar
    79    65    66    1
    80    65    64    1
    81    53    52    1
    82    53    56    1
    83    53    54    1
    84   124   126   ar
    85   103   104    1
    86    26    28   ar
    87    26    24   ar
    88    28    27   ar
    89    66    67   ar
    90    57    56    1
    91    57    59   ar
    92    60    61    1
    93    60    54   am
    94   125   126   ar
    95    61    64    1
    96    61    62    1
    97    54    55    2
    98    24    23   ar
    99    24    22   ar
   100    27    25   ar
   101    23    21   ar
   102   131   132    1
   103   131   128    1
   104   129   130    2
   105   129   128    1
   106    62    63    2
   107    22    25   ar
   108    22    20   ar
   109   132   134   ar
   110   132   133   ar
   111   128   127    1
   112    21    20   ar
   113   137   134   ar
   114   137   139   ar
   115    37    35   am
   116   134   136   ar
   117   133   135   ar
   118    20    19    1
   119   139   140   ar
   120    49    51   ar
   121    49    47   ar
   122   135   136   ar
   123   136   138   ar
   124    35    36    2
   125    35    34    1
   126    51    50   ar
   127    46    47   ar
   128    46    44   ar
   129   140   138   ar
   130    47    45   ar
   131    19    16    1
   132    34    33    1
   133    50    48   ar
   134    44    43   ar
   135    15    16    1
   136    45    48   ar
   137    45    43   ar
   138    16    17    1
   139    33    30    1
   140    43    42    1
   141    31    32    2
   142    31    30    1
   143    30    29    1
   144    17    18    2
   145    38    39    1
   146    42    39    1
   147    39    40    1
   148    40    41    2
