@<TRIPOS>MOLECULE
tmp/5l7xA00.pdb
 76 71 0 0 0
SMALL
GASTEIGER

@<TRIPOS>ATOM
      1  N         -4.5730  -14.3640   13.3650 N.3    38  LYS38      -0.1245
      2  CA        -3.2570  -13.9370   12.9450 C.3    38  LYS38       0.1561
      3  C         -3.2040  -13.8460   11.4090 C.2    38  LYS38       0.2260
      4  O         -3.7560  -14.7180   10.7190 O.2    38  LYS38      -0.2867
      5  CB        -2.2720  -14.9960   13.3750 C.3    38  LYS38       0.0271
      6  CG        -0.8470  -14.7460   12.9610 C.3    38  LYS38       0.0035
      7  CD         0.0270  -15.8650   13.4520 C.3    38  LYS38       0.0206
      8  CE         1.4710  -15.6010   13.1300 C.3    38  LYS38       0.1093
      9  NZ         2.2930  -16.7550   13.5870 N.3    38  LYS38      -0.1314
     10  N         -2.6200  -25.7080   17.5950 N.3    63  LYS63      -0.1231
     11  CA        -1.3240  -25.1510   17.3030 C.3    63  LYS63       0.1693
     12  C         -0.8970  -24.0610   18.2730 C.2    63  LYS63       0.2592
     13  O          0.2890  -23.8640   18.4820 O.2    63  LYS63      -0.2718
     14  CB        -1.3830  -24.5590   15.8870 C.3    63  LYS63       0.0285
     15  CG        -0.1030  -23.9490   15.3590 C.3    63  LYS63       0.0035
     16  CD        -0.3030  -23.6320   13.8840 C.3    63  LYS63       0.0206
     17  CE         0.7460  -22.6740   13.3540 C.3    63  LYS63       0.1093
     18  NZ         0.5510  -22.4340   11.8980 N.3    63  LYS63      -0.1314
     19  N         -1.8670  -23.3290   18.8110 N.am   64  PHE64      -0.1976
     20  CA        -1.6170  -22.1640   19.6430 C.3    64  PHE64       0.1639
     21  C         -1.9510  -22.4020   21.1260 C.2    64  PHE64       0.2290
     22  O         -1.7930  -21.4730   21.9210 O.2    64  PHE64      -0.2864
     23  CB        -2.4460  -20.9560   19.1580 C.3    64  PHE64       0.0560
     24  CG        -1.9870  -20.4010   17.8500 C.ar   64  PHE64      -0.0200
     25  CD1       -1.0220  -19.3900   17.8050 C.ar   64  PHE64      -0.0042
     26  CD2       -2.4940  -20.9020   16.6670 C.ar   64  PHE64      -0.0042
     27  CE1       -0.5820  -18.8750   16.5790 C.ar   64  PHE64      -0.0003
     28  CE2       -2.0700  -20.3870   15.4350 C.ar   64  PHE64      -0.0003
     29  CZ        -1.1020  -19.3820   15.3960 C.ar   64  PHE64      -0.0000
     30  N         -0.5040  -23.7550   23.4600 N.3    66  GLY66      -0.1210
     31  CA         0.6650  -23.5040   24.2950 C.3    66  GLY66       0.1956
     32  C          1.0330  -22.0360   24.3510 C.2    66  GLY66       0.2611
     33  O          1.2530  -21.4960   25.4350 O.2    66  GLY66      -0.2717
     34  N          1.0320  -21.3830   23.1930 N.am   67  LYS67      -0.1979
     35  CA         1.5790  -20.0440   23.0270 C.3    67  LYS67       0.1596
     36  C          0.6350  -18.9170   23.4400 C.2    67  LYS67       0.2287
     37  O          1.0810  -17.8420   23.8180 O.2    67  LYS67      -0.2864
     38  CB         1.9450  -19.8290   21.5570 C.3    67  LYS67       0.0298
     39  CG         2.4640  -18.4350   21.2270 C.3    67  LYS67       0.0038
     40  CD         3.1070  -18.3610   19.8650 C.3    67  LYS67       0.0206
     41  CE         4.5170  -18.9280   19.8730 C.3    67  LYS67       0.1093
     42  NZ         5.5480  -18.0230   20.4440 N.3    67  LYS67      -0.1314
     43  N          3.3310  -15.9590   24.2890 N.3    84  SER84      -0.1202
     44  CA         4.5790  -16.1580   25.0050 C.3    84  SER84       0.2020
     45  C          5.6220  -16.8810   24.1880 C.2    84  SER84       0.2619
     46  O          5.3170  -17.4480   23.1320 O.2    84  SER84      -0.2717
     47  CB         4.3090  -16.9170   26.2930 C.3    84  SER84       0.2103
     48  OG         3.6220  -18.1070   26.0110 O.3    84  SER84      -0.2182
     49  N          6.8550  -16.8550   24.7060 N.am   85  SER85      -0.1951
     50  CA         8.0330  -17.4390   24.0590 C.3    85  SER85       0.1924
     51  C          8.1180  -16.9760   22.6010 C.2    85  SER85       0.2314
     52  O          8.1390  -17.7970   21.6960 O.2    85  SER85      -0.2863
     53  CB         7.9750  -18.9650   24.1180 C.3    85  SER85       0.2116
     54  OG         7.8330  -19.3860   25.4490 O.3    85  SER85      -0.2180
     55  N          8.9530  -15.5280   18.8960 N.3    87  ALA87      -0.1245
     56  CA        10.0320  -15.6580   17.9030 C.3    87  ALA87       0.1562
     57  C          9.6610  -14.8720   16.6420 C.2    87  ALA87       0.2260
     58  O          8.5340  -14.3370   16.5670 O.2    87  ALA87      -0.2867
     59  CB        10.2410  -17.1270   17.5800 C.3    87  ALA87       0.0290
     60  N          8.6250  -15.6580   13.7760 N.3    89  GLU89      -0.1231
     61  CA         7.4570  -16.1600   13.0670 C.3    89  GLU89       0.1699
     62  C          6.1650  -15.6950   13.6750 C.2    89  GLU89       0.2592
     63  O          5.1160  -15.8310   13.0510 O.2    89  GLU89      -0.2718
     64  CB         7.4770  -17.6920   12.9970 C.3    89  GLU89       0.0402
     65  CG         8.6870  -18.2800   12.2650 C.3    89  GLU89       0.1161
     66  CD         9.9800  -18.4230   13.1220 C.2    89  GLU89       0.3649
     67  OE1       10.0290  -18.0230   14.3140 O.co2  89  GLU89      -0.2457
     68  OE2       10.9940  -18.9420   12.5920 O.co2  89  GLU89      -0.2457
     69  N          6.2170  -15.1660   14.8980 N.am   90  ASP90      -0.1974
     70  CA         5.0480  -14.5540   15.5150 C.3    90  ASP90       0.1709
     71  C          4.7690  -13.1340   15.0080 C.2    90  ASP90       0.2293
     72  O          3.7010  -12.5670   15.3020 O.2    90  ASP90      -0.2864
     73  CB         5.1880  -14.5390   17.0460 C.3    90  ASP90       0.1436
     74  CG         5.3450  -15.9410   17.6470 C.2    90  ASP90       0.3671
     75  OD1        4.4630  -16.7970   17.4170 O.co2  90  ASP90      -0.2456
     76  OD2        6.3490  -16.1790   18.3740 O.co2  90  ASP90      -0.2456
@<TRIPOS>BOND
     1     4     3    2
     2     3     2    1
     3    18    17    1
     4    65    64    1
     5    65    66    1
     6    68    66   ar
     7     2     1    1
     8     2     5    1
     9     6     5    1
    10     6     7    1
    11    64    61    1
    12    63    62    2
    13    61    62    1
    14    61    60    1
    15    66    67   ar
    16     8     7    1
    17     8     9    1
    18    17    16    1
    19    62    69   am
    20    16    15    1
    21    69    70    1
    22    71    72    2
    23    71    70    1
    24    15    14    1
    25    29    28   ar
    26    29    27   ar
    27    28    26   ar
    28    70    73    1
    29    14    11    1
    30    58    57    2
    31    27    25   ar
    32    57    56    1
    33    26    24   ar
    34    73    74    1
    35    11    10    1
    36    11    12    1
    37    75    74   ar
    38    59    56    1
    39    74    76   ar
    40    25    24   ar
    41    24    23    1
    42    56    55    1
    43    12    13    2
    44    12    19   am
    45    19    20    1
    46    23    20    1
    47    20    21    1
    48    40    41    1
    49    40    39    1
    50    41    42    1
    51    21    22    2
    52    39    38    1
    53    38    35    1
    54    52    51    2
    55    51    50    1
    56    35    34    1
    57    35    36    1
    58    46    45    2
    59    34    32   am
    60    36    37    2
    61    30    31    1
    62    50    53    1
    63    50    49    1
    64    53    54    1
    65    45    49   am
    66    45    44    1
    67    43    44    1
    68    31    32    1
    69    32    33    2
    70    44    47    1
    71    48    47    1
