@<TRIPOS>MOLECULE
tmp/5l87A00.pdb
 128 120 0 0 0
SMALL
GASTEIGER

@<TRIPOS>ATOM
      1  N          7.4320    8.4090    5.5640 N.3     6  ARG6       -0.1245
      2  CA         7.2530    7.3630    6.5640 C.3     6  ARG6        0.1563
      3  C          7.6640    5.9860    6.0220 C.2     6  ARG6        0.2260
      4  O          8.3540    5.2110    6.7090 O.2     6  ARG6       -0.2867
      5  CB         5.8020    7.2890    7.0700 C.3     6  ARG6        0.0307
      6  CG         5.3960    8.4060    8.0070 C.3     6  ARG6        0.0489
      7  CD         4.0090    8.1740    8.6310 C.3     6  ARG6        0.2205
      8  NE         2.9030    8.1300    7.7110 N.pl3   6  ARG6       -0.0865
      9  CZ         2.2470    9.2280    7.2280 C.cat   6  ARG6        0.5346
     10  NH1        2.6150   10.4470    7.6000 N.pl3   6  ARG6        0.1354
     11  NH2        1.2180    9.0610    6.4060 N.pl3   6  ARG6        0.1354
     12  N         11.4950    5.7120    5.7150 N.3     9  ASN9       -0.1225
     13  CA        12.0810    5.4580    7.0040 C.3     9  ASN9        0.1785
     14  C         11.8790    3.9900    7.4330 C.2     9  ASN9        0.2597
     15  O         12.7830    3.3590    8.0030 O.2     9  ASN9       -0.2718
     16  CB        11.4660    6.3670    8.0840 C.3     9  ASN9        0.1169
     17  CG        12.2560    7.6430    8.3120 C.2     9  ASN9        0.2627
     18  OD1       11.6500    8.7940    8.1060 O.2     9  ASN9       -0.2716
     19  ND2       13.4460    7.5570    8.7370 N.am    9  ASN9       -0.0877
     20  N         10.6660    3.4810    7.1950 N.am   10  ALA10      -0.1979
     21  CA        10.3410    2.0930    7.5890 C.3    10  ALA10       0.1597
     22  C         11.1720    1.0800    6.8430 C.2    10  ALA10       0.2287
     23  O         11.6220    0.0820    7.4160 O.2    10  ALA10      -0.2864
     24  CB         8.8510    1.8580    7.3890 C.3    10  ALA10       0.0319
     25  N         14.1610    1.5300    5.6200 N.3    12  GLU12      -0.1231
     26  CA        15.5240    1.5520    6.1290 C.3    12  GLU12       0.1699
     27  C         15.6300    0.7930    7.4770 C.2    12  GLU12       0.2592
     28  O         16.5870    0.1000    7.7190 O.2    12  GLU12      -0.2718
     29  CB        15.9350    3.0290    6.1810 C.3    12  GLU12       0.0402
     30  CG        17.3770    3.2440    6.3770 C.3    12  GLU12       0.1161
     31  CD        17.8560    4.7110    6.0750 C.2    12  GLU12       0.3649
     32  OE1       17.2210    5.2590    5.1710 O.co2  12  GLU12      -0.2457
     33  OE2       18.7540    5.1150    6.7240 O.co2  12  GLU12      -0.2457
     34  N         14.6150    0.9800    8.3460 N.am   13  PHE13      -0.1976
     35  CA        14.5380    0.2130    9.5850 C.3    13  PHE13       0.1639
     36  C         14.5430   -1.3040    9.3180 C.2    13  PHE13       0.2290
     37  O         15.3450   -2.0360    9.8900 O.2    13  PHE13      -0.2864
     38  CB        13.2850    0.6500   10.3520 C.3    13  PHE13       0.0560
     39  CG        12.9470   -0.1960   11.5550 C.ar   13  PHE13      -0.0200
     40  CD1       13.6990   -0.1290   12.7370 C.ar   13  PHE13      -0.0042
     41  CD2       11.8660   -1.0840   11.5030 C.ar   13  PHE13      -0.0042
     42  CE1       13.3620   -0.9130   13.8360 C.ar   13  PHE13      -0.0003
     43  CE2       11.5410   -1.8790   12.6160 C.ar   13  PHE13      -0.0003
     44  CZ        12.2860   -1.7670   13.7790 C.ar   13  PHE13      -0.0000
     45  N         17.8620   -3.0260    8.3370 N.3    16  ASP16      -0.1239
     46  CA        19.0310   -3.0040    9.2270 C.3    16  ASP16       0.1674
     47  C         19.3950   -4.3970    9.7280 C.2    16  ASP16       0.2266
     48  O         18.5360   -5.2100   10.0280 O.2    16  ASP16      -0.2867
     49  CB        18.7260   -2.0820   10.4320 C.3    16  ASP16       0.1410
     50  CG        19.8970   -2.0220   11.4220 C.2    16  ASP16       0.3668
     51  OD1       20.7890   -1.1840   11.2280 O.co2  16  ASP16      -0.2456
     52  OD2       19.8670   -2.8260   12.3760 O.co2  16  ASP16      -0.2456
     53  N         20.4630   -5.6120   12.5210 N.3    18  ARG18      -0.1231
     54  CA        19.9710   -5.9840   13.8530 C.3    18  ARG18       0.1694
     55  C         18.5040   -6.2260   13.8460 C.2    18  ARG18       0.2591
     56  O         18.0450   -6.8760   14.8030 O.2    18  ARG18      -0.2718
     57  CB        20.2540   -4.8860   14.8680 C.3    18  ARG18       0.0321
     58  CG        21.7210   -4.5340   15.0660 C.3    18  ARG18       0.0489
     59  CD        21.8760   -3.1930   15.7060 C.3    18  ARG18       0.2205
     60  NE        21.5640   -2.1150   14.7180 N.pl3  18  ARG18      -0.0865
     61  CZ        21.8660   -0.8780   14.8790 C.cat  18  ARG18       0.5346
     62  NH1       22.3920   -0.4610   15.9880 N.pl3  18  ARG18       0.1354
     63  NH2       21.6890   -0.0900   13.8620 N.pl3  18  ARG18       0.1354
     64  N         17.7330   -5.5530   12.9600 N.am   19  VAL19      -0.1980
     65  CA        16.2900   -5.6020   12.8810 C.3    19  VAL19       0.1595
     66  C         15.8340   -6.8180   12.1050 C.2    19  VAL19       0.2287
     67  O         14.8320   -7.4500   12.4380 O.2    19  VAL19      -0.2864
     68  CB        15.7440   -4.2920   12.2300 C.3    19  VAL19       0.0276
     69  CG1       14.2470   -4.3780   12.0430 C.3    19  VAL19       0.0022
     70  CG2       16.1180   -3.0910   13.0650 C.3    19  VAL19       0.0022
     71  N         14.6340  -10.1850   13.5800 N.3    22  THR22      -0.1218
     72  CA        13.7420  -10.1150   14.7240 C.3    22  THR22       0.1862
     73  C         12.3300  -10.3460   14.3070 C.2    22  THR22       0.2287
     74  O         11.9970  -10.3330   13.1080 O.2    22  THR22      -0.2866
     75  CB        13.8900   -8.8030   15.4070 C.3    22  THR22       0.1770
     76  OG1       13.3240   -7.7690   14.7160 O.3    22  THR22      -0.2211
     77  CG2       15.3130   -8.5060   15.7690 C.3    22  THR22       0.0375
     78  N          7.1540   -7.5330   16.5680 N.3    26  SER26      -0.1202
     79  CA         7.8800   -6.4230   17.1990 C.3    26  SER26       0.2020
     80  C          8.1720   -5.3410   16.1960 C.2    26  SER26       0.2618
     81  O          8.0990   -4.1800   16.5390 O.2    26  SER26      -0.2717
     82  CB         9.2280   -6.8260   17.7760 C.3    26  SER26       0.2103
     83  OG         9.3080   -7.3540   18.9630 O.3    26  SER26      -0.2182
     84  N          8.4680   -5.6930   14.9400 N.am   27  LYS27      -0.1979
     85  CA         8.6860   -4.6910   13.8990 C.3    27  LYS27       0.1596
     86  C          7.4200   -3.8950   13.6080 C.2    27  LYS27       0.2287
     87  O          7.4500   -2.6660   13.4120 O.2    27  LYS27      -0.2864
     88  CB         9.2620   -5.3600   12.6430 C.3    27  LYS27       0.0298
     89  CG        10.6640   -5.9080   12.9530 C.3    27  LYS27       0.0038
     90  CD        11.4890   -6.4860   11.9020 C.3    27  LYS27       0.0206
     91  CE        10.7430   -7.6040   11.3910 C.3    27  LYS27       0.1093
     92  NZ        11.8050   -8.6560   10.5930 N.3    27  LYS27      -0.1314
     93  N          6.6160   -1.4550   16.4430 N.3    30  PHE30      -0.1227
     94  CA         7.5300   -0.3150   16.3620 C.3    30  PHE30       0.1736
     95  C          7.0770    0.6490   15.2740 C.2    30  PHE30       0.2595
     96  O          7.0100    1.8830   15.4600 O.2    30  PHE30      -0.2718
     97  CB         8.9720   -0.8020   16.0990 C.3    30  PHE30       0.0547
     98  CG         9.9510    0.3070   15.8970 C.ar   30  PHE30      -0.0202
     99  CD1       10.6390    0.8600   16.9720 C.ar   30  PHE30      -0.0042
    100  CD2       10.2290    0.7860   14.6340 C.ar   30  PHE30      -0.0042
    101  CE1       11.5760    1.8660   16.7900 C.ar   30  PHE30      -0.0003
    102  CE2       11.1470    1.7870   14.4240 C.ar   30  PHE30      -0.0003
    103  CZ        11.8310    2.3290   15.4990 C.ar   30  PHE30      -0.0000
    104  N          6.7830    0.1230   14.0670 N.am   31  LEU31      -0.1980
    105  CA         6.4120    1.0280   12.9690 C.3    31  LEU31       0.1596
    106  C          5.1170    1.7930   13.2480 C.2    31  LEU31       0.2287
    107  O          5.0120    2.9710   12.9040 O.2    31  LEU31      -0.2864
    108  CB         6.3530    0.2290   11.6710 C.3    31  LEU31       0.0297
    109  CG         7.7070   -0.2620   11.1570 C.3    31  LEU31       0.0022
    110  CD1        7.5160   -1.1380    9.9160 C.3    31  LEU31       0.0001
    111  CD2        8.6730    0.8950   10.8710 C.3    31  LEU31       0.0001
    112  N          5.8480    4.8310   15.2520 N.3    34  LYS34      -0.1245
    113  CA         6.4830    5.9030   14.5210 C.3    34  LYS34       0.1565
    114  C          5.4870    6.6230   13.5980 C.2    34  LYS34       0.2260
    115  O          5.9020    7.5540   12.9090 O.2    34  LYS34      -0.2867
    116  CB         7.6740    5.3620   13.6860 C.3    34  LYS34       0.0317
    117  CG         8.7920    4.7080   14.4840 C.3    34  LYS34       0.0294
    118  CD         9.4250    5.3220   15.6380 C.2    34  LYS34      -0.0067
    119  CE        10.6950    6.0720   15.3540 C.2    34  LYS34       0.1012
    120  NZ        11.2830    6.9080   16.3840 N.pl3  34  LYS34      -0.1270
    121  N          3.1390    5.0550   11.3240 N.3    36  LEU36      -0.1245
    122  CA         2.6420    4.3780   10.1250 C.3    36  LEU36       0.1561
    123  C          1.2490    3.7350   10.3920 C.2    36  LEU36       0.2260
    124  O          0.9770    3.2370   11.4500 O.2    36  LEU36      -0.2867
    125  CB         3.5800    3.2800    9.6240 C.3    36  LEU36       0.0270
    126  CG         4.7610    3.7680    8.7720 C.3    36  LEU36       0.0019
    127  CD1        5.8620    4.4220    9.6100 C.3    36  LEU36       0.0001
    128  CD2        5.3700    2.6010    7.9950 C.3    36  LEU36       0.0001
@<TRIPOS>BOND
     1    32    31   ar
     2     1     2    1
     3    25    26    1
     4    12    13    1
     5     3     2    1
     6     3     4    2
     7    31    30    1
     8    31    33   ar
     9    26    29    1
    10    26    27    1
    11    29    30    1
    12    11     9    1
    13     2     5    1
    14    22    23    2
    15    22    21    1
    16    13    14    1
    17    13    16    1
    18     5     6    1
    19    20    14   am
    20    20    21    1
    21     9    10    1
    22     9     8    2
    23    24    21    1
    24    14    15    2
    25    27    28    2
    26    27    34   am
    27     8     7    1
    28   128   126    1
    29     6     7    1
    30    16    17    1
    31    18    17    2
    32    17    19   am
    33    45    46    1
    34    34    35    1
    35   126   127    1
    36   126   125    1
    37    46    47    1
    38    46    49    1
    39    36    35    1
    40    36    37    2
    41    35    38    1
    42   125   122    1
    43    47    48    2
    44   110   109    1
    45   122   123    1
    46   122   121    1
    47    38    39    1
    48   123   124    2
    49    49    50    1
    50    92    91    1
    51   111   109    1
    52   109   108    1
    53    51    50   ar
    54    91    90    1
    55    50    52   ar
    56    41    39   ar
    57    41    43   ar
    58    39    40   ar
    59   108   105    1
    60    90    89    1
    61    69    68    1
    62    66    67    2
    63    66    65    1
    64    68    65    1
    65    68    70    1
    66    53    54    1
    67    43    44   ar
    68    88    89    1
    69    88    85    1
    70    40    42   ar
    71    65    64    1
    72   107   106    2
    73   115   114    2
    74    64    55   am
    75   105   106    1
    76   105   104    1
    77    74    73    2
    78    87    86    2
    79    71    72    1
    80   114   113    1
    81    86    85    1
    82   116   117    1
    83   116   113    1
    84    44    42   ar
    85    55    54    1
    86    55    56    2
    87    54    57    1
    88    63    61    1
    89    85    84    1
    90   104    95   am
    91    73    72    1
    92   102   100   ar
    93   102   103   ar
    94   117   118    1
    95   113   112    1
    96   100    98   ar
    97    76    75    1
    98    60    61    2
    99    60    59    1
   100    72    75    1
   101    57    58    1
   102    61    62    1
   103    84    80   am
   104    58    59    1
   105    95    96    2
   106    95    94    1
   107   119   118    2
   108   119   120    1
   109    75    77    1
   110   103   101   ar
   111    98    97    1
   112    98    99   ar
   113    97    94    1
   114    80    81    2
   115    80    79    1
   116    94    93    1
   117    78    79    1
   118   101    99   ar
   119    79    82    1
   120    82    83    1
