@<TRIPOS>MOLECULE
tmp/5l88A02.pdb
 103 98 0 0 0
SMALL
GASTEIGER

@<TRIPOS>ATOM
      1  N          3.9330   13.3190    8.7400 N.3    38  LYS38      -0.1245
      2  CA         4.2420   14.6550    9.1960 C.3    38  LYS38       0.1561
      3  C          4.4490   14.6300   10.7040 C.2    38  LYS38       0.2260
      4  O          3.6760   14.0020   11.4380 O.2    38  LYS38      -0.2867
      5  CB         3.0590   15.5720    8.8840 C.3    38  LYS38       0.0271
      6  CG         3.2090   17.0130    9.3260 C.3    38  LYS38       0.0035
      7  CD         2.0230   17.8260    8.8460 C.3    38  LYS38       0.0206
      8  CE         2.0770   19.2670    9.3100 C.3    38  LYS38       0.1093
      9  NZ         0.8270   19.9710    8.9090 N.3    38  LYS38      -0.1314
     10  N          5.0730   17.7030   13.5650 N.3    40  LYS40      -0.1245
     11  CA         5.3600   19.0470   14.0730 C.3    40  LYS40       0.1561
     12  C          6.2000   18.9320   15.3570 C.2    40  LYS40       0.2260
     13  O          6.1200   17.9050   16.0590 O.2    40  LYS40      -0.2867
     14  CB         4.0570   19.8230   14.3600 C.3    40  LYS40       0.0271
     15  CG         3.2670   20.2270   13.1220 C.3    40  LYS40       0.0035
     16  CD         2.0690   21.0820   13.5210 C.3    40  LYS40       0.0206
     17  CE         1.1000   21.2800   12.3790 C.3    40  LYS40       0.1093
     18  NZ        -0.0090   22.2220   12.7050 N.3    40  LYS40      -0.1314
     19  N         -7.8060   11.8440    3.7260 N.3    62  GLU62      -0.1231
     20  CA        -8.7740   12.7860    3.1040 C.3    62  GLU62       0.1699
     21  C         -8.4180   14.2440    3.3390 C.2    62  GLU62       0.2592
     22  O         -8.6390   15.0880    2.4640 O.2    62  GLU62      -0.2718
     23  CB       -10.1820   12.5400    3.6410 C.3    62  GLU62       0.0402
     24  CG       -10.8160   11.2770    3.0790 C.3    62  GLU62       0.1161
     25  CD       -11.8060   11.5270    1.9500 C.2    62  GLU62       0.3649
     26  OE1      -12.1340   12.6990    1.6460 O.co2  62  GLU62      -0.2457
     27  OE2      -12.2750   10.5320    1.3740 O.co2  62  GLU62      -0.2457
     28  N         -7.8690   14.5240    4.5270 N.am   63  LYS63      -0.1966
     29  CA        -7.3820   15.8450    4.8960 C.3    63  LYS63       0.1728
     30  C         -6.3520   16.3730    3.9200 C.2    63  LYS63       0.2616
     31  O         -6.2970   17.5610    3.6790 O.2    63  LYS63      -0.2715
     32  CB        -6.7570   15.7820    6.2840 C.3    63  LYS63       0.0311
     33  CG        -6.1620   17.0790    6.8100 C.3    63  LYS63       0.0038
     34  CD        -5.9720   16.9890    8.3180 C.3    63  LYS63       0.0206
     35  CE        -5.1390   18.1550    8.8370 C.3    63  LYS63       0.1093
     36  NZ        -4.7410   17.9340   10.2420 N.3    63  LYS63      -0.1314
     37  N         -5.5260   15.4740    3.3800 N.am   64  PHE64      -0.1960
     38  CA        -4.4040   15.8460    2.5330 C.3    64  PHE64       0.1771
     39  C         -4.6070   15.5930    1.0240 C.2    64  PHE64       0.2619
     40  O         -3.7000   15.8840    0.2540 O.2    64  PHE64      -0.2715
     41  CB        -3.1470   15.1220    3.0290 C.3    64  PHE64       0.0574
     42  CG        -2.6050   15.6850    4.3170 C.ar   64  PHE64      -0.0200
     43  CD1       -1.7240   16.7520    4.3040 C.ar   64  PHE64      -0.0042
     44  CD2       -2.9970   15.1760    5.5330 C.ar   64  PHE64      -0.0042
     45  CE1       -1.2430   17.2920    5.4900 C.ar   64  PHE64      -0.0003
     46  CE2       -2.5220   15.7100    6.7310 C.ar   64  PHE64      -0.0003
     47  CZ        -1.6350   16.7630    6.7060 C.ar   64  PHE64      -0.0000
     48  N         -5.7550   15.0610    0.5930 N.am   65  LYS65      -0.1963
     49  CA        -5.8710   14.6050   -0.8040 C.3    65  LYS65       0.1728
     50  C         -5.8250   15.7480   -1.8460 C.2    65  LYS65       0.2617
     51  O         -5.4750   15.5100   -2.9870 O.2    65  LYS65      -0.2715
     52  CB        -7.0770   13.6760   -1.0270 C.3    65  LYS65       0.0311
     53  CG        -8.4260   14.3370   -0.9930 C.3    65  LYS65       0.0038
     54  CD        -9.5240   13.3130   -1.2160 C.3    65  LYS65       0.0206
     55  CE       -10.8700   13.9780   -1.0240 C.3    65  LYS65       0.1093
     56  NZ       -12.0160   13.0410   -1.0120 N.3    65  LYS65      -0.1314
     57  N         -6.1660   16.9670   -1.4270 N.am   66  GLY66      -0.1940
     58  CA        -6.0060   18.1640   -2.2340 C.3    66  GLY66       0.2014
     59  C         -4.5750   18.6400   -2.2190 C.2    66  GLY66       0.2638
     60  O         -4.0020   18.8750   -3.2670 O.2    66  GLY66      -0.2714
     61  N         -3.9790   18.7230   -1.0300 N.am   67  LYS67      -0.1977
     62  CA        -2.6620   19.3490   -0.8560 C.3    67  LYS67       0.1596
     63  C         -1.4850   18.4650   -1.3000 C.2    67  LYS67       0.2287
     64  O         -0.4890   18.9700   -1.8110 O.2    67  LYS67      -0.2864
     65  CB        -2.4720   19.7620    0.6210 C.3    67  LYS67       0.0298
     66  CG        -1.0740   20.2790    0.9560 C.3    67  LYS67       0.0038
     67  CD        -1.0000   20.8790    2.3530 C.3    67  LYS67       0.0206
     68  CE        -1.4810   22.3210    2.3480 C.3    67  LYS67       0.1093
     69  NZ        -1.6210   22.9040    3.7100 N.3    67  LYS67      -0.1314
     70  N          1.2880   21.3570   -1.8300 N.3    84  SER84      -0.1202
     71  CA         0.9440   22.5930   -2.5500 C.3    84  SER84       0.2020
     72  C          0.2070   23.6140   -1.6790 C.2    84  SER84       0.2619
     73  O         -0.3750   23.2590   -0.6590 O.2    84  SER84      -0.2717
     74  CB         0.0980   22.2680   -3.7810 C.3    84  SER84       0.2103
     75  OG        -1.1980   21.8950   -3.3710 O.3    84  SER84      -0.2182
     76  N          0.2520   24.8800   -2.1040 N.am   85  SER85      -0.1951
     77  CA        -0.3950   26.0090   -1.4170 C.3    85  SER85       0.1924
     78  C         -0.0920   26.0570    0.0780 C.2    85  SER85       0.2314
     79  O         -0.9810   26.0540    0.9180 O.2    85  SER85      -0.2863
     80  CB        -1.9010   26.0140   -1.6800 C.3    85  SER85       0.2116
     81  OG        -2.1300   26.2580   -3.0500 O.3    85  SER85      -0.2180
     82  N          1.3380   26.9360    3.9020 N.3    87  ALA87      -0.1245
     83  CA         1.1650   27.9410    4.9250 C.3    87  ALA87       0.1562
     84  C          2.0670   27.5860    6.0980 C.2    87  ALA87       0.2260
     85  O          2.7020   26.5070    6.1060 O.2    87  ALA87      -0.2867
     86  CB        -0.3000   28.0130    5.3500 C.3    87  ALA87       0.0290
     87  N          1.6100   26.5010    9.0210 N.3    89  GLU89      -0.1231
     88  CA         1.2850   25.2400    9.7000 C.3    89  GLU89       0.1699
     89  C          1.6700   23.9670    8.9310 C.2    89  GLU89       0.2592
     90  O          1.4730   22.8670    9.4340 O.2    89  GLU89      -0.2718
     91  CB        -0.2020   25.1860   10.0650 C.3    89  GLU89       0.0402
     92  CG        -0.6940   26.3820   10.8780 C.3    89  GLU89       0.1161
     93  CD        -1.3270   27.4900   10.0220 C.2    89  GLU89       0.3649
     94  OE1       -0.8880   27.7100    8.8490 O.co2  89  GLU89      -0.2457
     95  OE2       -2.2690   28.1440   10.5310 O.co2  89  GLU89      -0.2457
     96  N          2.1900   24.1060    7.7130 N.am   90  ASP90      -0.1974
     97  CA         2.8240   22.9910    7.0050 C.3    90  ASP90       0.1709
     98  C          4.2960   22.8130    7.4330 C.2    90  ASP90       0.2293
     99  O          4.9580   21.8570    7.0260 O.2    90  ASP90      -0.2864
    100  CB         2.7160   23.2030    5.5010 C.3    90  ASP90       0.1436
    101  CG         1.2610   23.1910    5.0040 C.2    90  ASP90       0.3671
    102  OD1        0.5360   22.1900    5.1950 O.co2  90  ASP90      -0.2456
    103  OD2        0.8280   24.1900    4.4010 O.co2  90  ASP90      -0.2456
@<TRIPOS>BOND
     1    74    75    1
     2    74    71    1
     3    60    59    2
     4    81    80    1
     5    51    50    2
     6    71    70    1
     7    71    72    1
     8    58    59    1
     9    58    57    1
    10    59    61   am
    11    76    72   am
    12    76    77    1
    13    50    57   am
    14    50    49    1
    15    64    63    2
    16    80    77    1
    17    72    73    2
    18    77    78    1
    19    63    62    1
    20    54    55    1
    21    54    53    1
    22    61    62    1
    23    52    53    1
    24    52    49    1
    25    55    56    1
    26    62    65    1
    27    49    48    1
    28    78    79    2
    29    40    39    2
    30    48    39   am
    31    65    66    1
    32    66    67    1
    33    39    38    1
    34    27    25   ar
    35    26    25   ar
    36    25    24    1
    37    68    67    1
    38    68    69    1
    39    22    21    2
    40    38    41    1
    41    38    37    1
    42    41    42    1
    43    24    23    1
    44    20    21    1
    45    20    23    1
    46    20    19    1
    47    21    28   am
    48    37    30   am
    49    31    30    2
    50    82    83    1
    51    30    29    1
    52    43    42   ar
    53    43    45   ar
    54    42    44   ar
    55   103   101   ar
    56    28    29    1
    57    29    32    1
    58    83    86    1
    59    83    84    1
    60   101   102   ar
    61   101   100    1
    62    45    47   ar
    63   100    97    1
    64    44    46   ar
    65    84    85    2
    66    32    33    1
    67    47    46   ar
    68    33    34    1
    69    97    98    1
    70    97    96    1
    71    99    98    2
    72    96    89   am
    73    34    35    1
    74     1     2    1
    75    35    36    1
    76     7     8    1
    77     7     6    1
    78    94    93   ar
    79     5     2    1
    80     5     6    1
    81     9     8    1
    82    89    90    2
    83    89    88    1
    84    87    88    1
    85     2     3    1
    86    88    91    1
    87    93    95   ar
    88    93    92    1
    89    91    92    1
    90     3     4    2
    91    17    18    1
    92    17    16    1
    93    15    16    1
    94    15    14    1
    95    10    11    1
    96    11    14    1
    97    11    12    1
    98    12    13    2
