@<TRIPOS>MOLECULE
tmp/5l88A04.pdb
 106 101 0 0 0
SMALL
GASTEIGER

@<TRIPOS>ATOM
      1  N          6.9950   19.9810   15.6740 N.2    41  PRO41      -0.2584
      2  CA         7.7980   19.9820   16.9140 C.3    41  PRO41       0.1895
      3  C          6.9430   19.7220   18.1510 C.2    41  PRO41       0.2359
      4  O          5.9400   20.4030   18.3570 O.2    41  PRO41      -0.2858
      5  CB         8.3950   21.3970   16.9840 C.2    41  PRO41       0.0071
      6  CG         8.0070   22.1100   15.7480 C.2    41  PRO41       0.0180
      7  CD         7.0830   21.2540   14.9340 C.2    41  PRO41       0.0937
      8  N          2.1280   28.4720    7.0900 N.3    88  SER88      -0.1217
      9  CA         3.0630   28.3010    8.2030 C.3    88  SER88       0.1889
     10  C          2.8570   26.9680    8.9450 C.2    88  SER88       0.2288
     11  O          3.8290   26.3480    9.3850 O.2    88  SER88      -0.2866
     12  CB         2.9840   29.4870    9.1720 C.3    88  SER88       0.2089
     13  OG         1.7700   29.4740    9.8930 O.3    88  SER88      -0.2183
     14  N          4.8150   23.7270    8.2500 N.3    91  SER91      -0.1202
     15  CA         6.1600   23.5860    8.7990 C.3    91  SER91       0.2020
     16  C          6.2420   22.3760    9.7230 C.2    91  SER91       0.2619
     17  O          5.4590   22.2690   10.6680 O.2    91  SER91      -0.2717
     18  CB         6.5680   24.8450    9.5520 C.3    91  SER91       0.2103
     19  OG         6.5030   25.9670    8.6890 O.3    91  SER91      -0.2182
     20  N          7.1770   21.4690    9.4380 N.am   92  ALA92      -0.1965
     21  CA         7.2910   20.2140   10.1720 C.3    92  ALA92       0.1728
     22  C          8.4550   19.4000    9.6780 C.2    92  ALA92       0.2616
     23  O          9.0750   19.7450    8.6680 O.2    92  ALA92      -0.2715
     24  CB         6.0110   19.4040   10.0400 C.3    92  ALA92       0.0334
     25  N          8.7370   18.3000   10.3780 N.am   93  VAL93      -0.1977
     26  CA         9.6240   17.2650    9.8460 C.3    93  VAL93       0.1596
     27  C          8.7460   16.2420    9.1250 C.2    93  VAL93       0.2287
     28  O          7.7250   15.7820    9.6630 O.2    93  VAL93      -0.2864
     29  CB        10.4470   16.6100   10.9640 C.3    93  VAL93       0.0276
     30  CG1       11.3100   15.4870   10.4190 C.3    93  VAL93       0.0022
     31  CG2       11.3020   17.6630   11.6620 C.3    93  VAL93       0.0022
     32  N         13.2870   18.4800    7.0810 N.3   113  THR113     -0.1203
     33  CA        12.7190   19.6060    7.8250 C.3   113  THR113      0.1994
     34  C         12.2440   20.6730    6.8520 C.2   113  THR113      0.2618
     35  O         13.0520   21.3090    6.1720 O.2   113  THR113     -0.2717
     36  CB        13.7560   20.2010    8.7930 C.3   113  THR113      0.1784
     37  OG1       14.2100   19.1700    9.6690 O.3   113  THR113     -0.2211
     38  CG2       13.1550   21.3570    9.6120 C.3   113  THR113      0.0376
     39  N         10.9350   20.8430    6.7700 N.am  114  LEU114     -0.1965
     40  CA        10.3310   21.8900    5.9500 C.3   114  LEU114      0.1728
     41  C          9.8800   23.0870    6.8210 C.2   114  LEU114      0.2617
     42  O          9.1390   22.9340    7.7990 O.2   114  LEU114     -0.2715
     43  CB         9.1340   21.3220    5.1740 C.3   114  LEU114      0.0311
     44  CG         8.3590   22.3250    4.3060 C.3   114  LEU114      0.0022
     45  CD1        9.2500   22.8880    3.1980 C.3   114  LEU114      0.0001
     46  CD2        7.0820   21.7150    3.7350 C.3   114  LEU114      0.0001
     47  N         10.3450   24.2720    6.4560 N.am  115  THR115     -0.1937
     48  CA         9.9090   25.5040    7.0660 C.3   115  THR115      0.2028
     49  C          9.1780   26.3140    5.9960 C.2   115  THR115      0.2642
     50  O          9.7000   26.5200    4.8940 O.2   115  THR115     -0.2714
     51  CB        11.1070   26.2850    7.6350 C.3   115  THR115      0.1808
     52  OG1       11.8190   25.4440    8.5700 O.3   115  THR115     -0.2208
     53  CG2       10.6470   27.5590    8.3110 C.3   115  THR115      0.0379
     54  N          7.9580   26.7360    6.3190 N.am  116  VAL116     -0.1963
     55  CA         7.1960   27.6420    5.4680 C.3   116  VAL116      0.1727
     56  C          7.1410   28.9900    6.1610 C.2   116  VAL116      0.2616
     57  O          6.5750   29.1050    7.2600 O.2   116  VAL116     -0.2715
     58  CB         5.7850   27.1260    5.1910 C.3   116  VAL116      0.0290
     59  CG1        5.0800   28.0180    4.1580 C.3   116  VAL116      0.0023
     60  CG2        5.8350   25.6860    4.7120 C.3   116  VAL116      0.0023
     61  N          7.7250   30.0020    5.5190 N.am  117  SER117     -0.1950
     62  CA         7.8990   31.3010    6.1440 C.3   117  SER117      0.1924
     63  C          8.2540   32.3650    5.1300 C.2   117  SER117      0.2314
     64  O          8.8830   32.0730    4.1170 O.2   117  SER117     -0.2863
     65  CB         9.0200   31.2060    7.1830 C.3   117  SER117      0.2116
     66  OG         9.3800   32.4740    7.6860 O.3   117  SER117     -0.2180
     67  N         18.6550   31.0150    9.5130 N.3   149  PHE149     -0.1241
     68  CA        17.3030   30.5950    9.1670 C.3   149  PHE149      0.1605
     69  C         17.3400   29.8240    7.8460 C.2   149  PHE149      0.2264
     70  O         18.1100   30.1950    6.9770 O.2   149  PHE149     -0.2867
     71  CB        16.3980   31.8110    9.0460 C.3   149  PHE149      0.0534
     72  CG        14.9400   31.4770    9.0530 C.ar  149  PHE149     -0.0203
     73  CD1       14.2900   31.1880   10.2380 C.ar  149  PHE149     -0.0042
     74  CD2       14.2130   31.4670    7.8740 C.ar  149  PHE149     -0.0042
     75  CE1       12.9340   30.8840   10.2520 C.ar  149  PHE149     -0.0003
     76  CE2       12.8550   31.1710    7.8810 C.ar  149  PHE149     -0.0003
     77  CZ        12.2180   30.8670    9.0660 C.ar  149  PHE149     -0.0000
     78  N         15.9470   26.1640   10.2770 N.3   151  GLU151     -0.1245
     79  CA        16.5140   24.9380   10.8630 C.3   151  GLU151      0.1567
     80  C         16.7150   23.8620    9.7830 C.2   151  GLU151      0.2260
     81  O         16.0450   23.9170    8.7680 O.2   151  GLU151     -0.2867
     82  CB        15.5450   24.3980   11.9280 C.3   151  GLU151      0.0388
     83  CG        15.5850   25.1630   13.2250 C.3   151  GLU151      0.1160
     84  CD        16.6000   24.5780   14.1630 C.2   151  GLU151      0.3649
     85  OE1       17.8160   24.7880   13.9830 O.co2 151  GLU151     -0.2457
     86  OE2       16.1640   23.8580   15.0670 O.co2 151  GLU151     -0.2457
     87  N         13.8480   30.1670   18.1540 N.3   173  LEU173     -0.1245
     88  CA        13.4970   31.1780   17.1650 C.3   173  LEU173      0.1561
     89  C         13.2020   32.5190   17.8090 C.2   173  LEU173      0.2260
     90  O         12.5080   32.5670   18.8030 O.2   173  LEU173     -0.2867
     91  CB        12.2470   30.7480   16.3920 C.3   173  LEU173      0.0270
     92  CG        11.8150   31.6390   15.2240 C.3   173  LEU173      0.0019
     93  CD1       12.8920   31.7430   14.1420 C.3   173  LEU173      0.0001
     94  CD2       10.5120   31.1050   14.6540 C.3   173  LEU173      0.0001
     95  N         17.3570   32.1250   14.2510 N.3   178  TYR178     -0.1241
     96  CA        17.5530   31.1350   15.3080 C.3   178  TYR178      0.1605
     97  C         18.8410   31.4280   16.0660 C.2   178  TYR178      0.2264
     98  O         19.8090   31.9690   15.4930 O.2   178  TYR178     -0.2867
     99  CB        17.5920   29.7240   14.7310 C.3   178  TYR178      0.0534
    100  CG        16.2420   29.1530   14.3620 C.ar  178  TYR178     -0.0201
    101  CD1       15.4160   28.5590   15.3180 C.ar  178  TYR178     -0.0009
    102  CD2       15.7970   29.1860   13.0620 C.ar  178  TYR178     -0.0009
    103  CE1       14.1740   28.0340   14.9770 C.ar  178  TYR178      0.0417
    104  CE2       14.5680   28.6560   12.7130 C.ar  178  TYR178      0.0417
    105  CZ        13.7630   28.0810   13.6620 C.ar  178  TYR178      0.1957
    106  OH        12.5550   27.5720   13.2500 O.3   178  TYR178     -0.2866
@<TRIPOS>BOND
     1    45    44    1
     2    46    44    1
     3    64    63    2
     4    59    58    1
     5    44    43    1
     6    60    58    1
     7    50    49    2
     8    63    62    1
     9    43    40    1
    10    58    55    1
    11    55    56    1
    12    55    54    1
    13    61    62    1
    14    61    56   am
    15    40    39    1
    16    40    41    1
    17    49    54   am
    18    49    48    1
    19    62    65    1
    20    56    57    2
    21    35    34    2
    22    47    41   am
    23    47    48    1
    24    39    34   am
    25    41    42    2
    26    34    33    1
    27    70    69    2
    28    48    51    1
    29    32    33    1
    30     8     9    1
    31    65    66    1
    32    51    53    1
    33    51    52    1
    34    33    36    1
    35    69    68    1
    36    74    76   ar
    37    74    72   ar
    38    76    77   ar
    39     9    10    1
    40     9    12    1
    41    14    15    1
    42    23    22    2
    43    19    18    1
    44    81    80    2
    45    36    38    1
    46    36    37    1
    47    15    18    1
    48    15    16    1
    49    10    11    2
    50    71    72    1
    51    71    68    1
    52    72    73   ar
    53    77    75   ar
    54    27    28    2
    55    27    26    1
    56    68    67    1
    57    12    13    1
    58    20    16   am
    59    20    21    1
    60    22    21    1
    61    22    25   am
    62    16    17    2
    63    80    79    1
    64    26    25    1
    65    26    29    1
    66    24    21    1
    67    73    75   ar
    68    78    79    1
    69    30    29    1
    70    79    82    1
    71    29    31    1
    72    82    83    1
    73   104   102   ar
    74   104   105   ar
    75   102   100   ar
    76    83    84    1
    77   106   105    1
    78   105   103   ar
    79    85    84   ar
    80    93    92    1
    81    84    86   ar
    82    95    96    1
    83   100    99    1
    84   100   101   ar
    85    94    92    1
    86    99    96    1
    87     7     1    2
    88     7     6    1
    89   103   101   ar
    90    92    91    1
    91    96    97    1
    92    98    97    2
    93     1     2    1
    94     6     5    2
    95    91    88    1
    96     2     5    1
    97     2     3    1
    98    88    89    1
    99    88    87    1
   100    89    90    2
   101     3     4    2
