@<TRIPOS>MOLECULE
tmp/5l8aB01.pdb
 128 120 0 0 0
SMALL
GASTEIGER

@<TRIPOS>ATOM
      1  N         17.9980   32.6940   -2.5240 N.3     6  ARG6       -0.1245
      2  CA        18.0160   31.6430   -1.4960 C.3     6  ARG6        0.1563
      3  C         17.2850   32.1230   -0.2310 C.2     6  ARG6        0.2260
      4  O         16.4350   31.4220    0.3120 O.2     6  ARG6       -0.2867
      5  CB        19.4290   31.1840   -1.1470 C.3     6  ARG6        0.0307
      6  CG        20.0190   30.2500   -2.2110 C.3     6  ARG6        0.0489
      7  CD        21.2660   29.5320   -1.7350 C.3     6  ARG6        0.2205
      8  NE        22.3170   30.4810   -1.3500 N.pl3   6  ARG6       -0.0865
      9  CZ        23.2120   31.0210   -2.1730 C.cat   6  ARG6        0.5346
     10  NH1       23.2410   30.7090   -3.4700 N.pl3   6  ARG6        0.1354
     11  NH2       24.0920   31.8890   -1.6910 N.pl3   6  ARG6        0.1354
     12  N         13.4360   32.6620   -0.9050 N.3     9  ASN9       -0.1225
     13  CA        12.8010   31.3130   -0.9260 C.3     9  ASN9        0.1785
     14  C         12.6530   30.7160    0.4740 C.2     9  ASN9        0.2597
     15  O         11.6030   30.1630    0.8160 O.2     9  ASN9       -0.2718
     16  CB        13.5570   30.3310   -1.8040 C.3     9  ASN9        0.1169
     17  CG        13.4050   30.6320   -3.3020 C.2     9  ASN9        0.2627
     18  OD1       14.2750   30.2990   -4.0990 O.2     9  ASN9       -0.2716
     19  ND2       12.3370   31.3040   -3.6700 N.am    9  ASN9       -0.0877
     20  N         13.6640   30.8810    1.3020 N.am   10  ALA10      -0.1979
     21  CA        13.6090   30.4330    2.7180 C.3    10  ALA10       0.1597
     22  C         12.5360   31.1310    3.5030 C.2    10  ALA10       0.2287
     23  O         11.7840   30.5040    4.2890 O.2    10  ALA10      -0.2864
     24  CB        14.9480   30.5660    3.3870 C.3    10  ALA10       0.0319
     25  N          9.7010   32.5610    2.3360 N.3    12  GLU12      -0.1231
     26  CA         8.3800   32.1060    1.8420 C.3    12  GLU12       0.1699
     27  C          8.1140   30.7190    2.4430 C.2    12  GLU12       0.2592
     28  O          7.0110   30.4660    2.9820 O.2    12  GLU12      -0.2718
     29  CB         8.3890   32.0230    0.2980 C.3    12  GLU12       0.0402
     30  CG         7.0380   31.6360   -0.2970 C.3    12  GLU12       0.1161
     31  CD         7.0840   31.3540   -1.7830 C.2    12  GLU12       0.3649
     32  OE1        8.1350   30.9140   -2.2980 O.co2  12  GLU12      -0.2457
     33  OE2        6.0550   31.5820   -2.4490 O.co2  12  GLU12      -0.2457
     34  N          9.1480   29.9030    2.4880 N.am   13  PHE13      -0.1976
     35  CA         9.0550   28.5610    3.0950 C.3    13  PHE13       0.1639
     36  C          8.6860   28.6330    4.5740 C.2    13  PHE13       0.2290
     37  O          7.7030   28.0190    4.9980 O.2    13  PHE13      -0.2864
     38  CB        10.3840   27.8120    2.9320 C.3    13  PHE13       0.0560
     39  CG        10.4840   26.5780    3.7510 C.ar   13  PHE13      -0.0200
     40  CD1        9.7380   25.4560    3.4320 C.ar   13  PHE13      -0.0042
     41  CD2       11.2840   26.5510    4.8830 C.ar   13  PHE13      -0.0042
     42  CE1        9.8020   24.3010    4.2420 C.ar   13  PHE13      -0.0003
     43  CE2       11.3580   25.4180    5.6700 C.ar   13  PHE13      -0.0003
     44  CZ        10.6350   24.2790    5.3310 C.ar   13  PHE13      -0.0000
     45  N          4.9660   29.5070    5.5870 N.3    16  ASP16      -0.1239
     46  CA         3.8770   28.5540    5.3360 C.3    16  ASP16       0.1674
     47  C          3.3140   28.0070    6.6610 C.2    16  ASP16       0.2266
     48  O          4.0670   27.6610    7.5650 O.2    16  ASP16      -0.2867
     49  CB         4.3630   27.4530    4.4090 C.3    16  ASP16       0.1410
     50  CG         3.3010   26.3830    4.1490 C.2    16  ASP16       0.3668
     51  OD1        3.0640   25.5870    5.0960 O.co2  16  ASP16      -0.2456
     52  OD2        2.7690   26.3170    2.9990 O.co2  16  ASP16      -0.2456
     53  N          1.9000   25.2420    7.6380 N.3    18  ARG18      -0.1231
     54  CA         2.3480   23.8660    8.0040 C.3    18  ARG18       0.1694
     55  C          3.8010   23.8330    8.4390 C.2    18  ARG18       0.2591
     56  O          4.2070   23.0370    9.2650 O.2    18  ARG18      -0.2718
     57  CB         2.1370   22.9210    6.8420 C.3    18  ARG18       0.0321
     58  CG         0.6710   22.7770    6.4200 C.3    18  ARG18       0.0489
     59  CD         0.5870   22.3530    4.9660 C.3    18  ARG18       0.2205
     60  NE         1.2080   23.2890    4.0380 N.pl3  18  ARG18      -0.0865
     61  CZ         1.6640   22.9580    2.8410 C.cat  18  ARG18       0.5346
     62  NH1        1.5580   21.7130    2.4200 N.pl3  18  ARG18       0.1354
     63  NH2        2.2220   23.8640    2.0590 N.pl3  18  ARG18       0.1354
     64  N          4.5930   24.6460    7.7650 N.am   19  VAL19      -0.1980
     65  CA         5.9940   24.7540    8.0880 C.3    19  VAL19       0.1595
     66  C          6.1780   25.4220    9.4690 C.2    19  VAL19       0.2287
     67  O          7.0440   25.0640   10.2510 O.2    19  VAL19      -0.2864
     68  CB         6.7420   25.5030    6.9750 C.3    19  VAL19       0.0276
     69  CG1        8.2340   25.7550    7.3450 C.3    19  VAL19       0.0022
     70  CG2        6.6090   24.7650    5.6440 C.3    19  VAL19       0.0022
     71  N          6.2870   22.9840   12.1490 N.3    22  THR22      -0.1218
     72  CA         7.4220   22.0560   12.0480 C.3    22  THR22       0.1862
     73  C          8.5840   22.5790   12.9100 C.2    22  THR22       0.2287
     74  O          8.8500   23.7620   12.8980 O.2    22  THR22      -0.2866
     75  CB         7.8290   22.0000   10.5400 C.3    22  THR22       0.1770
     76  OG1        6.6790   21.5540    9.7790 O.3    22  THR22      -0.2211
     77  CG2        8.9840   21.0250   10.3300 C.3    22  THR22       0.0375
     78  N         14.2990   20.5830   12.1620 N.3    26  SER26      -0.1202
     79  CA        13.8590   20.0210   10.8730 C.3    26  SER26       0.2020
     80  C         13.9420   21.0040    9.7230 C.2    26  SER26       0.2618
     81  O         14.4020   20.6990    8.6110 O.2    26  SER26      -0.2717
     82  CB        12.3920   19.5230   10.9860 C.3    26  SER26       0.2103
     83  OG        12.2240   18.7000   12.1000 O.3    26  SER26      -0.2182
     84  N         13.5040   22.2190    9.9870 N.am   27  LYS27      -0.1979
     85  CA        13.5690   23.3050    9.0040 C.3    27  LYS27       0.1596
     86  C         15.0190   23.7330    8.6750 C.2    27  LYS27       0.2287
     87  O         15.3240   24.0170    7.5350 O.2    27  LYS27      -0.2864
     88  CB        12.7330   24.5110    9.4610 C.3    27  LYS27       0.0298
     89  CG        11.2470   24.1550    9.5720 C.3    27  LYS27       0.0038
     90  CD        10.3750   25.3250    9.9620 C.3    27  LYS27       0.0206
     91  CE        10.6320   25.7860   11.4030 C.3    27  LYS27       0.1093
     92  NZ         9.4220   26.4130   12.0040 N.3    27  LYS27      -0.1314
     93  N         16.5260   21.0570    6.4580 N.3    30  PHE30      -0.1227
     94  CA        15.9680   21.2170    5.1530 C.3    30  PHE30       0.1736
     95  C         16.5530   22.3710    4.3900 C.2    30  PHE30       0.2595
     96  O         16.8580   22.2690    3.1830 O.2    30  PHE30      -0.2718
     97  CB        14.4330   21.4060    5.2640 C.3    30  PHE30       0.0547
     98  CG        13.7640   21.7750    3.9580 C.ar   30  PHE30      -0.0202
     99  CD1       13.4670   20.8100    2.9810 C.ar   30  PHE30      -0.0042
    100  CD2       13.4270   23.1020    3.6950 C.ar   30  PHE30      -0.0042
    101  CE1       12.8720   21.1550    1.7800 C.ar   30  PHE30      -0.0003
    102  CE2       12.8340   23.4550    2.4770 C.ar   30  PHE30      -0.0003
    103  CZ        12.5410   22.5020    1.5490 C.ar   30  PHE30      -0.0000
    104  N         16.7030   23.5100    5.0660 N.am   31  LEU31      -0.1980
    105  CA        17.2170   24.6580    4.3740 C.3    31  LEU31       0.1596
    106  C         18.6490   24.4140    3.9390 C.2    31  LEU31       0.2287
    107  O         19.0550   24.8670    2.8510 O.2    31  LEU31      -0.2864
    108  CB        17.0720   25.9320    5.2170 C.3    31  LEU31       0.0297
    109  CG        15.6120   26.4450    5.3380 C.3    31  LEU31       0.0022
    110  CD1       15.6130   27.6410    6.2820 C.3    31  LEU31       0.0001
    111  CD2       15.0520   26.8380    3.9790 C.3    31  LEU31       0.0001
    112  N         18.6620   22.6230    0.7000 N.3    34  LYS34      -0.1245
    113  CA        18.3760   23.4840   -0.3990 C.3    34  LYS34       0.1561
    114  C         19.5460   24.4160   -0.7250 C.2    34  LYS34       0.2260
    115  O         19.4050   25.3170   -1.5510 O.2    34  LYS34      -0.2867
    116  CB        17.1470   24.3540   -0.0950 C.3    34  LYS34       0.0271
    117  CG        15.8380   23.5970    0.1010 C.3    34  LYS34       0.0035
    118  CD        15.5070   22.5240   -0.9280 C.3    34  LYS34       0.0206
    119  CE        14.8200   23.1370   -2.1020 C.3    34  LYS34       0.1093
    120  NZ        14.3760   22.0470   -3.0070 N.3    34  LYS34      -0.1314
    121  N         21.4070   26.5580    1.3610 N.3    36  LEU36      -0.1245
    122  CA        21.6870   27.7150    2.2130 C.3    36  LEU36       0.1561
    123  C         22.8140   27.4500    3.1960 C.2    36  LEU36       0.2260
    124  O         22.8970   26.3500    3.8140 O.2    36  LEU36      -0.2867
    125  CB        20.4470   28.1250    3.0210 C.3    36  LEU36       0.0270
    126  CG        19.4440   29.0280    2.2890 C.3    36  LEU36       0.0019
    127  CD1       18.6710   28.2400    1.2460 C.3    36  LEU36       0.0001
    128  CD2       18.5420   29.7320    3.2900 C.3    36  LEU36       0.0001
@<TRIPOS>BOND
     1    18    17    2
     2    19    17   am
     3    10     9    1
     4    17    16    1
     5   120   119    1
     6     1     2    1
     7    33    31   ar
     8    32    31   ar
     9     6     7    1
    10     6     5    1
    11     9    11    1
    12     9     8    2
    13   119   118    1
    14    16    13    1
    15    31    30    1
    16     7     8    1
    17   115   114    2
    18     2     5    1
    19     2     3    1
    20   118   117    1
    21    13    12    1
    22    13    14    1
    23   114   113    1
    24   113   116    1
    25   113   112    1
    26    30    29    1
    27     3     4    2
    28   116   117    1
    29    29    26    1
    30    14    15    2
    31    14    20   am
    32   127   126    1
    33    20    21    1
    34   121   122    1
    35   103   101   ar
    36   103   102   ar
    37   101    99   ar
    38    26    25    1
    39    26    27    1
    40    63    61    1
    41   122   125    1
    42   122   123    1
    43   126   125    1
    44   126   128    1
    45    62    61    1
    46    27    34   am
    47    27    28    2
    48   102   100   ar
    49    34    35    1
    50    21    24    1
    51    21    22    1
    52    61    60    2
    53   107   106    2
    54    38    35    1
    55    38    39    1
    56    99    98   ar
    57    52    50   ar
    58    35    36    1
    59    96    95    2
    60   123   124    2
    61    40    39   ar
    62    40    42   ar
    63    22    23    2
    64   100    98   ar
    65    39    41   ar
    66   106   105    1
    67    98    97    1
    68   111   109    1
    69    60    59    1
    70    50    49    1
    71    50    51   ar
    72    42    44   ar
    73   105   104    1
    74   105   108    1
    75    95   104   am
    76    95    94    1
    77    49    46    1
    78    36    37    2
    79    41    43   ar
    80    59    58    1
    81    94    97    1
    82    94    93    1
    83   108   109    1
    84    44    43   ar
    85    46    45    1
    86    46    47    1
    87   109   110    1
    88    70    68    1
    89    58    57    1
    90    47    48    2
    91    57    54    1
    92    68    69    1
    93    68    65    1
    94    87    86    2
    95    53    54    1
    96    64    65    1
    97    64    55   am
    98    54    55    1
    99    65    66    1
   100    55    56    2
   101    81    80    2
   102    86    85    1
   103    85    88    1
   104    85    84    1
   105    88    89    1
   106    66    67    2
   107    89    90    1
   108    80    84   am
   109    80    79    1
   110    76    75    1
   111    90    91    1
   112    77    75    1
   113    75    72    1
   114    79    82    1
   115    79    78    1
   116    82    83    1
   117    91    92    1
   118    72    71    1
   119    72    73    1
   120    74    73    2
