@<TRIPOS>MOLECULE
tmp/5l8cA00.pdb
 226 214 0 0 0
SMALL
GASTEIGER

@<TRIPOS>ATOM
      1  N         37.1130    6.9730   -2.5010 N.3    83  TYR83      -0.1227
      2  CA        35.8670    6.8080   -1.7630 C.3    83  TYR83       0.1736
      3  C         35.3360    5.3980   -1.7400 C.2    83  TYR83       0.2595
      4  O         35.1700    4.8400   -0.7030 O.2    83  TYR83      -0.2718
      5  CB        34.8030    7.7840   -2.2290 C.3    83  TYR83       0.0548
      6  CG        33.5170    7.7270   -1.4530 C.ar   83  TYR83      -0.0200
      7  CD1       33.3820    8.3760   -0.2530 C.ar   83  TYR83      -0.0009
      8  CD2       32.4390    7.0450   -1.9320 C.ar   83  TYR83      -0.0009
      9  CE1       32.2080    8.3360    0.4520 C.ar   83  TYR83       0.0417
     10  CE2       31.2600    6.9990   -1.2390 C.ar   83  TYR83       0.0417
     11  CZ        31.1600    7.6430   -0.0450 C.ar   83  TYR83       0.1957
     12  OH        30.0000    7.5900    0.6300 O.3    83  TYR83      -0.2866
     13  N         35.0900    4.8150   -2.8870 N.am   84  HIS84      -0.1975
     14  CA        34.5580    3.4810   -2.9180 C.3    84  HIS84       0.1656
     15  C         35.5810    2.4020   -2.6600 C.2    84  HIS84       0.2291
     16  O         35.8210    1.5690   -3.4830 O.2    84  HIS84      -0.2864
     17  CB        33.8260    3.2290   -4.2090 C.3    84  HIS84       0.0771
     18  CG        32.6470    4.1060   -4.4020 C.ar   84  HIS84       0.0820
     19  ND1       32.6880    5.2320   -5.1740 N.ar   84  HIS84      -0.2267
     20  CD2       31.3880    4.0120   -3.9430 C.ar   84  HIS84       0.1154
     21  CE1       31.5060    5.8010   -5.1740 C.ar   84  HIS84       0.1986
     22  NE2       30.6970    5.0770   -4.4400 N.ar   84  HIS84      -0.2212
     23  N         29.5940   -2.6940   -3.1260 N.3   125  ASP125     -0.1239
     24  CA        30.4180   -1.8800   -4.0230 C.3   125  ASP125      0.1674
     25  C         31.6860   -2.6510   -4.5140 C.2   125  ASP125      0.2266
     26  O         32.6260   -2.0660   -4.9610 O.2   125  ASP125     -0.2867
     27  CB        30.8260   -0.5370   -3.3930 C.3   125  ASP125      0.1410
     28  CG        29.7320    0.5460   -3.4930 C.2   125  ASP125      0.3668
     29  OD1       29.0290    0.5940   -4.5010 O.co2 125  ASP125     -0.2456
     30  OD2       29.5690    1.3410   -2.5440 O.co2 125  ASP125     -0.2456
     31  N         34.7570   -1.6090   -7.3010 N.3   128  HIS128     -0.1241
     32  CA        34.4690   -0.2670   -7.8480 C.3   128  HIS128      0.1621
     33  C         35.8150    0.3680   -8.2250 C.2   128  HIS128      0.2264
     34  O         36.8260    0.1470   -7.5650 O.2   128  HIS128     -0.2867
     35  CB        33.7360    0.5670   -6.7780 C.3   128  HIS128      0.0745
     36  CG        32.8720    1.6770   -7.2970 C.ar  128  HIS128      0.0817
     37  ND1       33.3830    2.8240   -7.8420 N.ar  128  HIS128     -0.2268
     38  CD2       31.5290    1.8550   -7.2480 C.ar  128  HIS128      0.1154
     39  CE1       32.3970    3.6440   -8.1600 C.ar  128  HIS128      0.1986
     40  NE2       31.2570    3.0780   -7.8120 N.ar  128  HIS128     -0.2212
     41  N         31.5660    6.0570  -12.2010 N.3   132  ASN132     -0.1240
     42  CA        30.1670    5.7560  -12.0550 C.3   132  ASN132      0.1653
     43  C         29.5840    5.1510  -13.3240 C.2   132  ASN132      0.2266
     44  O         30.2720    5.0060  -14.3220 O.2   132  ASN132     -0.2867
     45  CB        29.4120    6.9970  -11.5940 C.3   132  ASN132      0.1155
     46  CG        29.3240    8.0670  -12.6440 C.2   132  ASN132      0.2627
     47  OD1       29.6610    7.8980  -13.8250 O.2   132  ASN132     -0.2716
     48  ND2       28.8230    9.1830  -12.2220 N.am  132  ASN132     -0.0877
     49  N         26.2550   -2.1170  -10.3920 N.3   157  GLU157     -0.1245
     50  CA        25.5170   -2.8830   -9.3960 C.3   157  GLU157      0.1567
     51  C         25.4350   -4.3420   -9.7920 C.2   157  GLU157      0.2260
     52  O         25.6430   -5.2400   -8.9570 O.2   157  GLU157     -0.2867
     53  CB        24.1390   -2.2420   -9.1200 C.3   157  GLU157      0.0388
     54  CG        24.2590   -0.8640   -8.4330 C.3   157  GLU157      0.1160
     55  CD        24.6930    0.3080   -9.3270 C.2   157  GLU157      0.3649
     56  OE1       24.5430    0.2470  -10.5730 O.co2 157  GLU157     -0.2457
     57  OE2       25.2020    1.2910   -8.7650 O.co2 157  GLU157     -0.2457
     58  N         20.8050    0.1680   -4.8790 N.3   198  THR198     -0.1218
     59  CA        21.7470    1.2620   -4.5670 C.3   198  THR198      0.1862
     60  C         22.1280    2.1140   -5.7650 C.2   198  THR198      0.2287
     61  O         22.8670    3.1090   -5.5930 O.2   198  THR198     -0.2866
     62  CB        23.0610    0.7460   -3.9670 C.3   198  THR198      0.1770
     63  OG1       23.7950   -0.0330   -4.9450 O.3   198  THR198     -0.2211
     64  CG2       22.7740   -0.0630   -2.7820 C.3   198  THR198      0.0375
     65  N         21.6440    5.0270   -7.9250 N.3   200  MET200     -0.1245
     66  CA        20.9110    6.2670   -7.5770 C.3   200  MET200      0.1570
     67  C         19.9510    6.7140   -8.6480 C.2   200  MET200      0.2261
     68  O         19.1010    7.5500   -8.3840 O.2   200  MET200     -0.2867
     69  CB        21.8420    7.4260   -7.1800 C.3   200  MET200      0.0387
     70  CG        22.4590    7.2910   -5.7780 C.3   200  MET200      0.0595
     71  SD        21.2700    7.2510   -4.4230 S.3   200  MET200     -0.1393
     72  CE        20.7250    8.9650   -4.4060 C.3   200  MET200      0.0692
     73  N         24.1060    3.9370    2.5030 N.3   237  ASP237     -0.1225
     74  CA        24.9060    4.3880    1.3960 C.3   237  ASP237      0.1805
     75  C         24.9560    5.9210    1.2600 C.2   237  ASP237      0.2597
     76  O         25.9340    6.4370    0.7550 O.2   237  ASP237     -0.2718
     77  CB        24.3840    3.7880    0.0610 C.3   237  ASP237      0.1424
     78  CG        25.4940    3.4680   -0.9260 C.2   237  ASP237      0.3668
     79  OD1       26.6250    3.2870   -0.4860 O.co2 237  ASP237     -0.2456
     80  OD2       25.2330    3.3370   -2.1400 O.co2 237  ASP237     -0.2456
     81  N         23.8820    6.6140    1.6530 N.am  238  ILE238     -0.1980
     82  CA        23.8910    8.0570    1.7500 C.3   238  ILE238      0.1595
     83  C         23.9060    8.6130    3.1830 C.2   238  ILE238      0.2287
     84  O         23.4370    9.7270    3.4550 O.2   238  ILE238     -0.2864
     85  CB        22.7410    8.6900    0.9650 C.3   238  ILE238      0.0276
     86  CG1       21.3790    8.2290    1.4590 C.3   238  ILE238      0.0022
     87  CG2       22.8630    8.3230   -0.4990 C.3   238  ILE238      0.0022
     88  CD1       20.2650    9.0370    0.8490 C.3   238  ILE238      0.0001
     89  N         26.6100    9.5140    5.0150 N.3   240  ASN240     -0.1225
     90  CA        27.7410   10.3760    5.3630 C.3   240  ASN240      0.1785
     91  C         27.3120   11.6760    6.0540 C.2   240  ASN240      0.2597
     92  O         27.9480   12.0880    6.9850 O.2   240  ASN240     -0.2718
     93  CB        28.5630   10.7130    4.1350 C.3   240  ASN240      0.1169
     94  CG        29.2800    9.5280    3.5440 C.2   240  ASN240      0.2627
     95  OD1       29.6970    9.6010    2.4060 O.2   240  ASN240     -0.2716
     96  ND2       29.3930    8.4330    4.2800 N.am  240  ASN240     -0.0877
     97  N         26.2170   12.2840    5.5920 N.am  241  VAL241     -0.1980
     98  CA        25.7010   13.4960    6.1860 C.3   241  VAL241      0.1595
     99  C         24.8970   13.3480    7.5060 C.2   241  VAL241      0.2287
    100  O         24.3450   14.3590    7.9960 O.2   241  VAL241     -0.2864
    101  CB        24.7990   14.2560    5.1820 C.3   241  VAL241      0.0276
    102  CG1       25.6160   14.7900    4.0010 C.3   241  VAL241      0.0022
    103  CG2       23.5900   13.4230    4.7690 C.3   241  VAL241      0.0022
    104  N         31.5680   13.5670    8.6550 N.3   248  SER248     -0.1217
    105  CA        30.8320   13.9570    7.4340 C.3   248  SER248      0.1889
    106  C         31.6940   14.7040    6.4220 C.2   248  SER248      0.2288
    107  O         31.6590   14.4120    5.2360 O.2   248  SER248     -0.2866
    108  CB        29.6100   14.8010    7.8110 C.3   248  SER248      0.2089
    109  OG        28.8450   15.1830    6.6810 O.3   248  SER248     -0.2183
    110  N         33.0040   13.7430    2.6210 N.3   252  ALA252     -0.1245
    111  CA        32.7340   14.6170    1.4860 C.3   252  ALA252      0.1562
    112  C         34.0290   14.9000    0.6620 C.2   252  ALA252      0.2260
    113  O         33.9890   15.0440   -0.5650 O.2   252  ALA252     -0.2867
    114  CB        32.0970   15.9010    1.9730 C.3   252  ALA252      0.0290
    115  N         34.9370   11.7060   -1.4410 N.3   255  VAL255     -0.1231
    116  CA        34.0770   11.5080   -2.5720 C.3   255  VAL255      0.1692
    117  C         34.3160   12.5450   -3.6220 C.2   255  VAL255      0.2592
    118  O         34.2510   12.2640   -4.7890 O.2   255  VAL255     -0.2718
    119  CB        32.5940   11.5080   -2.1820 C.3   255  VAL255      0.0266
    120  CG1       32.1630   12.8730   -1.7780 C.3   255  VAL255      0.0020
    121  CG2       31.7400   11.0850   -3.3460 C.3   255  VAL255      0.0020
    122  N         34.5970   13.7540   -3.1790 N.am  256  THR256     -0.1953
    123  CA        34.8250   14.8460   -4.0780 C.3   256  THR256      0.1897
    124  C         36.0490   14.5810   -4.8980 C.2   256  THR256      0.2313
    125  O         36.0640   14.8260   -6.0630 O.2   256  THR256     -0.2863
    126  CB        34.9290   16.1760   -3.3290 C.3   256  THR256      0.1794
    127  OG1       33.6420   16.5490   -2.8490 O.3   256  THR256     -0.2208
    128  CG2       35.4170   17.2720   -4.2380 C.3   256  THR256      0.0378
    129  N         35.1450   11.8920   -7.5760 N.3   259  PHE259     -0.1227
    130  CA        34.4050   12.5420   -8.6500 C.3   259  PHE259      0.1736
    131  C         35.3590   13.3430   -9.5600 C.2   259  PHE259      0.2595
    132  O         35.2280   13.2890  -10.7990 O.2   259  PHE259     -0.2718
    133  CB        33.3270   13.4650   -8.0660 C.3   259  PHE259      0.0547
    134  CG        32.0730   12.7590   -7.6140 C.ar  259  PHE259     -0.0202
    135  CD1       32.0300   11.3890   -7.3520 C.ar  259  PHE259     -0.0042
    136  CD2       30.8870   13.4800   -7.4850 C.ar  259  PHE259     -0.0042
    137  CE1       30.8500   10.7680   -6.9470 C.ar  259  PHE259     -0.0003
    138  CE2       29.6980   12.8550   -7.0890 C.ar  259  PHE259     -0.0003
    139  CZ        29.6850   11.5120   -6.8090 C.ar  259  PHE259     -0.0000
    140  N         36.3150   14.0710   -8.9620 N.am  260  TYR260     -0.1976
    141  CA        37.2060   14.9330   -9.7610 C.3   260  TYR260      0.1639
    142  C         38.0960   14.1130  -10.6820 C.2   260  TYR260      0.2290
    143  O         38.3160   14.5120  -11.8340 O.2   260  TYR260     -0.2864
    144  CB        38.0320   15.9490   -8.9180 C.3   260  TYR260      0.0560
    145  CG        37.2660   17.1540   -8.3570 C.ar  260  TYR260     -0.0198
    146  CD1       36.0870   17.6340   -8.9710 C.ar  260  TYR260     -0.0009
    147  CD2       37.7260   17.8280   -7.2010 C.ar  260  TYR260     -0.0009
    148  CE1       35.3890   18.7100   -8.4450 C.ar  260  TYR260      0.0417
    149  CE2       37.0310   18.9070   -6.6740 C.ar  260  TYR260      0.0417
    150  CZ        35.8670   19.3480   -7.3000 C.ar  260  TYR260      0.1957
    151  OH        35.1500   20.4200   -6.8120 O.3   260  TYR260     -0.2866
    152  N         29.7350   19.0850  -11.1510 N.3   276  MET276     -0.1230
    153  CA        30.1370   18.3100   -9.9530 C.3   276  MET276      0.1702
    154  C         31.4690   17.5630  -10.0790 C.2   276  MET276      0.2592
    155  O         32.1320   17.3190   -9.0640 O.2   276  MET276     -0.2718
    156  CB        29.0960   17.2290   -9.6250 C.3   276  MET276      0.0401
    157  CG        27.9230   17.6000   -8.7360 C.3   276  MET276      0.0596
    158  SD        27.0780   16.0810   -8.2300 S.3   276  MET276     -0.1393
    159  CE        26.0240   15.6950   -9.6490 C.3   276  MET276      0.0692
    160  N         31.8090   17.1200  -11.2950 N.am  277  PHE277     -0.1976
    161  CA        32.9800   16.2530  -11.5190 C.3   277  PHE277      0.1639
    162  C         34.1640   17.0240  -12.0270 C.2   277  PHE277      0.2290
    163  O         35.2460   16.4290  -12.1830 O.2   277  PHE277     -0.2864
    164  CB        32.6450   15.1100  -12.4880 C.3   277  PHE277      0.0560
    165  CG        31.6710   14.1140  -11.9280 C.ar  277  PHE277     -0.0200
    166  CD1       30.2930   14.3630  -11.9620 C.ar  277  PHE277     -0.0042
    167  CD2       32.1070   12.9390  -11.3720 C.ar  277  PHE277     -0.0042
    168  CE1       29.3750   13.4510  -11.4470 C.ar  277  PHE277     -0.0003
    169  CE2       31.2020   12.0340  -10.8580 C.ar  277  PHE277     -0.0003
    170  CZ        29.8340   12.2920  -10.8800 C.ar  277  PHE277     -0.0000
    171  N         34.3930   24.1060   -9.4060 N.3   282  ASN282     -0.1240
    172  CA        34.1890   24.3870   -8.0040 C.3   282  ASN282      0.1653
    173  C         35.3800   24.8030   -7.2050 C.2   282  ASN282      0.2266
    174  O         36.5080   24.6450   -7.6100 O.2   282  ASN282     -0.2867
    175  CB        33.5450   23.2200   -7.3150 C.3   282  ASN282      0.1155
    176  CG        32.3780   23.6480   -6.4960 C.2   282  ASN282      0.2627
    177  OD1       32.5250   24.1420   -5.3790 O.2   282  ASN282     -0.2716
    178  ND2       31.1990   23.5060   -7.0710 N.am  282  ASN282     -0.0877
    179  N         34.1970   24.8540   -3.6350 N.3   284  GLU284     -0.1231
    180  CA        33.4170   24.8160   -2.4150 C.3   284  GLU284      0.1699
    181  C         32.5410   23.6490   -1.9840 C.2   284  GLU284      0.2592
    182  O         31.4580   23.4280   -2.4940 O.2   284  GLU284     -0.2718
    183  CB        32.5080   26.0140   -2.4550 C.3   284  GLU284      0.0402
    184  CG        32.6290   26.8840   -1.2500 C.3   284  GLU284      0.1161
    185  CD        32.0460   28.2460   -1.4910 C.2   284  GLU284      0.3649
    186  OE1       31.9430   28.6650   -2.6670 O.co2 284  GLU284     -0.2457
    187  OE2       31.6890   28.8800   -0.4960 O.co2 284  GLU284     -0.2457
    188  N         33.0220   22.9590   -0.9760 N.am  285  LEU285     -0.1980
    189  CA        32.3430   21.8610   -0.3500 C.3   285  LEU285      0.1596
    190  C         31.0120   22.3000    0.2660 C.2   285  LEU285      0.2287
    191  O         29.9960   21.7320    0.0110 O.2   285  LEU285     -0.2864
    192  CB        33.2380   21.3620    0.7470 C.3   285  LEU285      0.0297
    193  CG        33.4500   19.9110    1.0730 C.3   285  LEU285      0.0022
    194  CD1       33.9280   19.1410   -0.1250 C.3   285  LEU285      0.0001
    195  CD2       34.5100   19.8770    2.1310 C.3   285  LEU285      0.0001
    196  N         28.0490   22.3410   -1.8060 N.3   288  GLY288     -0.1210
    197  CA        27.7640   21.0320   -2.3270 C.3   288  GLY288      0.1956
    198  C         27.0430   20.2000   -1.3050 C.2   288  GLY288      0.2611
    199  O         25.9900   19.6320   -1.5830 O.2   288  GLY288     -0.2717
    200  N         27.6010   20.1780   -0.1040 N.am  289  GLN289     -0.1979
    201  CA        26.9950   19.4440    0.9870 C.3   289  GLN289      0.1601
    202  C         25.6010   19.9310    1.3040 C.2   289  GLN289      0.2287
    203  O         24.7100   19.1270    1.4890 O.2   289  GLN289     -0.2864
    204  CB        27.8990   19.5080    2.2000 C.3   289  GLN289      0.0394
    205  CG        29.2070   18.7230    2.0160 C.3   289  GLN289      0.0908
    206  CD        28.9770   17.2450    1.7070 C.2   289  GLN289      0.2608
    207  OE1       28.4790   16.4790    2.5570 O.2   289  GLN289     -0.2717
    208  NE2       29.3140   16.8420    0.4960 N.am  289  GLN289     -0.0878
    209  N         23.3010   18.6930   -1.5600 N.3   292  PHE292     -0.1241
    210  CA        23.0410   17.2750   -1.3740 C.3   292  PHE292      0.1605
    211  C         22.0260   17.0250   -0.2200 C.2   292  PHE292      0.2264
    212  O         21.0770   16.2820   -0.3810 O.2   292  PHE292     -0.2867
    213  CB        24.3370   16.4980   -1.1770 C.3   292  PHE292      0.0534
    214  CG        24.1130   15.0230   -1.0340 C.ar  292  PHE292     -0.0203
    215  CD1       23.7980   14.2330   -2.1360 C.ar  292  PHE292     -0.0042
    216  CD2       24.1910   14.4130    0.2010 C.ar  292  PHE292     -0.0042
    217  CE1       23.5810   12.8600   -1.9990 C.ar  292  PHE292     -0.0003
    218  CE2       23.9930   13.0470    0.3350 C.ar  292  PHE292     -0.0003
    219  CZ        23.6830   12.2660   -0.7630 C.ar  292  PHE292     -0.0000
    220  N         18.6600   15.6760   -1.7920 N.3   296  VAL296     -0.1245
    221  CA        18.7140   14.2320   -1.6230 C.3   296  VAL296      0.1561
    222  C         18.4650   13.7210   -0.1770 C.2   296  VAL296      0.2260
    223  O         17.3820   13.1700    0.1070 O.2   296  VAL296     -0.2867
    224  CB        20.0260   13.6850   -2.2080 C.3   296  VAL296      0.0252
    225  CG1       20.1080   12.1650   -2.0590 C.3   296  VAL296      0.0019
    226  CG2       20.1450   14.1070   -3.6880 C.3   296  VAL296      0.0019
@<TRIPOS>BOND
     1    44    43    2
     2    47    46    2
     3    43    42    1
     4    46    48   am
     5    46    45    1
     6   164   165    1
     7   164   161    1
     8    41    42    1
     9   163   162    2
    10    42    45    1
    11   162   161    1
    12   166   165   ar
    13   166   168   ar
    14   165   167   ar
    15   143   142    2
    16   161   160    1
    17   168   170   ar
    18   167   169   ar
    19   160   154   am
    20   152   153    1
    21   170   169   ar
    22   132   131    2
    23   142   141    1
    24    56    55   ar
    25    49    50    1
    26   154   153    1
    27   154   155    2
    28   153   156    1
    29    51    50    1
    30    51    52    2
    31   141   140    1
    32   141   144    1
    33   159   158    1
    34   156   157    1
    35   131   140   am
    36   131   130    1
    37   171   172    1
    38    50    53    1
    39    55    57   ar
    40    55    54    1
    41    53    54    1
    42   146   148   ar
    43   146   145   ar
    44   144   145    1
    45   157   158    1
    46   130   133    1
    47   130   129    1
    48    67    68    2
    49    67    66    1
    50   148   150   ar
    51   145   147   ar
    52    33    32    1
    53    33    34    2
    54    39    37   ar
    55    39    40   ar
    56   133   134    1
    57   172   175    1
    58   172   173    1
    59    65    66    1
    60    32    31    1
    61    32    35    1
    62    37    36   ar
    63    40    38   ar
    64   134   136   ar
    65   134   135   ar
    66   174   173    2
    67    66    69    1
    68   136   138   ar
    69   135   137   ar
    70   175   176    1
    71   150   151    1
    72   150   149   ar
    73    36    38   ar
    74    36    35    1
    75   147   149   ar
    76    69    70    1
    77   138   139   ar
    78   178   176   am
    79   137   139   ar
    80   176   177    2
    81   125   124    2
    82    70    71    1
    83    60    61    2
    84    60    59    1
    85    21    19   ar
    86    21    22   ar
    87    19    18   ar
    88    26    25    2
    89    63    62    1
    90   124   123    1
    91    58    59    1
    92   118   117    2
    93    59    62    1
    94    25    24    1
    95    29    28   ar
    96    22    20   ar
    97    71    72    1
    98    18    17    1
    99    18    20   ar
   100   128   126    1
   101    17    14    1
   102   123   126    1
   103   123   122    1
   104    24    27    1
   105    24    23    1
   106    62    64    1
   107   226   224    1
   108   179   180    1
   109   117   122   am
   110   117   116    1
   111    28    27    1
   112    28    30   ar
   113    16    15    2
   114   121   119    1
   115   126   127    1
   116    14    13    1
   117    14    15    1
   118    13     3   am
   119   186   185   ar
   120   116   119    1
   121   116   115    1
   122     1     2    1
   123   182   181    2
   124   183   180    1
   125   183   184    1
   126   180   181    1
   127   197   196    1
   128   197   198    1
   129     5     2    1
   130     5     6    1
   131   224   225    1
   132   224   221    1
   133   119   120    1
   134    80    78   ar
   135   215   217   ar
   136   215   214   ar
   137   217   219   ar
   138   181   188   am
   139     8     6   ar
   140     8    10   ar
   141   220   221    1
   142     2     3    1
   143     3     4    2
   144   221   222    1
   145   199   198    2
   146   209   210    1
   147   185   184    1
   148   185   187   ar
   149     6     7   ar
   150   210   213    1
   151   210   211    1
   152   198   200   am
   153    10    11   ar
   154   213   214    1
   155   214   216   ar
   156   188   189    1
   157    78    79   ar
   158    78    77    1
   159   219   218   ar
   160   113   112    2
   161    87    85    1
   162   212   211    2
   163   189   190    1
   164   189   192    1
   165     7     9   ar
   166   222   223    2
   167   194   193    1
   168   200   201    1
   169    11     9   ar
   170    11    12    1
   171   191   190    2
   172    77    74    1
   173   216   218   ar
   174   208   206   am
   175   112   111    1
   176   192   193    1
   177    76    75    2
   178    88    86    1
   179    85    86    1
   180    85    82    1
   181   201   202    1
   182   201   204    1
   183   193   195    1
   184    75    74    1
   185    75    81   am
   186   202   203    2
   187    74    73    1
   188   111   114    1
   189   111   110    1
   190    81    82    1
   191   206   205    1
   192   206   207    2
   193    82    83    1
   194   205   204    1
   195    95    94    2
   196    83    84    2
   197    94    93    1
   198    94    96   am
   199   102   101    1
   200    93    90    1
   201   103   101    1
   202    89    90    1
   203   101    98    1
   204   107   106    2
   205    90    91    1
   206    97    91   am
   207    97    98    1
   208    91    92    2
   209    98    99    1
   210   106   105    1
   211   109   108    1
   212   105   108    1
   213   105   104    1
   214    99   100    2
