@<TRIPOS>MOLECULE
tmp/5l8iA00.pdb
 153 145 0 0 0
SMALL
GASTEIGER

@<TRIPOS>ATOM
      1  N         41.9870   -3.9970   52.7430 N.3    48  TRP48      -0.1241
      2  CA        43.0850   -3.9600   53.7050 C.3    48  TRP48       0.1605
      3  C         44.3840   -3.8410   52.9040 C.2    48  TRP48       0.2264
      4  O         44.7310   -4.7740   52.1850 O.2    48  TRP48      -0.2867
      5  CB        43.0830   -5.2510   54.5240 C.3    48  TRP48       0.0550
      6  CG        43.9400   -5.1720   55.7460 C.ar   48  TRP48       0.0003
      7  CD1       45.3050   -5.1360   55.8090 C.ar   48  TRP48       0.0946
      8  CD2       43.4780   -5.1500   57.0870 C.ar   48  TRP48       0.0152
      9  NE1       45.7110   -5.0540   57.1120 N.ar   48  TRP48      -0.2442
     10  CE2       44.6150   -5.0380   57.9210 C.ar   48  TRP48       0.0810
     11  CE3       42.2140   -5.1590   57.6670 C.ar   48  TRP48       0.0012
     12  CZ2       44.5240   -4.9840   59.3180 C.ar   48  TRP48       0.0191
     13  CZ3       42.1260   -5.0800   59.0730 C.ar   48  TRP48       0.0001
     14  CH2       43.2750   -4.9880   59.8660 C.ar   48  TRP48       0.0015
     15  N         48.5870   -2.6750   52.5710 N.3    50  GLN50      -0.1245
     16  CA        49.8810   -2.4220   53.1940 C.3    50  GLN50       0.1566
     17  C         50.7380   -1.7560   52.1670 C.2    50  GLN50       0.2260
     18  O         50.8840   -2.2910   51.0520 O.2    50  GLN50      -0.2867
     19  CB        50.5140   -3.7110   53.6830 C.3    50  GLN50       0.0367
     20  CG        49.7300   -4.2820   54.8530 C.3    50  GLN50       0.0905
     21  CD        50.0370   -5.7380   55.1300 C.2    50  GLN50       0.2608
     22  OE1       49.6490   -6.6170   54.3670 O.2    50  GLN50      -0.2717
     23  NE2       50.7270   -6.0010   56.2410 N.am   50  GLN50      -0.0878
     24  N         44.2490   -6.7540   50.2020 N.3    60  ASN60      -0.1240
     25  CA        43.3800   -7.8790   50.4030 C.3    60  ASN60       0.1653
     26  C         41.9590   -7.3720   50.6680 C.2    60  ASN60       0.2266
     27  O         41.7610   -6.4030   51.4200 O.2    60  ASN60      -0.2867
     28  CB        43.8720   -8.6900   51.5840 C.3    60  ASN60       0.1155
     29  CG        45.0720   -9.5500   51.2420 C.2    60  ASN60       0.2627
     30  OD1       44.9580  -10.5790   50.5490 O.2    60  ASN60      -0.2716
     31  ND2       46.2320   -9.1440   51.7360 N.am   60  ASN60      -0.0877
     32  N         38.1610   -8.8390   51.7830 N.3    62  PHE62      -0.1241
     33  CA        37.4890  -10.0050   52.3740 C.3    62  PHE62       0.1605
     34  C         36.1850   -9.5780   53.0410 C.2    62  PHE62       0.2264
     35  O         35.9630   -8.3930   53.3180 O.2    62  PHE62      -0.2867
     36  CB        38.3840  -10.7810   53.3950 C.3    62  PHE62       0.0534
     37  CG        38.9340   -9.9320   54.5120 C.ar   62  PHE62      -0.0203
     38  CD1       40.1310   -9.2530   54.3430 C.ar   62  PHE62      -0.0042
     39  CD2       38.2710   -9.8000   55.7210 C.ar   62  PHE62      -0.0042
     40  CE1       40.6630   -8.4530   55.3490 C.ar   62  PHE62      -0.0003
     41  CE2       38.7900   -8.9970   56.7290 C.ar   62  PHE62      -0.0003
     42  CZ        39.9820   -8.3220   56.5510 C.ar   62  PHE62      -0.0000
     43  N         44.0030  -15.0590   51.0640 N.3    70  ILE70      -0.1231
     44  CA        44.7820  -13.8970   51.4530 C.3    70  ILE70       0.1692
     45  C         46.1790  -14.0200   50.8970 C.2    70  ILE70       0.2592
     46  O         46.7550  -15.1080   50.9080 O.2    70  ILE70      -0.2718
     47  CB        44.9140  -13.8040   52.9820 C.3    70  ILE70       0.0266
     48  CG1       43.5370  -13.9550   53.6430 C.3    70  ILE70       0.0019
     49  CG2       45.5910  -12.4920   53.3970 C.3    70  ILE70       0.0020
     50  CD1       42.6840  -12.6970   53.6150 C.3    70  ILE70       0.0001
     51  N         46.7230  -12.8910   50.4560 N.am   71  GLN71      -0.1966
     52  CA        48.1030  -12.7930   50.0030 C.3    71  GLN71       0.1733
     53  C         48.8730  -11.9200   50.9780 C.2    71  GLN71       0.2617
     54  O         48.2910  -11.0870   51.6610 O.2    71  GLN71      -0.2715
     55  CB        48.1650  -12.2130   48.5870 C.3    71  GLN71       0.0408
     56  CG        48.0090  -13.2300   47.4710 C.3    71  GLN71       0.0908
     57  CD        48.3740  -12.6870   46.1010 C.2    71  GLN71       0.2608
     58  OE1       49.0750  -13.3480   45.3260 O.2    71  GLN71      -0.2717
     59  NE2       47.8960  -11.4920   45.7840 N.am   71  GLN71      -0.0878
     60  N         50.1850  -12.1280   51.0430 N.am   72  THR72      -0.1951
     61  CA        51.0730  -11.4000   51.9660 C.3    72  THR72       0.1897
     62  C         52.0020  -10.4760   51.1860 C.2    72  THR72       0.2313
     63  O         52.2320  -10.7010   49.9950 O.2    72  THR72      -0.2863
     64  CB        51.9370  -12.3710   52.7970 C.3    72  THR72       0.1794
     65  OG1       52.9440  -12.9590   51.9570 O.3    72  THR72      -0.2208
     66  CG2       51.0710  -13.4730   53.4340 C.3    72  THR72       0.0378
     67  N         46.8680  -17.8580   50.5880 N.3    78  PHE78      -0.1241
     68  CA        46.2600  -18.9450   51.3800 C.3    78  PHE78       0.1605
     69  C         44.7650  -18.7560   51.6120 C.2    78  PHE78       0.2264
     70  O         44.2970  -17.6170   51.7640 O.2    78  PHE78      -0.2867
     71  CB        46.9890  -19.1450   52.7250 C.3    78  PHE78       0.0534
     72  CG        46.9690  -17.9420   53.6420 C.ar   78  PHE78      -0.0203
     73  CD1       47.8990  -16.9060   53.4840 C.ar   78  PHE78      -0.0042
     74  CD2       46.0520  -17.8610   54.7050 C.ar   78  PHE78      -0.0042
     75  CE1       47.8890  -15.8030   54.3340 C.ar   78  PHE78      -0.0003
     76  CE2       46.0390  -16.7590   55.5560 C.ar   78  PHE78      -0.0003
     77  CZ        46.9640  -15.7320   55.3740 C.ar   78  PHE78      -0.0000
     78  N         37.7750  -15.1560   57.7940 N.3    82  VAL82      -0.1245
     79  CA        38.0190  -14.1880   58.8560 C.3    82  VAL82       0.1561
     80  C         36.7940  -14.1530   59.7570 C.2    82  VAL82       0.2260
     81  O         35.6700  -14.0830   59.2580 O.2    82  VAL82      -0.2867
     82  CB        38.3310  -12.7830   58.2900 C.3    82  VAL82       0.0252
     83  CG1       38.6100  -11.8110   59.4200 C.3    82  VAL82       0.0019
     84  CG2       39.5260  -12.8370   57.3430 C.3    82  VAL82       0.0019
     85  N         39.5980   -9.2780   64.5150 N.3    89  LEU89      -0.1245
     86  CA        39.4720  -10.0770   63.3120 C.3    89  LEU89       0.1561
     87  C         40.4400  -11.2350   63.4660 C.2    89  LEU89       0.2260
     88  O         41.6120  -11.0060   63.7530 O.2    89  LEU89      -0.2867
     89  CB        39.8970   -9.2960   62.0830 C.3    89  LEU89       0.0270
     90  CG        39.0270   -8.1390   61.6380 C.3    89  LEU89       0.0019
     91  CD1       39.8010   -7.3340   60.6040 C.3    89  LEU89       0.0001
     92  CD2       37.7320   -8.7060   61.0670 C.3    89  LEU89       0.0001
     93  N         41.9600  -15.0090   61.9230 N.3    91  VAL91      -0.1245
     94  CA        42.1860  -15.8340   60.7490 C.3    91  VAL91       0.1561
     95  C         42.9460  -17.0990   61.1630 C.2    91  VAL91       0.2260
     96  O         43.8490  -17.0440   62.0170 O.2    91  VAL91      -0.2867
     97  CB        43.0390  -15.0850   59.6910 C.3    91  VAL91       0.0252
     98  CG1       42.8940  -15.7330   58.3200 C.3    91  VAL91       0.0019
     99  CG2       42.6410  -13.6310   59.6120 C.3    91  VAL91       0.0019
    100  N         48.8710  -21.7980   61.4540 N.3    96  TYR96      -0.1241
    101  CA        48.9890  -20.3460   61.4110 C.3    96  TYR96       0.1605
    102  C         47.7640  -19.6460   61.9610 C.2    96  TYR96       0.2264
    103  O         46.6470  -19.9750   61.5560 O.2    96  TYR96      -0.2867
    104  CB        49.2330  -19.8690   59.9880 C.3    96  TYR96       0.0534
    105  CG        49.3740  -18.3710   59.9130 C.ar   96  TYR96      -0.0201
    106  CD1       50.5540  -17.7610   60.2700 C.ar   96  TYR96      -0.0009
    107  CD2       48.2960  -17.5620   59.5440 C.ar   96  TYR96      -0.0009
    108  CE1       50.6950  -16.3870   60.2250 C.ar   96  TYR96       0.0417
    109  CE2       48.4300  -16.1890   59.4940 C.ar   96  TYR96       0.0417
    110  CZ        49.6330  -15.6160   59.8330 C.ar   96  TYR96       0.1957
    111  OH        49.8120  -14.2830   59.8020 O.3    96  TYR96      -0.2866
    112  N         46.2300  -15.6880   63.2480 N.3    98  GLN98      -0.1231
    113  CA        46.4590  -14.2810   63.0240 C.3    98  GLN98       0.1698
    114  C         45.2990  -13.4940   63.5350 C.2    98  GLN98       0.2593
    115  O         44.1600  -13.9140   63.3780 O.2    98  GLN98      -0.2718
    116  CB        46.6360  -14.0400   61.5360 C.3    98  GLN98       0.0381
    117  CG        47.0310  -12.6380   61.1560 C.3    98  GLN98       0.0905
    118  CD        47.0130  -12.4480   59.6500 C.2    98  GLN98       0.2608
    119  OE1       47.6380  -13.2080   58.9120 O.2    98  GLN98      -0.2717
    120  NE2       46.2940  -11.4410   59.1870 N.am   98  GLN98      -0.0878
    121  N         45.6120  -12.3600   64.1680 N.am   99  THR99      -0.1939
    122  CA        44.6190  -11.4630   64.7200 C.3    99  THR99       0.2028
    123  C         44.9760  -10.0120   64.4320 C.2    99  THR99       0.2642
    124  O         46.1340   -9.6620   64.2550 O.2    99  THR99      -0.2714
    125  CB        44.3820  -11.6810   66.2430 C.3    99  THR99       0.1808
    126  OG1       45.5030  -11.2160   66.9850 O.3    99  THR99      -0.2208
    127  CG2       44.1340  -13.1580   66.5890 C.3    99  THR99       0.0379
    128  N         43.9470   -9.1900   64.3280 N.am  100  SER100     -0.1949
    129  CA        44.0930   -7.7770   64.1380 C.3   100  SER100      0.1924
    130  C         43.0560   -7.1490   65.0440 C.2   100  SER100      0.2314
    131  O         41.9220   -7.6280   65.1210 O.2   100  SER100     -0.2863
    132  CB        43.8810   -7.3840   62.6630 C.3   100  SER100      0.2116
    133  OG        44.8750   -7.9390   61.8320 O.3   100  SER100     -0.2180
    134  N         48.4680   -6.1900   65.4530 N.3   109  GLU109     -0.1245
    135  CA        48.3750   -7.3730   64.6350 C.3   109  GLU109      0.1567
    136  C         49.3020   -8.4330   65.2460 C.2   109  GLU109      0.2260
    137  O         50.4850   -8.1510   65.4960 O.2   109  GLU109     -0.2867
    138  CB        48.7730   -7.0640   63.1740 C.3   109  GLU109      0.0388
    139  CG        47.8550   -6.0610   62.4890 C.3   109  GLU109      0.1160
    140  CD        48.4010   -5.5140   61.1770 C.2   109  GLU109      0.3649
    141  OE1       47.8520   -5.8730   60.1180 O.co2 109  GLU109     -0.2457
    142  OE2       49.3530   -4.6990   61.1830 O.co2 109  GLU109     -0.2457
    143  N         52.8280   -6.7200   65.7230 N.3   120  ARG120     -0.1245
    144  CA        53.0680   -5.3920   65.1180 C.3   120  ARG120      0.1563
    145  C         52.0710   -4.4130   65.7130 C.2   120  ARG120      0.2260
    146  O         50.8610   -4.7230   65.7990 O.2   120  ARG120     -0.2867
    147  CB        52.8660   -5.4620   63.6110 C.3   120  ARG120      0.0307
    148  CG        53.3300   -4.2240   62.8790 C.3   120  ARG120      0.0489
    149  CD        52.8160   -4.2370   61.4520 C.3   120  ARG120      0.2205
    150  NE        53.6160   -5.1350   60.6350 N.pl3 120  ARG120     -0.0865
    151  CZ        53.1520   -5.9150   59.6630 C.cat 120  ARG120      0.5346
    152  NH1       51.8590   -5.9660   59.3820 N.pl3 120  ARG120      0.1354
    153  NH2       53.9970   -6.6480   58.9660 N.pl3 120  ARG120      0.1354
@<TRIPOS>BOND
     1    58    57    2
     2    59    57   am
     3    57    56    1
     4    56    55    1
     5    55    52    1
     6    63    62    2
     7    52    51    1
     8    52    53    1
     9    24    25    1
    10    25    26    1
    11    25    28    1
    12    51    45   am
    13    30    29    2
    14    67    68    1
    15    26    27    2
    16    45    46    2
    17    45    44    1
    18    53    60   am
    19    53    54    2
    20    60    61    1
    21    18    17    2
    22    43    44    1
    23    62    61    1
    24    29    28    1
    25    29    31   am
    26    68    69    1
    27    68    71    1
    28    44    47    1
    29    69    70    2
    30    32    33    1
    31    65    64    1
    32    61    64    1
    33    17    16    1
    34     4     3    2
    35    33    34    1
    36    33    36    1
    37    15    16    1
    38    71    72    1
    39     1     2    1
    40    64    66    1
    41     3     2    1
    42    47    49    1
    43    47    48    1
    44    34    35    2
    45    16    19    1
    46    36    37    1
    47    73    72   ar
    48    73    75   ar
    49    50    48    1
    50    72    74   ar
    51    19    20    1
    52     2     5    1
    53    75    77   ar
    54    38    37   ar
    55    38    40   ar
    56    22    21    2
    57    37    39   ar
    58     5     6    1
    59    74    76   ar
    60    20    21    1
    61    21    23   am
    62    40    42   ar
    63    77    76   ar
    64    39    41   ar
    65     6     7   ar
    66     6     8   ar
    67     7     9   ar
    68    42    41   ar
    69     8    11   ar
    70     8    10   ar
    71     9    10   ar
    72    84    82    1
    73    11    13   ar
    74    78    79    1
    75    10    12   ar
    76    82    79    1
    77    82    83    1
    78    98    97    1
    79    79    80    1
    80   119   118    2
    81   153   151    1
    82    13    14   ar
    83   120   118   am
    84    81    80    2
    85    12    14   ar
    86   152   151    1
    87   109   107   ar
    88   109   110   ar
    89   107   105   ar
    90    99    97    1
    91   118   117    1
    92   151   150    2
    93    97    94    1
    94   111   110    1
    95   110   108   ar
    96   105   104    1
    97   105   106   ar
    98   104   101    1
    99   141   140   ar
   100   108   106   ar
   101    91    90    1
   102   150   149    1
   103    94    95    1
   104    94    93    1
   105    92    90    1
   106   117   116    1
   107    95    96    2
   108   140   142   ar
   109   140   139    1
   110   101   100    1
   111   101   102    1
   112   149   148    1
   113   116   113    1
   114   103   102    2
   115    90    89    1
   116   133   132    1
   117    89    86    1
   118   139   138    1
   119   132   129    1
   120   148   147    1
   121   113   112    1
   122   113   114    1
   123   138   135    1
   124    86    87    1
   125    86    85    1
   126   115   114    2
   127    87    88    2
   128   114   121   am
   129   147   144    1
   130   129   128    1
   131   129   130    1
   132   121   122    1
   133   124   123    2
   134   128   123   am
   135   123   122    1
   136   135   136    1
   137   135   134    1
   138   122   125    1
   139   130   131    2
   140   144   145    1
   141   144   143    1
   142   136   137    2
   143   145   146    2
   144   125   127    1
   145   125   126    1
