@<TRIPOS>MOLECULE
tmp/5l8nC00.pdb
 119 112 0 0 0
SMALL
GASTEIGER

@<TRIPOS>ATOM
      1  N         33.3950   -9.8670  101.6840 N.3     7  MET7       -0.1245
      2  CA        34.7710   -9.5080  102.0360 C.3     7  MET7        0.1570
      3  C         34.9760   -9.5710  103.5470 C.2     7  MET7        0.2261
      4  O         34.2440   -8.9320  104.3000 O.2     7  MET7       -0.2867
      5  CB        35.1100   -8.1030  101.5320 C.3     7  MET7        0.0387
      6  CG        36.5050   -7.6210  101.9070 C.3     7  MET7        0.0595
      7  SD        36.9200   -6.0180  101.2070 S.3     7  MET7       -0.1393
      8  CE        35.8480   -4.9400  102.1600 C.3     7  MET7        0.0692
      9  N         41.4290   -7.9360  104.1450 N.3    10  GLU10      -0.1245
     10  CA        42.1970   -7.2630  103.0880 C.3    10  GLU10       0.1567
     11  C         43.5010   -6.6230  103.5830 C.2    10  GLU10       0.2260
     12  O         43.5600   -6.0810  104.6880 O.2    10  GLU10      -0.2867
     13  CB        41.3440   -6.2260  102.3450 C.3    10  GLU10       0.0388
     14  CG        40.7790   -5.1120  103.2100 C.3    10  GLU10       0.1160
     15  CD        39.9920   -4.0780  102.4170 C.2    10  GLU10       0.3649
     16  OE1       39.5510   -3.0830  103.0270 O.co2  10  GLU10      -0.2457
     17  OE2       39.8100   -4.2450  101.1930 O.co2  10  GLU10      -0.2457
     18  N         44.8560   -1.8040  101.8950 N.3    13  TYR13      -0.1241
     19  CA        43.7730   -0.9690  101.3630 C.3    13  TYR13       0.1605
     20  C         44.1330    0.5300  101.3600 C.2    13  TYR13       0.2264
     21  O         43.8060    1.2430  100.4120 O.2    13  TYR13      -0.2867
     22  CB        42.4760   -1.2340  102.1450 C.3    13  TYR13       0.0534
     23  CG        41.4140   -0.1650  102.0310 C.ar   13  TYR13      -0.0201
     24  CD1       40.5850   -0.0850  100.9110 C.ar   13  TYR13      -0.0009
     25  CD2       41.2250    0.7600  103.0590 C.ar   13  TYR13      -0.0009
     26  CE1       39.6050    0.8930  100.8150 C.ar   13  TYR13       0.0417
     27  CE2       40.2510    1.7390  102.9710 C.ar   13  TYR13       0.0417
     28  CZ        39.4430    1.8040  101.8470 C.ar   13  TYR13       0.1957
     29  OH        38.4780    2.7800  101.7660 O.3    13  TYR13      -0.2866
     30  N         44.6340    2.8080   97.9020 N.3    17  MET17      -0.1245
     31  CA        43.7240    3.9430   97.6740 C.3    17  MET17       0.1570
     32  C         44.4500    5.2910   97.6270 C.2    17  MET17       0.2261
     33  O         44.0430    6.1820   96.8780 O.2    17  MET17      -0.2867
     34  CB        42.6240    3.9930   98.7400 C.3    17  MET17       0.0387
     35  CG        41.6690    2.8050   98.7360 C.3    17  MET17       0.0595
     36  SD        40.3370    2.8940   97.5200 S.3    17  MET17      -0.1393
     37  CE        41.1080    2.1950   96.0610 C.3    17  MET17       0.0692
     38  N         34.8640    4.9260  103.4410 N.3    30  ALA30      -0.1231
     39  CA        34.6200    3.7460  102.6110 C.3    30  ALA30       0.1694
     40  C         35.1200    2.4260  103.2060 C.2    30  ALA30       0.2591
     41  O         34.5560    1.3800  102.8860 O.2    30  ALA30      -0.2718
     42  CB        35.2020    3.9480  101.2170 C.3    30  ALA30       0.0304
     43  N         36.1420    2.4600  104.0700 N.am   31  ARG31      -0.1980
     44  CA        36.7220    1.2170  104.6310 C.3    31  ARG31       0.1597
     45  C         35.6900    0.3570  105.3700 C.2    31  ARG31       0.2287
     46  O         35.7600   -0.8700  105.3320 O.2    31  ARG31      -0.2864
     47  CB        37.9500    1.4890  105.5340 C.3    31  ARG31       0.0334
     48  CG        37.6670    1.8670  106.9900 C.3    31  ARG31       0.0492
     49  CD        38.7980    1.4950  107.9400 C.3    31  ARG31       0.2205
     50  NE        39.8940    2.4650  107.9050 N.pl3  31  ARG31      -0.0865
     51  CZ        41.0510    2.3320  107.2480 C.cat  31  ARG31       0.5346
     52  NH1       41.3420    1.2450  106.5280 N.pl3  31  ARG31       0.1354
     53  NH2       41.9400    3.3170  107.3190 N.pl3  31  ARG31       0.1354
     54  N         32.6420   -0.0530  104.5370 N.3    33  PHE33      -0.1241
     55  CA        31.6620   -0.5940  103.5970 C.3    33  PHE33       0.1605
     56  C         31.8000   -2.1060  103.4510 C.2    33  PHE33       0.2264
     57  O         32.9050   -2.6260  103.2800 O.2    33  PHE33      -0.2867
     58  CB        31.8090    0.0600  102.2170 C.3    33  PHE33       0.0534
     59  CG        31.3040    1.4910  102.1480 C.ar   33  PHE33      -0.0203
     60  CD1       30.8500    2.1560  103.2860 C.ar   33  PHE33      -0.0042
     61  CD2       31.3570    2.1970  100.9540 C.ar   33  PHE33      -0.0042
     62  CE1       30.4640    3.5080  103.2410 C.ar   33  PHE33      -0.0003
     63  CE2       30.9700    3.5680  100.8900 C.ar   33  PHE33      -0.0003
     64  CZ        30.5240    4.2220  102.0400 C.ar   33  PHE33      -0.0000
     65  N         31.5440   -5.2680  101.2270 N.3    35  ILE35      -0.1245
     66  CA        31.6730   -5.5780   99.8060 C.3    35  ILE35       0.1561
     67  C         31.2520   -7.0240   99.5770 C.2    35  ILE35       0.2260
     68  O         31.8740   -7.9480  100.1110 O.2    35  ILE35      -0.2867
     69  CB        33.1120   -5.3610   99.2910 C.3    35  ILE35       0.0252
     70  CG1       33.4760   -3.8770   99.3880 C.3    35  ILE35       0.0019
     71  CG2       33.2610   -5.8510   97.8450 C.3    35  ILE35       0.0019
     72  CD1       34.9310   -3.5730   99.1140 C.3    35  ILE35       0.0001
     73  N         28.3450   -2.8670   96.8420 N.3    52  TYR52      -0.1241
     74  CA        28.8280   -2.0510   97.9610 C.3    52  TYR52       0.1605
     75  C         27.6600   -1.5900   98.8180 C.2    52  TYR52       0.2264
     76  O         26.5270   -1.5010   98.3350 O.2    52  TYR52      -0.2867
     77  CB        29.5730   -0.8240   97.4360 C.3    52  TYR52       0.0534
     78  CG        30.8090   -1.1520   96.6320 C.ar   52  TYR52      -0.0201
     79  CD1       30.7200   -1.4830   95.2790 C.ar   52  TYR52      -0.0009
     80  CD2       32.0730   -1.1250   97.2210 C.ar   52  TYR52      -0.0009
     81  CE1       31.8560   -1.7860   94.5380 C.ar   52  TYR52       0.0417
     82  CE2       33.2140   -1.4250   96.4900 C.ar   52  TYR52       0.0417
     83  CZ        33.1030   -1.7540   95.1500 C.ar   52  TYR52       0.1957
     84  OH        34.2370   -2.0520   94.4300 O.3    52  TYR52      -0.2866
     85  N         35.9070   -0.1340   90.4170 N.3    73  MET73      -0.1230
     86  CA        35.1190    0.8310   91.1940 C.3    73  MET73       0.1702
     87  C         35.9720    1.9610   91.7800 C.2    73  MET73       0.2592
     88  O         35.4260    2.9670   92.2360 O.2    73  MET73      -0.2718
     89  CB        34.3670    0.1240   92.3220 C.3    73  MET73       0.0401
     90  CG        33.4190    1.0300   93.0990 C.3    73  MET73       0.0596
     91  SD        32.1160    1.7780   92.0710 S.3    73  MET73      -0.1393
     92  CE        31.3660    2.9240   93.2750 C.3    73  MET73       0.0692
     93  N         37.2960    1.7870   91.7900 N.am   74  GLY74      -0.1957
     94  CA        38.2290    2.8630   92.1290 C.3    74  GLY74       0.1869
     95  C         38.1970    4.0130   91.1330 C.2    74  GLY74       0.2309
     96  O         38.2960    5.1770   91.5280 O.2    74  GLY74      -0.2863
     97  N         47.8560   -5.3310   96.9450 N.3   118  TYR118     -0.1241
     98  CA        46.5690   -5.3490   97.6480 C.3   118  TYR118      0.1605
     99  C         45.9580   -6.7510   97.5450 C.2   118  TYR118      0.2264
    100  O         45.8830   -7.3080   96.4510 O.2   118  TYR118     -0.2867
    101  CB        45.6270   -4.2930   97.0480 C.3   118  TYR118      0.0534
    102  CG        44.1780   -4.3770   97.4920 C.ar  118  TYR118     -0.0201
    103  CD1       43.2390   -5.0930   96.7450 C.ar  118  TYR118     -0.0009
    104  CD2       43.7380   -3.7240   98.6450 C.ar  118  TYR118     -0.0009
    105  CE1       41.9100   -5.1690   97.1410 C.ar  118  TYR118      0.0417
    106  CE2       42.4100   -3.7920   99.0470 C.ar  118  TYR118      0.0417
    107  CZ        41.5000   -4.5170   98.2920 C.ar  118  TYR118      0.1957
    108  OH        40.1830   -4.5890   98.6810 O.3   118  TYR118     -0.2866
    109  N         42.5600   -9.3850   98.8960 N.3   120  ARG120     -0.1245
    110  CA        41.2150   -9.4810   99.4740 C.3   120  ARG120      0.1563
    111  C         40.7760  -10.9370   99.5910 C.2   120  ARG120      0.2260
    112  O         40.9300  -11.7060   98.6440 O.2   120  ARG120     -0.2867
    113  CB        40.1880   -8.7180   98.6330 C.3   120  ARG120      0.0307
    114  CG        38.8870   -8.4620   99.3840 C.3   120  ARG120      0.0489
    115  CD        37.6850   -8.2210   98.4840 C.3   120  ARG120      0.2205
    116  NE        37.5710   -6.8230   98.0720 N.pl3 120  ARG120     -0.0865
    117  CZ        38.0960   -6.2820   96.9680 C.cat 120  ARG120      0.5346
    118  NH1       38.8120   -7.0040   96.1000 N.pl3 120  ARG120      0.1354
    119  NH2       37.9060   -4.9850   96.7300 N.pl3 120  ARG120      0.1354
@<TRIPOS>BOND
     1    85    86    1
     2    95    96    2
     3    95    94    1
     4    86    87    1
     5    86    89    1
     6    87    93   am
     7    87    88    2
     8    93    94    1
     9    91    90    1
    10    91    92    1
    11    89    90    1
    12    84    83    1
    13    81    83   ar
    14    81    79   ar
    15    83    82   ar
    16    79    78   ar
    17    37    36    1
    18   118   117    1
    19   100    99    2
    20    82    80   ar
    21    78    80   ar
    22    78    77    1
    23   119   117    1
    24   103   105   ar
    25   103   102   ar
    26    73    74    1
    27    33    32    2
    28    97    98    1
    29   117   116    2
    30   101   102    1
    31   101    98    1
    32   105   107   ar
    33    77    74    1
    34   102   104   ar
    35    36    35    1
    36    99    98    1
    37    32    31    1
    38    31    30    1
    39    31    34    1
    40    71    69    1
    41    74    75    1
    42   116   115    1
    43   107   108    1
    44   107   106   ar
    45    76    75    2
    46   115   114    1
    47   113   114    1
    48   113   110    1
    49   112   111    2
    50   104   106   ar
    51    35    34    1
    52   109   110    1
    53    72    70    1
    54    69    70    1
    55    69    66    1
    56   110   111    1
    57    67    66    1
    58    67    68    2
    59    66    65    1
    60    21    20    2
    61    26    24   ar
    62    26    28   ar
    63    63    61   ar
    64    63    64   ar
    65    24    23   ar
    66    61    59   ar
    67    17    15   ar
    68     7     6    1
    69     7     8    1
    70    42    39    1
    71    20    19    1
    72    19    18    1
    73    19    22    1
    74     5     6    1
    75     5     2    1
    76     1     2    1
    77    29    28    1
    78    28    27   ar
    79    23    22    1
    80    23    25   ar
    81     2     3    1
    82    64    62   ar
    83    59    58    1
    84    59    60   ar
    85    58    55    1
    86    13    10    1
    87    13    14    1
    88    15    16   ar
    89    15    14    1
    90    39    40    1
    91    39    38    1
    92    41    40    2
    93    27    25   ar
    94    10    11    1
    95    10     9    1
    96    40    43   am
    97    62    60   ar
    98    57    56    2
    99    56    55    1
   100     3     4    2
   101    11    12    2
   102    55    54    1
   103    43    44    1
   104    44    45    1
   105    44    47    1
   106    46    45    2
   107    47    48    1
   108    52    51    1
   109    48    49    1
   110    51    53    1
   111    51    50    2
   112    50    49    1
