@<TRIPOS>MOLECULE
tmp/5l8nB02.pdb
 258 247 0 0 0
SMALL
GASTEIGER

@<TRIPOS>ATOM
      1  N         70.8040   -1.3080   88.1170 N.3    14  TYR14      -0.1241
      2  CA        69.6990   -2.0450   87.5050 C.3    14  TYR14       0.1605
      3  C         68.5840   -2.3420   88.5150 C.2    14  TYR14       0.2264
      4  O         67.4050   -2.2020   88.1880 O.2    14  TYR14      -0.2867
      5  CB        70.2190   -3.3410   86.8670 C.3    14  TYR14       0.0534
      6  CG        69.1450   -4.3110   86.4270 C.ar   14  TYR14      -0.0201
      7  CD1       68.3900   -4.0780   85.2770 C.ar   14  TYR14      -0.0009
      8  CD2       68.8900   -5.4710   87.1590 C.ar   14  TYR14      -0.0009
      9  CE1       67.4060   -4.9710   84.8710 C.ar   14  TYR14       0.0417
     10  CE2       67.9120   -6.3680   86.7630 C.ar   14  TYR14       0.0417
     11  CZ        67.1700   -6.1150   85.6220 C.ar   14  TYR14       0.1957
     12  OH        66.2000   -7.0120   85.2360 O.3    14  TYR14      -0.2866
     13  N         66.7260    1.0130   89.7190 N.3    17  PHE17      -0.1227
     14  CA        65.8980    1.4900   88.6140 C.3    17  PHE17       0.1736
     15  C         64.6250    0.6560   88.4570 C.2    17  PHE17       0.2595
     16  O         63.5250    1.2080   88.3820 O.2    17  PHE17      -0.2718
     17  CB        66.7050    1.4700   87.3140 C.3    17  PHE17       0.0547
     18  CG        66.0850    2.2560   86.2020 C.ar   17  PHE17      -0.0202
     19  CD1       66.2840    3.6290   86.1100 C.ar   17  PHE17      -0.0042
     20  CD2       65.3120    1.6240   85.2340 C.ar   17  PHE17      -0.0042
     21  CE1       65.7190    4.3590   85.0760 C.ar   17  PHE17      -0.0003
     22  CE2       64.7440    2.3490   84.1990 C.ar   17  PHE17      -0.0003
     23  CZ        64.9480    3.7170   84.1200 C.ar   17  PHE17      -0.0000
     24  N         64.7820   -0.6670   88.4170 N.am   18  MET18      -0.1979
     25  CA        63.6470   -1.5850   88.2510 C.3    18  MET18       0.1605
     26  C         62.7280   -1.6410   89.4780 C.2    18  MET18       0.2287
     27  O         61.5190   -1.8340   89.3340 O.2    18  MET18      -0.2864
     28  CB        64.1340   -2.9970   87.8960 C.3    18  MET18       0.0413
     29  CG        64.8390   -3.0980   86.5480 C.3    18  MET18       0.0598
     30  SD        63.7610   -2.8330   85.1290 S.3    18  MET18      -0.1393
     31  CE        62.9530   -4.4270   85.0230 C.3    18  MET18       0.0692
     32  N         60.4680    1.5580   89.4550 N.3    21  LEU21      -0.1245
     33  CA        59.3520    1.4280   88.5030 C.3    21  LEU21       0.1561
     34  C         58.3170    0.3490   88.8790 C.2    21  LEU21       0.2260
     35  O         57.3920    0.0910   88.1050 O.2    21  LEU21      -0.2867
     36  CB        59.8930    1.1670   87.0880 C.3    21  LEU21       0.0270
     37  CG        60.7180    2.2970   86.4620 C.3    21  LEU21       0.0019
     38  CD1       61.3170    1.8420   85.1380 C.3    21  LEU21       0.0001
     39  CD2       59.8840    3.5620   86.2780 C.3    21  LEU21       0.0001
     40  N         58.5290   -3.3680   90.1750 N.3    23  ILE23      -0.1245
     41  CA        58.6920   -4.7220   89.6250 C.3    23  ILE23       0.1561
     42  C         59.0280   -5.6890   90.7650 C.2    23  ILE23       0.2260
     43  O         59.7370   -5.3230   91.7050 O.2    23  ILE23      -0.2867
     44  CB        59.8130   -4.7860   88.5500 C.3    23  ILE23       0.0252
     45  CG1       59.6300   -3.7120   87.4620 C.3    23  ILE23       0.0019
     46  CG2       59.8740   -6.1680   87.9000 C.3    23  ILE23       0.0019
     47  CD1       58.4470   -3.9290   86.5390 C.3    23  ILE23       0.0001
     48  N         65.7590    0.4220   65.8880 N.3    49  TRP49      -0.1241
     49  CA        66.5000    0.1720   67.1190 C.3    49  TRP49       0.1605
     50  C         66.0340   -1.1440   67.7210 C.2    49  TRP49       0.2264
     51  O         64.9390   -1.2100   68.2740 O.2    49  TRP49      -0.2867
     52  CB        66.2730    1.3230   68.0980 C.3    49  TRP49       0.0550
     53  CG        67.2340    1.3510   69.2370 C.ar   49  TRP49       0.0003
     54  CD1       67.2620    0.5120   70.3140 C.ar   49  TRP49       0.0946
     55  CD2       68.3120    2.2760   69.4190 C.ar   49  TRP49       0.0152
     56  NE1       68.2980    0.8510   71.1510 N.ar   49  TRP49      -0.2442
     57  CE2       68.9570    1.9330   70.6270 C.ar   49  TRP49       0.0810
     58  CE3       68.7960    3.3600   68.6770 C.ar   49  TRP49       0.0012
     59  CZ2       70.0630    2.6400   71.1170 C.ar   49  TRP49       0.0191
     60  CZ3       69.9050    4.0640   69.1610 C.ar   49  TRP49       0.0001
     61  CH2       70.5240    3.6980   70.3710 C.ar   49  TRP49       0.0015
     62  N         66.7320   -4.5620   70.2640 N.3    51  GLN51      -0.1245
     63  CA        67.4070   -5.2410   71.3720 C.3    51  GLN51       0.1566
     64  C         67.1530   -6.7430   71.2550 C.2    51  GLN51       0.2260
     65  O         66.0160   -7.1820   71.3860 O.2    51  GLN51      -0.2867
     66  CB        66.8770   -4.7340   72.7130 C.3    51  GLN51       0.0367
     67  CG        67.2650   -3.2930   73.0220 C.3    51  GLN51       0.0905
     68  CD        66.6610   -2.7620   74.3160 C.2    51  GLN51       0.2608
     69  OE1       67.3310   -2.0770   75.0810 O.2    51  GLN51      -0.2717
     70  NE2       65.3930   -3.0660   74.5570 N.am   51  GLN51      -0.0878
     71  N         67.5580  -10.4610   72.7550 N.3    53  TYR53      -0.1241
     72  CA        67.6470  -11.0720   74.0880 C.3    53  TYR53       0.1605
     73  C         67.7670  -12.5890   74.0160 C.2    53  TYR53       0.2264
     74  O         67.5520  -13.1900   72.9610 O.2    53  TYR53      -0.2867
     75  CB        66.3680  -10.7750   74.8850 C.3    53  TYR53       0.0534
     76  CG        66.1600   -9.3310   75.2460 C.ar   53  TYR53      -0.0201
     77  CD1       66.5190   -8.8520   76.5060 C.ar   53  TYR53      -0.0009
     78  CD2       65.5850   -8.4380   74.3390 C.ar   53  TYR53      -0.0009
     79  CE1       66.3230   -7.5220   76.8530 C.ar   53  TYR53       0.0417
     80  CE2       65.3910   -7.1030   74.6740 C.ar   53  TYR53       0.0417
     81  CZ        65.7660   -6.6500   75.9320 C.ar   53  TYR53       0.1957
     82  OH        65.5780   -5.3350   76.2820 O.3    53  TYR53      -0.2866
     83  N         62.2030   -1.0580   67.8700 N.3    61  ASN61      -0.1240
     84  CA        61.5070    0.2260   67.8430 C.3    61  ASN61       0.1653
     85  C         61.9290    1.0170   66.6260 C.2    61  ASN61       0.2266
     86  O         63.1220    1.1450   66.3430 O.2    61  ASN61      -0.2867
     87  CB        61.8100    1.0290   69.1060 C.3    61  ASN61       0.1155
     88  CG        61.0640    0.5030   70.3120 C.2    61  ASN61       0.2627
     89  OD1       59.8420    0.5870   70.3760 O.2    61  ASN61      -0.2716
     90  ND2       61.7960   -0.0530   71.2690 N.am   61  ASN61      -0.0877
     91  N         61.6180    4.7540   64.9000 N.3    63  PHE63      -0.1241
     92  CA        61.2840    6.1440   65.1410 C.3    63  PHE63       0.1605
     93  C         62.0360    7.0720   64.2010 C.2    63  PHE63       0.2264
     94  O         63.0420    6.6940   63.5880 O.2    63  PHE63      -0.2867
     95  CB        61.5380    6.5150   66.6090 C.3    63  PHE63       0.0534
     96  CG        62.9710    6.3860   67.0410 C.ar   63  PHE63      -0.0203
     97  CD1       63.8420    7.4680   66.9460 C.ar   63  PHE63      -0.0042
     98  CD2       63.4470    5.1900   67.5650 C.ar   63  PHE63      -0.0042
     99  CE1       65.1600    7.3570   67.3520 C.ar   63  PHE63      -0.0003
    100  CE2       64.7680    5.0730   67.9770 C.ar   63  PHE63      -0.0003
    101  CZ        65.6250    6.1590   67.8710 C.ar   63  PHE63      -0.0000
    102  N         57.5270    4.0580   72.3400 N.3    71  ILE71      -0.1231
    103  CA        58.6440    3.1290   72.5250 C.3    71  ILE71       0.1692
    104  C         58.1670    1.9570   73.3820 C.2    71  ILE71       0.2592
    105  O         57.7410    2.1580   74.5180 O.2    71  ILE71      -0.2718
    106  CB        59.8580    3.8330   73.1820 C.3    71  ILE71       0.0266
    107  CG1       60.3490    4.9670   72.2680 C.3    71  ILE71       0.0019
    108  CG2       61.0040    2.8580   73.4650 C.3    71  ILE71       0.0020
    109  CD1       61.5680    5.7050   72.7780 C.3    71  ILE71       0.0001
    110  N         58.2400    0.7470   72.8280 N.am   72  GLN72      -0.1966
    111  CA        57.9320   -0.4820   73.5600 C.3    72  GLN72       0.1733
    112  C         59.2060   -1.0790   74.1570 C.2    72  GLN72       0.2617
    113  O         60.2470   -1.1050   73.5010 O.2    72  GLN72      -0.2715
    114  CB        57.2830   -1.5090   72.6330 C.3    72  GLN72       0.0408
    115  CG        55.9430   -1.0430   72.1150 C.3    72  GLN72       0.0908
    116  CD        55.2340   -2.1050   71.3100 C.2    72  GLN72       0.2608
    117  OE1       55.1350   -3.2590   71.7260 O.2    72  GLN72      -0.2717
    118  NE2       54.7380   -1.7180   70.1400 N.am   72  GLN72      -0.0878
    119  N         59.1220   -1.5450   75.4030 N.am   73  THR73      -0.1937
    120  CA        60.2250   -2.2740   76.0380 C.3    73  THR73       0.2028
    121  C         60.0520   -3.7750   75.8110 C.2    73  THR73       0.2642
    122  O         59.0050   -4.2250   75.3330 O.2    73  THR73      -0.2714
    123  CB        60.3170   -1.9840   77.5500 C.3    73  THR73       0.1808
    124  OG1       59.1350   -2.4460   78.2140 O.3    73  THR73      -0.2208
    125  CG2       60.4860   -0.4910   77.7990 C.3    73  THR73       0.0379
    126  N         61.0870   -4.5400   76.1510 N.am   74  MET74      -0.1962
    127  CA        61.0500   -6.0010   76.0340 C.3    74  MET74       0.1736
    128  C         60.0940   -6.6300   77.0450 C.2    74  MET74       0.2617
    129  O         59.5080   -7.6790   76.7720 O.2    74  MET74      -0.2715
    130  CB        62.4460   -6.5820   76.2240 C.3    74  MET74       0.0427
    131  CG        62.5980   -8.0880   76.1540 C.3    74  MET74       0.0599
    132  SD        62.1630   -8.7580   74.5300 S.3    74  MET74      -0.1393
    133  CE        61.8220  -10.4590   74.9860 C.3    74  MET74       0.0692
    134  N         59.9460   -5.9880   78.2050 N.am   75  GLY75      -0.1955
    135  CA        58.9670   -6.3950   79.2110 C.3    75  GLY75       0.1869
    136  C         57.5110   -6.1700   78.8290 C.2    75  GLY75       0.2309
    137  O         56.6260   -6.7910   79.4180 O.2    75  GLY75      -0.2863
    138  N         56.0460   -2.8430   78.4620 N.3    77  LYS77      -0.1245
    139  CA        55.6670   -1.4580   78.7520 C.3    77  LYS77       0.1561
    140  C         55.8540   -0.5670   77.5230 C.2    77  LYS77       0.2260
    141  O         56.8570   -0.6840   76.8120 O.2    77  LYS77      -0.2867
    142  CB        56.5030   -0.9160   79.9150 C.3    77  LYS77       0.0271
    143  CG        56.1710    0.5020   80.3580 C.3    77  LYS77       0.0035
    144  CD        57.1770    0.9760   81.3930 C.3    77  LYS77       0.0206
    145  CE        56.9270    2.4170   81.8050 C.3    77  LYS77       0.1093
    146  NZ        57.7740    2.8160   82.9630 N.3    77  LYS77      -0.1314
    147  N         55.4230    3.6250   76.1800 N.3    79  PHE79      -0.1241
    148  CA        55.2850    5.0340   76.5530 C.3    79  PHE79       0.1605
    149  C         55.5460    5.9540   75.3610 C.2    79  PHE79       0.2264
    150  O         56.3960    5.6610   74.5170 O.2    79  PHE79      -0.2867
    151  CB        56.2320    5.3770   77.7130 C.3    79  PHE79       0.0534
    152  CG        57.6970    5.2250   77.3840 C.ar   79  PHE79      -0.0203
    153  CD1       58.3220    3.9840   77.4750 C.ar   79  PHE79      -0.0042
    154  CD2       58.4580    6.3260   76.9940 C.ar   79  PHE79      -0.0042
    155  CE1       59.6730    3.8430   77.1770 C.ar   79  PHE79      -0.0003
    156  CE2       59.8070    6.1900   76.6950 C.ar   79  PHE79      -0.0003
    157  CZ        60.4160    4.9460   76.7860 C.ar   79  PHE79      -0.0000
    158  N         62.1710   11.5670   70.3210 N.3    83  VAL83      -0.1245
    159  CA        63.6280   11.5220   70.4040 C.3    83  VAL83       0.1561
    160  C         64.2180   12.7110   69.6400 C.2    83  VAL83       0.2260
    161  O         63.7650   13.0210   68.5410 O.2    83  VAL83      -0.2867
    162  CB        64.1860   10.2020   69.8140 C.3    83  VAL83       0.0252
    163  CG1       65.7110   10.1580   69.9190 C.3    83  VAL83       0.0019
    164  CG2       63.5520    8.9930   70.4970 C.3    83  VAL83       0.0019
    165  N         71.1990   10.8860   71.1960 N.3    90  LEU90      -0.1231
    166  CA        69.7450   10.7510   71.1290 C.3    90  LEU90       0.1693
    167  C         69.1860   10.9930   72.5280 C.2    90  LEU90       0.2592
    168  O         69.6050   10.3320   73.4830 O.2    90  LEU90      -0.2718
    169  CB        69.3390    9.3690   70.6260 C.3    90  LEU90       0.0284
    170  CG        69.7900    9.0090   69.2060 C.3    90  LEU90       0.0019
    171  CD1       69.4690    7.5550   68.9010 C.3    90  LEU90       0.0001
    172  CD2       69.1590    9.9200   68.1610 C.3    90  LEU90       0.0001
    173  N         68.2450   11.9300   72.6390 N.am   91  VAL91      -0.1966
    174  CA        67.7370   12.4010   73.9290 C.3    91  VAL91       0.1727
    175  C         66.2130   12.2620   74.0070 C.2    91  VAL91       0.2616
    176  O         65.5050   12.6040   73.0600 O.2    91  VAL91      -0.2715
    177  CB        68.1390   13.8730   74.1630 C.3    91  VAL91       0.0290
    178  CG1       67.5550   14.4050   75.4700 C.3    91  VAL91       0.0023
    179  CG2       69.6540   14.0020   74.1550 C.3    91  VAL91       0.0023
    180  N         65.7310   11.7390   75.1340 N.am   92  VAL92      -0.1977
    181  CA        64.3100   11.7420   75.4840 C.3    92  VAL92       0.1596
    182  C         64.1740   12.4430   76.8390 C.2    92  VAL92       0.2287
    183  O         64.9430   12.1690   77.7720 O.2    92  VAL92      -0.2864
    184  CB        63.7290   10.3110   75.5650 C.3    92  VAL92       0.0276
    185  CG1       62.2830   10.3280   76.0570 C.3    92  VAL92       0.0022
    186  CG2       63.8240    9.6170   74.2130 C.3    92  VAL92       0.0022
    187  N         61.3770   11.6440   83.7120 N.3    97  TYR97      -0.1241
    188  CA        62.2480   10.7640   82.9320 C.3    97  TYR97       0.1605
    189  C         63.2040   11.5280   82.0120 C.2    97  TYR97       0.2264
    190  O         62.7640   12.2830   81.1470 O.2    97  TYR97      -0.2867
    191  CB        61.3840    9.8120   82.0980 C.3    97  TYR97       0.0534
    192  CG        62.1500    8.6460   81.5160 C.ar   97  TYR97      -0.0201
    193  CD1       62.7330    7.6930   82.3490 C.ar   97  TYR97      -0.0009
    194  CD2       62.2920    8.4870   80.1370 C.ar   97  TYR97      -0.0009
    195  CE1       63.4410    6.6200   81.8320 C.ar   97  TYR97       0.0417
    196  CE2       62.9950    7.4100   79.6100 C.ar   97  TYR97       0.0417
    197  CZ        63.5700    6.4810   80.4630 C.ar   97  TYR97       0.1957
    198  OH        64.2710    5.4130   79.9580 O.3    97  TYR97      -0.2866
    199  N         66.6020   10.5210   79.4830 N.3    99  GLN99      -0.1231
    200  CA        67.1080    9.3260   78.8120 C.3    99  GLN99       0.1698
    201  C         68.0360    9.7340   77.6650 C.2    99  GLN99       0.2593
    202  O         67.6650   10.5690   76.8410 O.2    99  GLN99      -0.2718
    203  CB        65.9010    8.4880   78.3560 C.3    99  GLN99       0.0381
    204  CG        66.0180    7.6740   77.0780 C.3    99  GLN99       0.0905
    205  CD        66.8110    6.3990   77.2560 C.2    99  GLN99       0.2608
    206  OE1       67.9610    6.4240   77.6970 O.2    99  GLN99      -0.2717
    207  NE2       66.2010    5.2720   76.8980 N.am   99  GLN99      -0.0878
    208  N         69.2390    9.1590   77.6300 N.am  100  THR100     -0.1939
    209  CA        70.2390    9.4860   76.6070 C.3   100  THR100      0.2028
    210  C         70.8780    8.2360   76.0000 C.2   100  THR100      0.2642
    211  O         70.9410    7.1920   76.6450 O.2   100  THR100     -0.2714
    212  CB        71.3640   10.3740   77.1730 C.3   100  THR100      0.1808
    213  OG1       72.1010    9.6510   78.1660 O.3   100  THR100     -0.2208
    214  CG2       70.7970   11.6490   77.7860 C.3   100  THR100      0.0379
    215  N         71.3380    8.3600   74.7560 N.am  101  SER101     -0.1949
    216  CA        72.1090    7.3200   74.0740 C.3   101  SER101      0.1924
    217  C         73.2290    7.9770   73.2730 C.2   101  SER101      0.2314
    218  O         72.9930    8.9480   72.5490 O.2   101  SER101     -0.2863
    219  CB        71.2210    6.4960   73.1410 C.3   101  SER101      0.2116
    220  OG        70.1740    5.8670   73.8580 O.3   101  SER101     -0.2180
    221  N         74.1940    4.1250   77.3310 N.3   110  GLU110     -0.1245
    222  CA        72.7990    4.5010   77.5060 C.3   110  GLU110      0.1567
    223  C         72.5600    4.8480   78.9680 C.2   110  GLU110      0.2260
    224  O         72.9200    4.0660   79.8490 O.2   110  GLU110     -0.2867
    225  CB        71.8940    3.3440   77.0700 C.3   110  GLU110      0.0388
    226  CG        72.0420    2.9950   75.5950 C.3   110  GLU110      0.1160
    227  CD        71.1920    1.8150   75.1740 C.2   110  GLU110      0.3649
    228  OE1       70.1260    2.0390   74.5650 O.co2 110  GLU110     -0.2457
    229  OE2       71.5870    0.6630   75.4540 O.co2 110  GLU110     -0.2457
    230  N         69.5980    6.3150   81.8020 N.3   112  SER112     -0.1217
    231  CA        68.1940    6.5730   82.1320 C.3   112  SER112      0.1889
    232  C         68.0920    7.0250   83.5860 C.2   112  SER112      0.2288
    233  O         68.5560    6.3220   84.4870 O.2   112  SER112     -0.2866
    234  CB        67.3610    5.3090   81.9280 C.3   112  SER112      0.2089
    235  OG        67.4370    4.8560   80.5880 O.3   112  SER112     -0.2183
    236  N         70.3120    5.0650   86.1070 N.3   119  TYR119     -0.1241
    237  CA        70.6820    3.7940   85.4720 C.3   119  TYR119      0.1605
    238  C         71.6250    4.0600   84.3020 C.2   119  TYR119      0.2264
    239  O         71.4200    5.0050   83.5510 O.2   119  TYR119     -0.2867
    240  CB        69.4300    3.0440   84.9860 C.3   119  TYR119      0.0534
    241  CG        69.7090    1.8310   84.1190 C.ar  119  TYR119     -0.0201
    242  CD1       70.0480    0.6040   84.6880 C.ar  119  TYR119     -0.0009
    243  CD2       69.6330    1.9090   82.7260 C.ar  119  TYR119     -0.0009
    244  CE1       70.3060   -0.5100   83.8970 C.ar  119  TYR119      0.0417
    245  CE2       69.8900    0.8030   81.9260 C.ar  119  TYR119      0.0417
    246  CZ        70.2240   -0.4040   82.5160 C.ar  119  TYR119      0.1957
    247  OH        70.4780   -1.5020   81.7290 O.3   119  TYR119     -0.2866
    248  N         73.8430    1.8300   81.1110 N.3   121  ARG121     -0.1245
    249  CA        74.1910    0.6000   80.4000 C.3   121  ARG121      0.1563
    250  C         75.2920    0.9100   79.3960 C.2   121  ARG121      0.2260
    251  O         75.1760    1.8620   78.6250 O.2   121  ARG121     -0.2867
    252  CB        72.9790    0.0190   79.6610 C.3   121  ARG121      0.0307
    253  CG        73.2190   -1.3870   79.1170 C.3   121  ARG121      0.0489
    254  CD        72.2220   -1.7980   78.0390 C.3   121  ARG121      0.2205
    255  NE        70.8730   -2.0080   78.5810 N.pl3 121  ARG121     -0.0865
    256  CZ        69.7400   -1.4520   78.1360 C.cat 121  ARG121      0.5346
    257  NH1       69.7160   -0.6210   77.0920 N.pl3 121  ARG121      0.1354
    258  NH2       68.5960   -1.7450   78.7500 N.pl3 121  ARG121      0.1354
@<TRIPOS>BOND
     1    94    93    2
     2    93    92    1
     3    91    92    1
     4    92    95    1
     5    48    49    1
     6    86    85    2
     7    95    96    1
     8    85    84    1
     9    97    96   ar
    10    97    99   ar
    11    96    98   ar
    12    49    50    1
    13    49    52    1
    14    99   101   ar
    15    98   100   ar
    16    50    51    2
    17    84    83    1
    18    84    87    1
    19   101   100   ar
    20    52    53    1
    21   172   170    1
    22   161   160    2
    23    58    60   ar
    24    58    55   ar
    25   171   170    1
    26    87    88    1
    27    60    61   ar
    28   170   169    1
    29    53    55   ar
    30    53    54   ar
    31    55    57   ar
    32   160   159    1
    33   162   163    1
    34   162   159    1
    35   162   164    1
    36   118   116   am
    37    62    63    1
    38    88    89    2
    39    88    90   am
    40    54    56   ar
    41   158   159    1
    42    61    59   ar
    43   169   166    1
    44    57    59   ar
    45    57    56   ar
    46   166   165    1
    47   166   167    1
    48    64    63    1
    49    64    65    2
    50   116   117    2
    51   116   115    1
    52    63    66    1
    53   115   114    1
    54   107   109    1
    55   107   106    1
    56   102   103    1
    57   103   106    1
    58   103   104    1
    59   167   173   am
    60   167   168    2
    61   218   217    2
    62   114   111    1
    63   173   174    1
    64    66    67    1
    65    71    72    1
    66   110   104   am
    67   110   111    1
    68    74    73    2
    69    67    68    1
    70   176   175    2
    71   219   220    1
    72   219   216    1
    73   106   108    1
    74   217   216    1
    75   104   105    2
    76   113   112    2
    77   111   112    1
    78   174   175    1
    79   174   177    1
    80   175   180   am
    81    73    72    1
    82   216   215    1
    83    72    75    1
    84   179   177    1
    85   112   119   am
    86   177   178    1
    87   186   184    1
    88    68    70   am
    89    68    69    2
    90    78    80   ar
    91    78    76   ar
    92   150   149    2
    93   132   133    1
    94   132   131    1
    95   228   227   ar
    96    80    81   ar
    97   215   210   am
    98    75    76    1
    99   180   181    1
   100   227   229   ar
   101   227   226    1
   102    76    77   ar
   103   122   121    2
   104   149   148    1
   105   119   120    1
   106   181   184    1
   107   181   182    1
   108   184   185    1
   109   226   225    1
   110   121   120    1
   111   121   126   am
   112    81    82    1
   113    81    79   ar
   114   210   209    1
   115   210   211    2
   116   127   126    1
   117   127   130    1
   118   127   128    1
   119   120   123    1
   120   131   130    1
   121   147   148    1
   122    77    79   ar
   123   148   151    1
   124   209   212    1
   125   209   208    1
   126   156   157   ar
   127   156   154   ar
   128   129   128    2
   129   157   155   ar
   130   141   140    2
   131   182   183    2
   132   202   201    2
   133   207   205   am
   134   154   152   ar
   135   128   134   am
   136   225   222    1
   137   204   205    1
   138   204   203    1
   139   257   256    1
   140   212   214    1
   141   212   213    1
   142   155   153   ar
   143   205   206    2
   144   221   222    1
   145   152   153   ar
   146   152   151    1
   147   222   223    1
   148   140   139    1
   149   123   125    1
   150   123   124    1
   151   208   201   am
   152   201   200    1
   153   254   255    1
   154   254   253    1
   155   256   255    2
   156   256   258    1
   157   134   135    1
   158   203   200    1
   159   138   139    1
   160   251   250    2
   161   139   142    1
   162   200   199    1
   163   136   135    1
   164   136   137    2
   165   223   224    2
   166   253   252    1
   167   250   249    1
   168   196   194   ar
   169   196   197   ar
   170   252   249    1
   171   142   143    1
   172   198   197    1
   173   194   192   ar
   174   143   144    1
   175   249   248    1
   176   197   195   ar
   177   235   234    1
   178   190   189    2
   179   144   145    1
   180   192   191    1
   181   192   193   ar
   182   247   246    1
   183   230   231    1
   184   145   146    1
   185   195   193   ar
   186   245   246   ar
   187   245   243   ar
   188   234   231    1
   189   189   188    1
   190   191   188    1
   191   231   232    1
   192   246   244   ar
   193   243   241   ar
   194   188   187    1
   195   239   238    2
   196   232   233    2
   197   244   242   ar
   198   241   242   ar
   199   241   240    1
   200    23    22   ar
   201    23    21   ar
   202    22    20   ar
   203   238   237    1
   204     9     7   ar
   205     9    11   ar
   206   240   237    1
   207    31    30    1
   208    21    19   ar
   209    30    29    1
   210    38    37    1
   211    20    18   ar
   212    12    11    1
   213     7     6   ar
   214   237   236    1
   215    11    10   ar
   216    19    18   ar
   217    18    17    1
   218    39    37    1
   219     6     5    1
   220     6     8   ar
   221    37    36    1
   222    47    45    1
   223    29    28    1
   224    10     8   ar
   225     5     2    1
   226    36    33    1
   227    17    14    1
   228    45    44    1
   229     2     1    1
   230     2     3    1
   231    28    25    1
   232    46    44    1
   233    35    34    2
   234     4     3    2
   235    25    24    1
   236    25    26    1
   237    16    15    2
   238    24    15   am
   239    15    14    1
   240    33    34    1
   241    33    32    1
   242    44    41    1
   243    14    13    1
   244    27    26    2
   245    41    40    1
   246    41    42    1
   247    42    43    2
