@<TRIPOS>MOLECULE
tmp/5l8oA00.pdb
 130 123 0 0 0
SMALL
GASTEIGER

@<TRIPOS>ATOM
      1  N         42.2370   -4.2500   52.9350 N.3    48  TRP48      -0.1241
      2  CA        43.4160   -4.1620   53.8070 C.3    48  TRP48       0.1605
      3  C         44.6790   -4.0280   52.9480 C.2    48  TRP48       0.2264
      4  O         45.0470   -4.9650   52.2380 O.2    48  TRP48      -0.2867
      5  CB        43.4770   -5.4190   54.6770 C.3    48  TRP48       0.0550
      6  CG        44.3250   -5.3120   55.9050 C.ar   48  TRP48       0.0003
      7  CD1       45.6920   -5.2800   55.9680 C.ar   48  TRP48       0.0946
      8  CD2       43.8600   -5.2650   57.2570 C.ar   48  TRP48       0.0152
      9  NE1       46.1030   -5.1950   57.2760 N.ar   48  TRP48      -0.2442
     10  CE2       45.0010   -5.1860   58.0890 C.ar   48  TRP48       0.0810
     11  CE3       42.5890   -5.2720   57.8470 C.ar   48  TRP48       0.0012
     12  CZ2       44.9070   -5.1170   59.4850 C.ar   48  TRP48       0.0191
     13  CZ3       42.4950   -5.2020   59.2360 C.ar   48  TRP48       0.0001
     14  CH2       43.6490   -5.1250   60.0370 C.ar   48  TRP48       0.0015
     15  N         48.8730   -2.9030   52.5700 N.3    50  GLN50      -0.1245
     16  CA        50.1800   -2.6950   53.1980 C.3    50  GLN50       0.1566
     17  C         51.1350   -2.0690   52.1820 C.2    50  GLN50       0.2260
     18  O         51.3600   -2.6440   51.1170 O.2    50  GLN50      -0.2867
     19  CB        50.7390   -4.0240   53.6980 C.3    50  GLN50       0.0367
     20  CG        49.9270   -4.6440   54.8250 C.3    50  GLN50       0.0905
     21  CD        50.3390   -6.0710   55.1360 C.2    50  GLN50       0.2608
     22  OE1       50.4540   -6.9090   54.2390 O.2    50  GLN50      -0.2717
     23  NE2       50.5550   -6.3590   56.4140 N.am   50  GLN50      -0.0878
     24  N         44.5680   -6.7650   50.1220 N.3    57  ASN57      -0.1240
     25  CA        43.7010   -7.9200   50.3490 C.3    57  ASN57       0.1653
     26  C         42.2660   -7.4700   50.6210 C.2    57  ASN57       0.2266
     27  O         42.0450   -6.5040   51.3560 O.2    57  ASN57      -0.2867
     28  CB        44.2030   -8.7350   51.5400 C.3    57  ASN57       0.1155
     29  CG        45.3960   -9.6010   51.1920 C.2    57  ASN57       0.2627
     30  OD1       45.2590  -10.6150   50.5030 O.2    57  ASN57      -0.2716
     31  ND2       46.5730   -9.2100   51.6680 N.am   57  ASN57      -0.0877
     32  N         38.4370   -8.9440   51.8730 N.3    59  PHE59      -0.1241
     33  CA        37.7770  -10.0600   52.5520 C.3    59  PHE59       0.1605
     34  C         36.5230   -9.6540   53.3190 C.2    59  PHE59       0.2264
     35  O         36.3190   -8.4860   53.6360 O.2    59  PHE59      -0.2867
     36  CB        38.7620  -10.8010   53.4790 C.3    59  PHE59       0.0534
     37  CG        39.2810   -9.9750   54.6330 C.ar   59  PHE59      -0.0203
     38  CD1       40.4610   -9.2400   54.5110 C.ar   59  PHE59      -0.0042
     39  CD2       38.6030   -9.9500   55.8550 C.ar   59  PHE59      -0.0042
     40  CE1       40.9460   -8.4860   55.5770 C.ar   59  PHE59      -0.0003
     41  CE2       39.0830   -9.1970   56.9210 C.ar   59  PHE59      -0.0003
     42  CZ        40.2560   -8.4650   56.7820 C.ar   59  PHE59      -0.0000
     43  N         44.2420  -14.8520   51.3530 N.3    67  ILE67      -0.1231
     44  CA        45.1210  -13.7900   51.8370 C.3    67  ILE67       0.1692
     45  C         46.5040  -13.9540   51.2110 C.2    67  ILE67       0.2592
     46  O         47.0710  -15.0470   51.2490 O.2    67  ILE67      -0.2718
     47  CB        45.2610  -13.8210   53.3690 C.3    67  ILE67       0.0266
     48  CG1       43.8510  -13.7320   53.9540 C.3    67  ILE67       0.0019
     49  CG2       46.1570  -12.6340   53.8820 C.3    67  ILE67       0.0020
     50  CD1       43.8210  -13.3070   55.3800 C.3    67  ILE67       0.0001
     51  N         47.0250  -12.8750   50.6260 N.am   68  GLN68      -0.1966
     52  CA        48.3970  -12.8200   50.1050 C.3    68  GLN68       0.1733
     53  C         49.2610  -11.9460   51.0150 C.2    68  GLN68       0.2617
     54  O         48.8640  -10.8340   51.3750 O.2    68  GLN68      -0.2715
     55  CB        48.4300  -12.2560   48.6760 C.3    68  GLN68       0.0408
     56  CG        48.6520  -13.2760   47.5720 C.3    68  GLN68       0.0908
     57  CD        48.8940  -12.6180   46.2230 C.2    68  GLN68       0.2608
     58  OE1       50.0220  -12.5790   45.7300 O.2    68  GLN68      -0.2717
     59  NE2       47.8380  -12.0770   45.6290 N.am   68  GLN68      -0.0878
     60  N         50.4430  -12.4490   51.3690 N.am   69  THR69      -0.1951
     61  CA        51.4180  -11.6810   52.1490 C.3    69  THR69       0.1897
     62  C         52.1370  -10.6740   51.2440 C.2    69  THR69       0.2313
     63  O         51.9570  -10.6970   50.0220 O.2    69  THR69      -0.2863
     64  CB        52.4440  -12.6100   52.8350 C.3    69  THR69       0.1794
     65  OG1       53.0930  -13.4270   51.8530 O.3    69  THR69      -0.2208
     66  CG2       51.7510  -13.5070   53.8530 C.3    69  THR69       0.0378
     67  N         47.3600  -17.9010   50.6750 N.3    75  PHE75      -0.1241
     68  CA        46.8270  -19.0100   51.4850 C.3    75  PHE75       0.1605
     69  C         45.3220  -18.8860   51.7590 C.2    75  PHE75       0.2264
     70  O         44.8120  -17.7840   51.9770 O.2    75  PHE75      -0.2867
     71  CB        47.6070  -19.1590   52.8040 C.3    75  PHE75       0.0534
     72  CG        47.5250  -17.9600   53.7160 C.ar   75  PHE75      -0.0203
     73  CD1       46.6130  -17.9290   54.7720 C.ar   75  PHE75      -0.0042
     74  CD2       48.3770  -16.8700   53.5390 C.ar   75  PHE75      -0.0042
     75  CE1       46.5430  -16.8310   55.6210 C.ar   75  PHE75      -0.0003
     76  CE2       48.3110  -15.7690   54.3860 C.ar   75  PHE75      -0.0003
     77  CZ        47.3930  -15.7500   55.4280 C.ar   75  PHE75      -0.0000
     78  N         38.3090  -15.2970   57.8100 N.3    79  VAL79      -0.1245
     79  CA        38.5150  -14.3150   58.8850 C.3    79  VAL79       0.1561
     80  C         37.2900  -14.2760   59.8070 C.2    79  VAL79       0.2260
     81  O         36.1580  -14.1460   59.3340 O.2    79  VAL79      -0.2867
     82  CB        38.8040  -12.8910   58.3440 C.3    79  VAL79       0.0252
     83  CG1       39.0900  -11.9260   59.4950 C.3    79  VAL79       0.0019
     84  CG2       39.9750  -12.9060   57.3660 C.3    79  VAL79       0.0019
     85  N         39.9620   -9.3370   64.7010 N.3    86  LEU86      -0.1245
     86  CA        39.8550  -10.1970   63.5230 C.3    86  LEU86       0.1561
     87  C         40.7960  -11.3640   63.7860 C.2    86  LEU86       0.2260
     88  O         41.8750  -11.1580   64.3340 O.2    86  LEU86      -0.2867
     89  CB        40.2900   -9.4730   62.2530 C.3    86  LEU86       0.0270
     90  CG        39.4560   -8.2690   61.8270 C.3    86  LEU86       0.0019
     91  CD1       40.1510   -7.5370   60.6870 C.3    86  LEU86       0.0001
     92  CD2       38.0550   -8.6980   61.4180 C.3    86  LEU86       0.0001
     93  N         42.4830  -15.1620   62.2130 N.3    88  VAL88      -0.1245
     94  CA        42.7540  -16.1010   61.1270 C.3    88  VAL88       0.1561
     95  C         43.4400  -17.3330   61.7130 C.2    88  VAL88       0.2260
     96  O         44.6020  -17.2650   62.1130 O.2    88  VAL88      -0.2867
     97  CB        43.6490  -15.4690   60.0330 C.3    88  VAL88       0.0252
     98  CG1       43.9810  -16.4850   58.9400 C.3    88  VAL88       0.0019
     99  CG2       42.9710  -14.2400   59.4420 C.3    88  VAL88       0.0019
    100  N         46.7120  -15.8580   63.7460 N.3    95  GLN95      -0.1231
    101  CA        46.9530  -14.4370   63.5280 C.3    95  GLN95       0.1698
    102  C         45.7380  -13.6470   63.9730 C.2    95  GLN95       0.2593
    103  O         44.6100  -14.0640   63.7360 O.2    95  GLN95      -0.2718
    104  CB        47.2330  -14.1760   62.0490 C.3    95  GLN95       0.0381
    105  CG        47.4990  -12.7230   61.6620 C.3    95  GLN95       0.0905
    106  CD        47.3090  -12.4810   60.1740 C.2    95  GLN95       0.2608
    107  OE1       47.8340  -13.2240   59.3430 O.2    95  GLN95      -0.2717
    108  NE2       46.5570  -11.4410   59.8280 N.am   95  GLN95      -0.0878
    109  N         45.9800  -12.5070   64.6150 N.am   96  THR96      -0.1939
    110  CA        44.9150  -11.6060   65.0450 C.3    96  THR96       0.2028
    111  C         45.2780  -10.1530   64.7690 C.2    96  THR96       0.2642
    112  O         46.4470   -9.7870   64.8380 O.2    96  THR96      -0.2714
    113  CB        44.6440  -11.7290   66.5540 C.3    96  THR96       0.1808
    114  OG1       45.8330  -11.3950   67.2790 O.3    96  THR96      -0.2208
    115  CG2       44.2080  -13.1380   66.9170 C.3    96  THR96       0.0379
    116  N         44.2670   -9.3400   64.4680 N.am   97  SER97      -0.1949
    117  CA        44.4210   -7.8930   64.3590 C.3    97  SER97       0.1924
    118  C         43.4660   -7.2230   65.3410 C.2    97  SER97       0.2314
    119  O         42.4060   -7.7670   65.6320 O.2    97  SER97      -0.2863
    120  CB        44.1460   -7.4370   62.9350 C.3    97  SER97       0.2116
    121  OG        45.0920   -8.0040   62.0540 O.3    97  SER97      -0.2180
    122  N         48.7940   -6.1930   65.7650 N.3   106  GLU106     -0.1245
    123  CA        48.7430   -7.4040   64.9470 C.3   106  GLU106      0.1567
    124  C         49.6580   -8.4560   65.5520 C.2   106  GLU106      0.2260
    125  O         50.8730   -8.2480   65.6190 O.2   106  GLU106     -0.2867
    126  CB        49.1710   -7.1040   63.5020 C.3   106  GLU106      0.0388
    127  CG        48.1930   -6.2180   62.7410 C.3   106  GLU106      0.1160
    128  CD        48.7000   -5.8070   61.3660 C.2   106  GLU106      0.3649
    129  OE1       48.1770   -6.3240   60.3550 O.co2 106  GLU106     -0.2457
    130  OE2       49.6190   -4.9650   61.2910 O.co2 106  GLU106     -0.2457
@<TRIPOS>BOND
     1    59    57   am
     2    58    57    2
     3    57    56    1
     4    56    55    1
     5    55    52    1
     6    63    62    2
     7    52    51    1
     8    52    53    1
     9    24    25    1
    10    25    26    1
    11    25    28    1
    12    30    29    2
    13    26    27    2
    14    51    45   am
    15    67    68    1
    16    53    60   am
    17    53    54    2
    18    18    17    2
    19    29    28    1
    20    29    31   am
    21    45    46    2
    22    45    44    1
    23    62    61    1
    24    43    44    1
    25    60    61    1
    26    68    69    1
    27    68    71    1
    28    69    70    2
    29    44    47    1
    30    65    64    1
    31    32    33    1
    32    61    64    1
    33    17    16    1
    34     4     3    2
    35    33    34    1
    36    33    36    1
    37    15    16    1
    38    71    72    1
    39    64    66    1
    40     1     2    1
    41     3     2    1
    42    16    19    1
    43    34    35    2
    44    47    49    1
    45    47    48    1
    46    36    37    1
    47    74    72   ar
    48    74    76   ar
    49    19    20    1
    50    72    73   ar
    51     2     5    1
    52    48    50    1
    53    22    21    2
    54    76    77   ar
    55    38    37   ar
    56    38    40   ar
    57    37    39   ar
    58     5     6    1
    59    73    75   ar
    60    20    21    1
    61    21    23   am
    62    77    75   ar
    63    40    42   ar
    64    39    41   ar
    65     6     7   ar
    66     6     8   ar
    67     7     9   ar
    68    42    41   ar
    69     8    11   ar
    70     8    10   ar
    71     9    10   ar
    72    84    82    1
    73    78    79    1
    74    11    13   ar
    75    10    12   ar
    76    82    79    1
    77    82    83    1
    78    79    80    1
    79    98    97    1
    80    13    14   ar
    81    81    80    2
    82   107   106    2
    83    99    97    1
    84    12    14   ar
    85   108   106   am
    86    97    94    1
    87   106   105    1
    88   129   128   ar
    89    91    90    1
    90    94    95    1
    91    94    93    1
    92   130   128   ar
    93   128   127    1
    94    92    90    1
    95   105   104    1
    96    95    96    2
    97    90    89    1
    98   104   101    1
    99   121   120    1
   100    89    86    1
   101   127   126    1
   102   120   117    1
   103   126   123    1
   104    86    87    1
   105    86    85    1
   106   101   100    1
   107   101   102    1
   108   103   102    2
   109    87    88    2
   110   102   109   am
   111   117   116    1
   112   117   118    1
   113   116   111   am
   114   109   110    1
   115   111   112    2
   116   111   110    1
   117   123   124    1
   118   123   122    1
   119   110   113    1
   120   118   119    2
   121   124   125    2
   122   113   115    1
   123   113   114    1
