@<TRIPOS>MOLECULE
tmp/5l8oB00.pdb
 227 216 0 0 0
SMALL
GASTEIGER

@<TRIPOS>ATOM
      1  N         71.2930   -0.6110   88.0650 N.3    13  TYR13      -0.1241
      2  CA        70.0950   -1.2400   87.4900 C.3    13  TYR13       0.1605
      3  C         69.0530   -1.6080   88.5550 C.2    13  TYR13       0.2264
      4  O         67.8520   -1.5050   88.3060 O.2    13  TYR13      -0.2867
      5  CB        70.5010   -2.4940   86.6990 C.3    13  TYR13       0.0534
      6  CG        69.3680   -3.2210   85.9910 C.ar   13  TYR13      -0.0201
      7  CD1       68.7000   -2.6360   84.9140 C.ar   13  TYR13      -0.0009
      8  CD2       68.9820   -4.5090   86.3810 C.ar   13  TYR13      -0.0009
      9  CE1       67.6720   -3.3000   84.2590 C.ar   13  TYR13       0.0417
     10  CE2       67.9530   -5.1820   85.7300 C.ar   13  TYR13       0.0417
     11  CZ        67.3030   -4.5730   84.6700 C.ar   13  TYR13       0.1957
     12  OH        66.2840   -5.2290   84.0180 O.3    13  TYR13      -0.2866
     13  N         67.3430    1.6810   90.2690 N.3    16  PHE16      -0.1227
     14  CA        66.5310    2.2700   89.2010 C.3    16  PHE16       0.1736
     15  C         65.2430    1.4770   88.9740 C.2    16  PHE16       0.2595
     16  O         64.1640    2.0590   88.8470 O.2    16  PHE16      -0.2718
     17  CB        67.3460    2.3430   87.9030 C.3    16  PHE16       0.0547
     18  CG        66.5980    2.9410   86.7430 C.ar   16  PHE16      -0.0202
     19  CD1       66.5480    4.3180   86.5670 C.ar   16  PHE16      -0.0042
     20  CD2       65.9430    2.1250   85.8210 C.ar   16  PHE16      -0.0042
     21  CE1       65.8550    4.8720   85.4990 C.ar   16  PHE16      -0.0003
     22  CE2       65.2500    2.6740   84.7530 C.ar   16  PHE16      -0.0003
     23  CZ        65.2070    4.0490   84.5910 C.ar   16  PHE16      -0.0000
     24  N         65.3670    0.1530   88.9260 N.am   17  MET17      -0.1979
     25  CA        64.2170   -0.7240   88.6920 C.3    17  MET17       0.1605
     26  C         63.3220   -0.8740   89.9250 C.2    17  MET17       0.2287
     27  O         62.0990   -0.9640   89.7840 O.2    17  MET17      -0.2864
     28  CB        64.6740   -2.0870   88.1650 C.3    17  MET17       0.0413
     29  CG        65.2030   -2.0270   86.7370 C.3    17  MET17       0.0598
     30  SD        63.9120   -1.8230   85.4870 S.3    17  MET17      -0.1393
     31  CE        63.3290   -3.5110   85.3400 C.3    17  MET17       0.0692
     32  N         72.1600   -8.9380   76.3640 N.3    35  ILE35      -0.1245
     33  CA        71.4370   -7.9710   75.5220 C.3    35  ILE35       0.1561
     34  C         72.3400   -7.4520   74.4060 C.2    35  ILE35       0.2260
     35  O         73.3620   -6.8160   74.6750 O.2    35  ILE35      -0.2867
     36  CB        70.8980   -6.7730   76.3390 C.3    35  ILE35       0.0252
     37  CG1       70.0690   -7.2750   77.5320 C.3    35  ILE35       0.0019
     38  CG2       70.0540   -5.8550   75.4510 C.3    35  ILE35       0.0019
     39  CD1       69.6120   -6.1970   78.4880 C.3    35  ILE35       0.0001
     40  N         65.6690    0.6970   66.1660 N.3    48  TRP48      -0.1241
     41  CA        66.4130    0.4120   67.3870 C.3    48  TRP48       0.1605
     42  C         65.9120   -0.8830   68.0120 C.2    48  TRP48       0.2264
     43  O         64.7780   -0.9380   68.4890 O.2    48  TRP48      -0.2867
     44  CB        66.2540    1.5700   68.3760 C.3    48  TRP48       0.0550
     45  CG        67.3240    1.5960   69.4120 C.ar   48  TRP48       0.0003
     46  CD1       67.4790    0.7320   70.4590 C.ar   48  TRP48       0.0946
     47  CD2       68.4020    2.5270   69.4940 C.ar   48  TRP48       0.0152
     48  NE1       68.5860    1.0770   71.1970 N.ar   48  TRP48      -0.2442
     49  CE2       69.1750    2.1740   70.6230 C.ar   48  TRP48       0.0810
     50  CE3       68.7950    3.6310   68.7200 C.ar   48  TRP48       0.0012
     51  CZ2       70.3210    2.8850   71.0020 C.ar   48  TRP48       0.0191
     52  CZ3       69.9370    4.3390   69.0960 C.ar   48  TRP48       0.0001
     53  CH2       70.6880    3.9570   70.2270 C.ar   48  TRP48       0.0015
     54  N         66.5710   -4.3310   70.6580 N.3    50  GLN50      -0.1245
     55  CA        67.2350   -5.1000   71.7220 C.3    50  GLN50       0.1566
     56  C         66.9760   -6.5890   71.4810 C.2    50  GLN50       0.2260
     57  O         65.8190   -7.0150   71.4730 O.2    50  GLN50      -0.2867
     58  CB        66.6910   -4.7370   73.1090 C.3    50  GLN50       0.0367
     59  CG        67.1080   -3.3760   73.6580 C.3    50  GLN50       0.0905
     60  CD        66.0960   -2.2650   73.4100 C.2    50  GLN50       0.2608
     61  OE1       64.8920   -2.5070   73.3040 O.2    50  GLN50      -0.2717
     62  NE2       66.5860   -1.0250   73.3400 N.am   50  GLN50      -0.0878
     63  N         67.5430  -10.3560   72.9640 N.3    52  TYR52      -0.1241
     64  CA        67.7740  -11.0440   74.2390 C.3    52  TYR52       0.1605
     65  C         67.9320  -12.5470   74.0510 C.2    52  TYR52       0.2264
     66  O         67.6830  -13.0780   72.9680 O.2    52  TYR52      -0.2867
     67  CB        66.5800  -10.8300   75.1810 C.3    52  TYR52       0.0534
     68  CG        66.2890   -9.3910   75.5420 C.ar   52  TYR52      -0.0201
     69  CD1       66.7510   -8.8450   76.7430 C.ar   52  TYR52      -0.0009
     70  CD2       65.5250   -8.5770   74.7000 C.ar   52  TYR52      -0.0009
     71  CE1       66.4790   -7.5250   77.0850 C.ar   52  TYR52       0.0417
     72  CE2       65.2460   -7.2550   75.0350 C.ar   52  TYR52       0.0417
     73  CZ        65.7270   -6.7340   76.2270 C.ar   52  TYR52       0.1957
     74  OH        65.4600   -5.4330   76.5630 O.3    52  TYR52      -0.2866
     75  N         61.9930   -0.8530   68.2110 N.3    60  ASN60      -0.1240
     76  CA        61.2580    0.4080   68.1140 C.3    60  ASN60       0.1653
     77  C         61.7660    1.1910   66.9140 C.2    60  ASN60       0.2266
     78  O         62.9820    1.3310   66.7220 O.2    60  ASN60      -0.2867
     79  CB        61.4440    1.2530   69.3710 C.3    60  ASN60       0.1155
     80  CG        60.6790    0.7090   70.5560 C.2    60  ASN60       0.2627
     81  OD1       59.4540    0.8460   70.6330 O.2    60  ASN60      -0.2716
     82  ND2       61.3930    0.0880   71.4860 N.am   60  ASN60      -0.0877
     83  N         61.4740    4.9510   65.3480 N.3    62  PHE62      -0.1241
     84  CA        61.0820    6.3250   65.6170 C.3    62  PHE62       0.1605
     85  C         61.7850    7.2690   64.6560 C.2    62  PHE62       0.2264
     86  O         62.8150    6.9290   64.0670 O.2    62  PHE62      -0.2867
     87  CB        61.3860    6.7030   67.0700 C.3    62  PHE62       0.0534
     88  CG        62.8330    6.5750   67.4440 C.ar   62  PHE62      -0.0203
     89  CD1       63.3310    5.3810   67.9440 C.ar   62  PHE62      -0.0042
     90  CD2       63.7030    7.6530   67.2910 C.ar   62  PHE62      -0.0042
     91  CE1       64.6710    5.2590   68.2840 C.ar   62  PHE62      -0.0003
     92  CE2       65.0430    7.5410   67.6260 C.ar   62  PHE62      -0.0003
     93  CZ        65.5300    6.3410   68.1260 C.ar   62  PHE62      -0.0000
     94  N         56.8430    4.0000   72.5980 N.3    70  ILE70      -0.1231
     95  CA        57.9900    3.1190   72.7380 C.3    70  ILE70       0.1692
     96  C         57.6040    1.9300   73.6060 C.2    70  ILE70       0.2592
     97  O         57.1920    2.1070   74.7470 O.2    70  ILE70      -0.2718
     98  CB        59.1940    3.9070   73.3010 C.3    70  ILE70       0.0266
     99  CG1       59.8240    4.7300   72.1640 C.3    70  ILE70       0.0019
    100  CG2       60.2440    2.9870   73.9180 C.3    70  ILE70       0.0020
    101  CD1       60.3780    6.0670   72.5780 C.3    70  ILE70       0.0001
    102  N         57.7260    0.7290   73.0430 N.am   71  GLN71      -0.1966
    103  CA        57.4820   -0.5080   73.7680 C.3    71  GLN71       0.1733
    104  C         58.8100   -1.0270   74.2960 C.2    71  GLN71       0.2617
    105  O         59.8420   -0.9140   73.6260 O.2    71  GLN71      -0.2715
    106  CB        56.8260   -1.5510   72.8590 C.3    71  GLN71       0.0408
    107  CG        55.3050   -1.6220   72.9530 C.3    71  GLN71       0.0908
    108  CD        54.6180   -0.6970   71.9730 C.2    71  GLN71       0.2608
    109  OE1       55.2630   -0.1050   71.0910 O.2    71  GLN71      -0.2717
    110  NE2       53.3050   -0.5770   72.1020 N.am   71  GLN71      -0.0878
    111  N         58.7780   -1.5690   75.5110 N.am   72  THR72      -0.1937
    112  CA        59.9240   -2.2460   76.1100 C.3    72  THR72       0.2028
    113  C         59.6280   -3.7460   76.1130 C.2    72  THR72       0.2642
    114  O         58.4590   -4.1520   76.1260 O.2    72  THR72      -0.2714
    115  CB        60.1970   -1.7390   77.5480 C.3    72  THR72       0.1808
    116  OG1       59.1620   -2.1770   78.4400 O.3    72  THR72      -0.2208
    117  CG2       60.2580   -0.2120   77.5800 C.3    72  THR72       0.0379
    118  N         60.6780   -4.5650   76.1020 N.am   73  MET73      -0.1962
    119  CA        60.5310   -6.0260   76.1580 C.3    73  MET73       0.1736
    120  C         59.7660   -6.4560   77.4170 C.2    73  MET73       0.2617
    121  O         58.9940   -7.4160   77.3780 O.2    73  MET73      -0.2715
    122  CB        61.9040   -6.7120   76.1040 C.3    73  MET73       0.0427
    123  CG        61.8830   -8.2350   75.9590 C.3    73  MET73       0.0599
    124  SD        61.2770   -8.8340   74.3620 S.3    73  MET73      -0.1393
    125  CE        59.5310   -9.0800   74.6870 C.3    73  MET73       0.0692
    126  N         59.9700   -5.7250   78.5150 N.am   74  GLY74      -0.1955
    127  CA        59.2400   -5.9410   79.7630 C.3    74  GLY74       0.1869
    128  C         57.7310   -5.7180   79.7410 C.2    74  GLY74       0.2309
    129  O         57.0510   -6.1250   80.6820 O.2    74  GLY74      -0.2863
    130  N         54.9850    3.7910   76.4370 N.3    78  PHE78      -0.1241
    131  CA        54.9060    5.2090   76.7840 C.3    78  PHE78       0.1605
    132  C         55.2640    6.1210   75.6090 C.2    78  PHE78       0.2264
    133  O         56.0740    5.7590   74.7490 O.2    78  PHE78      -0.2867
    134  CB        55.8090    5.5160   77.9910 C.3    78  PHE78       0.0534
    135  CG        57.2720    5.2500   77.7490 C.ar   78  PHE78      -0.0203
    136  CD1       58.1390    6.2930   77.4190 C.ar   78  PHE78      -0.0042
    137  CD2       57.7910    3.9610   77.8580 C.ar   78  PHE78      -0.0042
    138  CE1       59.4900    6.0560   77.1990 C.ar   78  PHE78      -0.0003
    139  CE2       59.1420    3.7180   77.6370 C.ar   78  PHE78      -0.0003
    140  CZ        59.9910    4.7670   77.3080 C.ar   78  PHE78      -0.0000
    141  N         62.1160   11.6320   70.6840 N.3    82  VAL82      -0.1245
    142  CA        63.5720   11.5910   70.7720 C.3    82  VAL82       0.1561
    143  C         64.1310   12.8010   70.0310 C.2    82  VAL82       0.2260
    144  O         63.6970   13.0930   68.9230 O.2    82  VAL82      -0.2867
    145  CB        64.1610   10.2980   70.1610 C.3    82  VAL82       0.0252
    146  CG1       65.6690   10.2360   70.3930 C.3    82  VAL82       0.0019
    147  CG2       63.4690    9.0620   70.7370 C.3    82  VAL82       0.0019
    148  N         71.1670   11.0440   71.4960 N.3    89  LEU89      -0.1245
    149  CA        69.7100   10.9130   71.4520 C.3    89  LEU89       0.1561
    150  C         69.1790   11.1520   72.8600 C.2    89  LEU89       0.2260
    151  O         69.6580   10.5300   73.8120 O.2    89  LEU89      -0.2867
    152  CB        69.2940    9.5290   70.9610 C.3    89  LEU89       0.0270
    153  CG        69.8280    9.1200   69.5890 C.3    89  LEU89       0.0019
    154  CD1       69.4670    7.6740   69.3190 C.3    89  LEU89       0.0001
    155  CD2       69.2950   10.0270   68.4890 C.3    89  LEU89       0.0001
    156  N         65.6840   11.8600   75.4650 N.3    91  VAL91      -0.1245
    157  CA        64.2570   11.8300   75.7730 C.3    91  VAL91       0.1561
    158  C         64.1020   12.4760   77.1500 C.2    91  VAL91       0.2260
    159  O         64.5990   11.9360   78.1440 O.2    91  VAL91      -0.2867
    160  CB        63.7120   10.3850   75.7830 C.3    91  VAL91       0.0252
    161  CG1       62.2840   10.3280   76.3190 C.3    91  VAL91       0.0019
    162  CG2       63.7810    9.7860   74.3860 C.3    91  VAL91       0.0019
    163  N         61.9680   12.0430   84.2460 N.3    96  TYR96      -0.1241
    164  CA        62.6830   11.0730   83.4080 C.3    96  TYR96       0.1605
    165  C         63.5520   11.7380   82.3420 C.2    96  TYR96       0.2264
    166  O         63.0340   12.3680   81.4160 O.2    96  TYR96      -0.2867
    167  CB        61.7020   10.1020   82.7410 C.3    96  TYR96       0.0534
    168  CG        62.3890    8.9720   82.0000 C.ar   96  TYR96      -0.0201
    169  CD1       62.4860    8.9770   80.6090 C.ar   96  TYR96      -0.0009
    170  CD2       62.9570    7.9040   82.6920 C.ar   96  TYR96      -0.0009
    171  CE1       63.1210    7.9470   79.9290 C.ar   96  TYR96       0.0417
    172  CE2       63.5970    6.8690   82.0240 C.ar   96  TYR96       0.0417
    173  CZ        63.6770    6.8940   80.6430 C.ar   96  TYR96       0.1957
    174  OH        64.3060    5.8680   79.9760 O.3    96  TYR96      -0.2866
    175  N         66.6950   10.5980   79.6830 N.3    98  GLN98      -0.1245
    176  CA        67.3770    9.4710   79.0560 C.3    98  GLN98       0.1566
    177  C         68.3060    9.9780   77.9530 C.2    98  GLN98       0.2260
    178  O         67.9080   10.8370   77.1700 O.2    98  GLN98      -0.2867
    179  CB        66.3300    8.5270   78.4750 C.3    98  GLN98       0.0367
    180  CG        66.8480    7.3870   77.6130 C.3    98  GLN98       0.0905
    181  CD        67.6180    6.3410   78.3960 C.2    98  GLN98       0.2608
    182  OE1       68.7940    6.0760   78.1190 O.2    98  GLN98      -0.2717
    183  NE2       66.9580    5.7320   79.3760 N.am   98  GLN98      -0.0878
    184  N         71.3280    8.3990   74.9540 N.3   100  SER100     -0.1217
    185  CA        72.1080    7.3590   74.2850 C.3   100  SER100      0.1889
    186  C         73.2330    8.0550   73.5410 C.2   100  SER100      0.2288
    187  O         72.9920    9.0470   72.8520 O.2   100  SER100     -0.2866
    188  CB        71.2510    6.5770   73.2840 C.3   100  SER100      0.2089
    189  OG        70.2480    5.8190   73.9340 O.3   100  SER100     -0.2183
    190  N         74.2210    4.1870   77.5790 N.3   109  GLU109     -0.1245
    191  CA        72.8150    4.5420   77.7520 C.3   109  GLU109      0.1567
    192  C         72.5840    4.9210   79.2040 C.2   109  GLU109      0.2260
    193  O         72.7880    4.0950   80.0900 O.2   109  GLU109     -0.2867
    194  CB        71.9140    3.3730   77.3380 C.3   109  GLU109      0.0388
    195  CG        71.9760    3.0810   75.8440 C.3   109  GLU109      0.1160
    196  CD        71.1620    1.8710   75.4250 C.2   109  GLU109      0.3649
    197  OE1       70.0580    2.0580   74.8690 O.co2 109  GLU109     -0.2457
    198  OE2       71.6290    0.7290   75.6340 O.co2 109  GLU109     -0.2457
    199  N         69.8750    6.4310   81.9880 N.3   111  SER111     -0.1217
    200  CA        68.5550    6.8290   82.4810 C.3   111  SER111      0.1889
    201  C         68.7400    7.6080   83.7770 C.2   111  SER111      0.2288
    202  O         69.7540    7.4450   84.4620 O.2   111  SER111     -0.2866
    203  CB        67.6860    5.6010   82.7450 C.3   111  SER111      0.2089
    204  OG        67.6320    4.7570   81.6090 O.3   111  SER111     -0.2183
    205  N         70.9470    5.4050   86.3990 N.3   118  TYR118     -0.1241
    206  CA        71.2520    4.0930   85.8110 C.3   118  TYR118      0.1605
    207  C         72.0740    4.2940   84.5420 C.2   118  TYR118      0.2264
    208  O         71.8120    5.2180   83.7750 O.2   118  TYR118     -0.2867
    209  CB        69.9670    3.3120   85.5030 C.3   118  TYR118      0.0534
    210  CG        70.1200    2.1740   84.5110 C.ar  118  TYR118     -0.0201
    211  CD1       70.8240    1.0190   84.8430 C.ar  118  TYR118     -0.0009
    212  CD2       69.5450    2.2500   83.2410 C.ar  118  TYR118     -0.0009
    213  CE1       70.9570   -0.0250   83.9360 C.ar  118  TYR118      0.0417
    214  CE2       69.6720    1.2130   82.3270 C.ar  118  TYR118      0.0417
    215  CZ        70.3780    0.0770   82.6770 C.ar  118  TYR118      0.1957
    216  OH        70.5010   -0.9480   81.7670 O.3   118  TYR118     -0.2866
    217  N         74.1380    1.9550   81.3070 N.3   120  ARG120     -0.1245
    218  CA        74.4720    0.7010   80.6320 C.3   120  ARG120      0.1563
    219  C         75.5200    0.9680   79.5540 C.2   120  ARG120      0.2260
    220  O         75.3390    1.8660   78.7270 O.2   120  ARG120     -0.2867
    221  CB        73.2250    0.0890   79.9930 C.3   120  ARG120      0.0307
    222  CG        73.3980   -1.3610   79.5620 C.3   120  ARG120      0.0489
    223  CD        72.3110   -1.8080   78.5890 C.3   120  ARG120      0.2205
    224  NE        70.9910   -1.9010   79.2200 N.pl3 120  ARG120     -0.0865
    225  CZ        69.8360   -2.0610   78.5670 C.cat 120  ARG120      0.5346
    226  NH1       69.7970   -2.1590   77.2350 N.pl3 120  ARG120      0.1354
    227  NH2       68.6980   -2.1220   79.2550 N.pl3 120  ARG120      0.1354
@<TRIPOS>BOND
     1    86    85    2
     2    85    84    1
     3    83    84    1
     4    84    87    1
     5    40    41    1
     6    78    77    2
     7    77    76    1
     8    87    88    1
     9    90    88   ar
    10    90    92   ar
    11    41    42    1
    12    41    44    1
    13    88    89   ar
    14    92    93   ar
    15    89    91   ar
    16    42    43    2
    17    76    75    1
    18    76    79    1
    19    93    91   ar
    20    44    45    1
    21   155   153    1
    22    50    52   ar
    23    50    47   ar
    24   144   143    2
    25    52    53   ar
    26   154   153    1
    27    79    80    1
    28    45    47   ar
    29    45    46   ar
    30    47    49   ar
    31   153   152    1
    32   143   142    1
    33   145   146    1
    34   145   147    1
    35   145   142    1
    36    53    51   ar
    37    46    48   ar
    38    80    81    2
    39    80    82   am
    40    49    51   ar
    41    49    48   ar
    42    54    55    1
    43   141   142    1
    44   152   149    1
    45   109   108    2
    46   149   148    1
    47   149   150    1
    48    57    56    2
    49    56    55    1
    50    55    58    1
    51   108   110   am
    52   108   107    1
    53    99   101    1
    54    99    98    1
    55    94    95    1
    56    95    98    1
    57    95    96    1
    58   187   186    2
    59   106   107    1
    60   106   103    1
    61   150   151    2
    62    63    64    1
    63    66    65    2
    64   102    96   am
    65   102   103    1
    66    58    59    1
    67   188   189    1
    68   188   185    1
    69    98   100    1
    70    61    60    2
    71    62    60   am
    72    60    59    1
    73   186   185    1
    74    96    97    2
    75   105   104    2
    76   103   104    1
    77    65    64    1
    78    64    67    1
    79   185   184    1
    80   104   111   am
    81   124   125    1
    82   124   123    1
    83   162   160    1
    84    34    35    2
    85    34    33    1
    86    70    72   ar
    87    70    68   ar
    88   133   132    2
    89   197   196   ar
    90    72    73   ar
    91    67    68    1
    92   196   198   ar
    93   196   195    1
    94    38    36    1
    95   156   157    1
    96   111   112    1
    97    33    36    1
    98    33    32    1
    99    68    69   ar
   100   132   131    1
   101   157   160    1
   102   157   158    1
   103   160   161    1
   104   195   194    1
   105   123   122    1
   106   118   113   am
   107   118   119    1
   108   122   119    1
   109   112   113    1
   110   112   115    1
   111   113   114    2
   112   119   120    1
   113    73    74    1
   114    73    71   ar
   115    36    37    1
   116   130   131    1
   117    69    71   ar
   118   131   134    1
   119   158   159    2
   120   178   177    2
   121   138   140   ar
   122   138   136   ar
   123   226   225    1
   124   140   139   ar
   125   194   191    1
   126   121   120    2
   127   120   126   am
   128   136   135   ar
   129    37    39    1
   130   115   117    1
   131   115   116    1
   132   190   191    1
   133   180   181    1
   134   180   179    1
   135   139   137   ar
   136   135   137   ar
   137   135   134    1
   138   191   192    1
   139   177   176    1
   140   182   181    2
   141   181   183   am
   142   179   176    1
   143   126   127    1
   144   225   224    2
   145   225   227    1
   146   223   224    1
   147   223   222    1
   148   220   219    2
   149   176   175    1
   150   192   193    2
   151   219   218    1
   152   222   221    1
   153   128   127    1
   154   128   129    2
   155   171   169   ar
   156   171   173   ar
   157   174   173    1
   158   221   218    1
   159   169   168   ar
   160   218   217    1
   161   173   172   ar
   162   166   165    2
   163   204   203    1
   164   216   215    1
   165   199   200    1
   166   168   170   ar
   167   168   167    1
   168   172   170   ar
   169   214   215   ar
   170   214   212   ar
   171   165   164    1
   172   200   203    1
   173   200   201    1
   174   215   213   ar
   175   167   164    1
   176   212   210   ar
   177   164   163    1
   178   208   207    2
   179   201   202    2
   180   213   211   ar
   181    12    11    1
   182     9    11   ar
   183     9     7   ar
   184   210   211   ar
   185   210   209    1
   186   207   206    1
   187    23    22   ar
   188    23    21   ar
   189    11    10   ar
   190    22    20   ar
   191     7     6   ar
   192    31    30    1
   193    30    29    1
   194    21    19   ar
   195   209   206    1
   196    10     8   ar
   197   206   205    1
   198    20    18   ar
   199     6     8   ar
   200     6     5    1
   201    19    18   ar
   202     5     2    1
   203    29    28    1
   204    18    17    1
   205     2     1    1
   206     2     3    1
   207    17    14    1
   208    28    25    1
   209     4     3    2
   210    25    24    1
   211    25    26    1
   212    16    15    2
   213    24    15   am
   214    15    14    1
   215    14    13    1
   216    27    26    2
