@<TRIPOS>MOLECULE
tmp/5l8rE16.pdb
 146 143 0 0 0
SMALL
GASTEIGER

@<TRIPOS>ATOM
      1  N        -28.4280   -9.5110   87.1730 N.3   294  LEU294     -0.1231
      2  CA       -28.0430  -10.4670   86.1370 C.3   294  LEU294      0.1693
      3  C        -26.7140  -11.1380   86.4620 C.2   294  LEU294      0.2592
      4  O        -26.5760  -12.3590   86.3120 O.2   294  LEU294     -0.2718
      5  CB       -27.9720   -9.7740   84.7750 C.3   294  LEU294      0.0284
      6  CG       -27.7220  -10.7010   83.5810 C.3   294  LEU294      0.0019
      7  CD1      -28.8140  -11.7560   83.5000 C.3   294  LEU294      0.0001
      8  CD2      -27.6360   -9.9160   82.2810 C.3   294  LEU294      0.0001
      9  N        -25.7270  -10.3620   86.9190 N.am  295  PHE295     -0.1976
     10  CA       -24.4180  -10.9410   87.2080 C.3   295  PHE295      0.1639
     11  C        -24.4360  -11.7560   88.4940 C.2   295  PHE295      0.2290
     12  O        -23.7880  -12.8090   88.5770 O.2   295  PHE295     -0.2864
     13  CB       -23.3620   -9.8430   87.2790 C.3   295  PHE295      0.0560
     14  CG       -22.8040   -9.4660   85.9450 C.ar  295  PHE295     -0.0200
     15  CD1      -22.0070  -10.3520   85.2390 C.ar  295  PHE295     -0.0042
     16  CD2      -23.0760   -8.2300   85.3930 C.ar  295  PHE295     -0.0042
     17  CE1      -21.4940  -10.0120   84.0060 C.ar  295  PHE295     -0.0003
     18  CE2      -22.5630   -7.8800   84.1620 C.ar  295  PHE295     -0.0003
     19  CZ       -21.7680   -8.7720   83.4680 C.ar  295  PHE295     -0.0000
     20  N        -11.5930  -10.2920   73.3150 N.3   349  MET349     -0.1245
     21  CA       -12.8840   -9.8420   73.8240 C.3   349  MET349      0.1570
     22  C        -12.7980   -8.4680   74.4740 C.2   349  MET349      0.2261
     23  O        -13.7520   -7.6860   74.3900 O.2   349  MET349     -0.2867
     24  CB       -13.4400  -10.8700   74.8090 C.3   349  MET349      0.0387
     25  CG       -13.8890  -12.1640   74.1540 C.3   349  MET349      0.0595
     26  SD       -15.0170  -11.8480   72.7810 S.3   349  MET349     -0.1393
     27  CE       -13.9340  -12.1120   71.3750 C.3   349  MET349      0.0692
     28  N        -12.4620   -5.8800   71.4870 N.3   352  SER352     -0.1202
     29  CA       -13.7810   -5.7790   70.8690 C.3   352  SER352      0.2020
     30  C        -14.7410   -5.0050   71.7630 C.2   352  SER352      0.2618
     31  O        -15.5170   -4.1590   71.2870 O.2   352  SER352     -0.2717
     32  CB       -14.3310   -7.1770   70.5780 C.3   352  SER352      0.2103
     33  OG       -13.5050   -7.8860   69.6690 O.3   352  SER352     -0.2182
     34  N        -14.6840   -5.2750   73.0710 N.am  353  LEU353     -0.1979
     35  CA       -15.4800   -4.5250   74.0340 C.3   353  LEU353      0.1596
     36  C        -15.1560   -3.0380   73.9790 C.2   353  LEU353      0.2287
     37  O        -16.0610   -2.2020   73.9120 O.2   353  LEU353     -0.2864
     38  CB       -15.2450   -5.0650   75.4410 C.3   353  LEU353      0.0297
     39  CG       -16.0790   -4.3870   76.5280 C.3   353  LEU353      0.0022
     40  CD1      -17.5600   -4.6020   76.2550 C.3   353  LEU353      0.0001
     41  CD2      -15.6990   -4.9050   77.9120 C.3   353  LEU353      0.0001
     42  N        -16.8310   -1.4500   71.1170 N.3   356  ILE356     -0.1245
     43  CA       -18.2670   -1.3140   71.3540 C.3   356  ILE356      0.1561
     44  C        -18.5500   -0.1510   72.3010 C.2   356  ILE356      0.2260
     45  O        -19.5160    0.6040   72.1160 O.2   356  ILE356     -0.2867
     46  CB       -18.8370   -2.6420   71.8830 C.3   356  ILE356      0.0252
     47  CG1      -18.7010   -3.7220   70.8110 C.3   356  ILE356      0.0019
     48  CG2      -20.2910   -2.4810   72.3070 C.3   356  ILE356      0.0019
     49  CD1      -19.0260   -5.0960   71.3020 C.3   356  ILE356      0.0001
     50  N        -18.4830    3.1250   70.3880 N.3   359  HIS359     -0.1226
     51  CA       -19.7440    3.4530   69.7160 C.3   359  HIS359      0.1752
     52  C        -20.8150    3.8890   70.7140 C.2   359  HIS359      0.2596
     53  O        -21.4650    4.9320   70.5400 O.2   359  HIS359     -0.2718
     54  CB       -20.2430    2.2610   68.9000 C.3   359  HIS359      0.0759
     55  CG       -19.5890    2.1260   67.5620 C.ar  359  HIS359      0.0818
     56  ND1      -18.3110    1.6320   67.4040 N.ar  359  HIS359     -0.2268
     57  CD2      -20.0380    2.4170   66.3190 C.ar  359  HIS359      0.1154
     58  CE1      -18.0000    1.6270   66.1200 C.ar  359  HIS359      0.1986
     59  NE2      -19.0310    2.0970   65.4400 N.ar  359  HIS359     -0.2212
     60  N        -21.0180    3.0980   71.7680 N.am  360  HIS360     -0.1975
     61  CA       -22.1730    3.3270   72.6270 C.3   360  HIS360      0.1656
     62  C        -22.0670    4.6340   73.4010 C.2   360  HIS360      0.2291
     63  O        -23.0970    5.2300   73.7390 O.2   360  HIS360     -0.2864
     64  CB       -22.3550    2.1480   73.5780 C.3   360  HIS360      0.0771
     65  CG       -22.7980    0.8940   72.8950 C.ar  360  HIS360      0.0820
     66  ND1      -23.1740   -0.2390   73.5850 N.ar  360  HIS360     -0.2267
     67  CD2      -22.9280    0.5960   71.5810 C.ar  360  HIS360      0.1154
     68  CE1      -23.5180   -1.1800   72.7250 C.ar  360  HIS360      0.1986
     69  NE2      -23.3740   -0.7010   71.5030 N.ar  360  HIS360     -0.2212
     70  N        -20.7480    7.5670   72.3040 N.3   362  TYR362     -0.1227
     71  CA       -21.1580    8.6990   71.4770 C.3   362  TYR362      0.1736
     72  C        -22.6470    8.6280   71.1680 C.2   362  TYR362      0.2595
     73  O        -23.3580    9.6340   71.2660 O.2   362  TYR362     -0.2718
     74  CB       -20.3360    8.7730   70.1780 C.3   362  TYR362      0.0548
     75  CG       -20.9800    8.1310   68.9570 C.ar  362  TYR362     -0.0200
     76  CD1      -21.9300    8.8110   68.1960 C.ar  362  TYR362     -0.0009
     77  CD2      -20.6220    6.8520   68.5540 C.ar  362  TYR362     -0.0009
     78  CE1      -22.5180    8.2210   67.0930 C.ar  362  TYR362      0.0417
     79  CE2      -21.2040    6.2580   67.4530 C.ar  362  TYR362      0.0417
     80  CZ       -22.1480    6.9440   66.7260 C.ar  362  TYR362      0.1957
     81  OH       -22.7170    6.3490   65.6260 O.3   362  TYR362     -0.2866
     82  N        -23.1430    7.4500   70.7950 N.am  363  ALA363     -0.1966
     83  CA       -24.5470    7.3820   70.4140 C.3   363  ALA363      0.1728
     84  C        -25.4930    7.4460   71.6080 C.2   363  ALA363      0.2616
     85  O        -26.7010    7.6120   71.4100 O.2   363  ALA363     -0.2715
     86  CB       -24.8100    6.1120   69.6030 C.3   363  ALA363      0.0334
     87  N        -24.9750    7.3170   72.8280 N.am  364  MET364     -0.1977
     88  CA       -25.7740    7.3890   74.0520 C.3   364  MET364      0.1605
     89  C        -24.9190    8.0530   75.1170 C.2   364  MET364      0.2287
     90  O        -24.3980    7.3880   76.0220 O.2   364  MET364     -0.2864
     91  CB       -26.2310    6.0000   74.5070 C.3   364  MET364      0.0413
     92  CG       -27.1710    5.2750   73.5560 C.3   364  MET364      0.0598
     93  SD       -27.1030    3.4750   73.7230 S.3   364  MET364     -0.1393
     94  CE       -28.5380    3.0270   72.7700 C.3   364  MET364      0.0692
     95  N        -34.2360    4.4450   71.6090 N.3   496  THR496     -0.1203
     96  CA       -33.0710    3.9550   72.3380 C.3   496  THR496      0.1994
     97  C        -31.9100    4.9380   72.2680 C.2   496  THR496      0.2618
     98  O        -31.1430    5.0700   73.2290 O.2   496  THR496     -0.2717
     99  CB       -32.6520    2.6010   71.7710 C.3   496  THR496      0.1784
    100  OG1      -33.8260    1.8440   71.4550 O.3   496  THR496     -0.2211
    101  CG2      -31.8170    1.8300   72.7750 C.3   496  THR496      0.0376
    102  N        -31.7660    5.6280   71.1410 N.am  497  SER497     -0.1951
    103  CA       -30.7520    6.6520   70.9530 C.3   497  SER497      0.1924
    104  C        -31.2660    7.6300   69.9120 C.2   497  SER497      0.2314
    105  O        -31.9830    7.2460   68.9850 O.2   497  SER497     -0.2863
    106  CB       -29.4120    6.0570   70.5100 C.3   497  SER497      0.2116
    107  OG       -28.5400    7.0630   70.0240 O.3   497  SER497     -0.2180
    108  N        -29.8930    8.8990   67.5240 N.3   499  THR499     -0.1203
    109  CA       -29.4810    8.6030   66.1580 C.3   499  THR499      0.1994
    110  C        -30.5550    7.8150   65.4180 C.2   499  THR499      0.2617
    111  O        -30.6630    7.9170   64.1900 O.2   499  THR499     -0.2717
    112  CB       -28.1600    7.8380   66.1640 C.3   499  THR499      0.1784
    113  OG1      -28.3820    6.4970   66.6210 O.3   499  THR499     -0.2211
    114  CG2      -27.1690    8.5170   67.0940 C.3   499  THR499      0.0376
    115  N        -31.3610    7.0360   66.1420 N.am  500  TRP500     -0.1975
    116  CA       -32.4550    6.3020   65.5190 C.3   500  TRP500      0.1640
    117  C        -33.6310    7.2270   65.2260 C.2   500  TRP500      0.2290
    118  O        -33.8520    7.6270   64.0780 O.2   500  TRP500     -0.2864
    119  CB       -32.9540    5.1560   66.4070 C.3   500  TRP500      0.0576
    120  CG       -31.9350    4.3110   67.1230 C.ar  500  TRP500      0.0006
    121  CD1      -31.8010    4.1690   68.4740 C.ar  500  TRP500      0.0946
    122  CD2      -30.9580    3.4430   66.5340 C.ar  500  TRP500      0.0152
    123  NE1      -30.7890    3.2850   68.7640 N.ar  500  TRP500     -0.2442
    124  CE2      -30.2550    2.8260   67.5900 C.ar  500  TRP500      0.0810
    125  CE3      -30.6000    3.1380   65.2210 C.ar  500  TRP500      0.0012
    126  CZ2      -29.2160    1.9230   67.3690 C.ar  500  TRP500      0.0191
    127  CZ3      -29.5690    2.2390   65.0030 C.ar  500  TRP500      0.0001
    128  CH2      -28.8910    1.6410   66.0720 C.ar  500  TRP500      0.0015
    129  N        -28.9470   10.5440   62.5740 N.3   517  ILE517     -0.1245
    130  CA       -27.8020   10.4730   61.6690 C.3   517  ILE517      0.1561
    131  C        -28.2390    9.8990   60.3260 C.2   517  ILE517      0.2260
    132  O        -28.6450    8.7290   60.2570 O.2   517  ILE517     -0.2867
    133  CB       -26.6690    9.6300   62.2740 C.3   517  ILE517      0.0252
    134  CG1      -26.1550   10.2720   63.5640 C.3   517  ILE517      0.0019
    135  CG2      -25.5470    9.4550   61.2660 C.3   517  ILE517      0.0019
    136  CD1      -25.0170    9.5120   64.2080 C.3   517  ILE517      0.0001
    137  N        -18.5030    2.1910   54.8100 N.3   527  HIS527     -0.1241
    138  CA       -18.6870    0.9820   55.6050 C.3   527  HIS527      0.1621
    139  C        -18.0490   -0.2220   54.9310 C.2   527  HIS527      0.2264
    140  O        -17.4470   -1.0740   55.6010 O.2   527  HIS527     -0.2867
    141  CB       -20.1700    0.7290   55.8560 C.3   527  HIS527      0.0745
    142  CG       -20.7250    1.5140   57.0000 C.ar  527  HIS527      0.0817
    143  ND1      -21.4990    2.6400   56.8230 N.ar  527  HIS527     -0.2268
    144  CD2      -20.6100    1.3410   58.3370 C.ar  527  HIS527      0.1154
    145  CE1      -21.8460    3.1200   58.0020 C.ar  527  HIS527      0.1986
    146  NE2      -21.3150    2.3530   58.9370 N.ar  527  HIS527     -0.2212
@<TRIPOS>BOND
     1   137   138    1
     2   139   140    2
     3   139   138    1
     4   138   141    1
     5   141   142    1
     6   143   142   ar
     7   143   145   ar
     8   142   144   ar
     9   145   146   ar
    10   144   146   ar
    11   132   131    2
    12   131   130    1
    13   135   133    1
    14   130   133    1
    15   130   129    1
    16   133   134    1
    17   134   136    1
    18   118   117    2
    19   111   110    2
    20   127   125   ar
    21   127   128   ar
    22   125   122   ar
    23   117   116    1
    24   110   115   am
    25   110   109    1
    26    59    58   ar
    27    59    57   ar
    28   116   115    1
    29   116   119    1
    30    81    80    1
    31   128   126   ar
    32    58    56   ar
    33   109   112    1
    34   109   108    1
    35   112   113    1
    36   112   114    1
    37    57    55   ar
    38   119   120    1
    39   122   120   ar
    40   122   124   ar
    41    80    78   ar
    42    80    79   ar
    43    78    76   ar
    44   120   121   ar
    45   126   124   ar
    46    56    55   ar
    47    79    77   ar
    48    55    54    1
    49   124   123   ar
    50    76    75   ar
    51   121   123   ar
    52    77    75   ar
    53    54    51    1
    54    75    74    1
    55   105   104    2
    56    86    83    1
    57    33    32    1
    58    51    50    1
    59    51    52    1
    60   104   103    1
    61   107   106    1
    62    74    71    1
    63    83    82    1
    64    83    84    1
    65   106   103    1
    66    53    52    2
    67    32    29    1
    68    52    60   am
    69    82    72   am
    70    47    49    1
    71    47    46    1
    72    29    28    1
    73    29    30    1
    74   103   102    1
    75    42    43    1
    76   102    97   am
    77    72    73    2
    78    72    71    1
    79    31    30    2
    80    43    46    1
    81    43    44    1
    82    27    26    1
    83    85    84    2
    84   100    99    1
    85    71    70    1
    86    69    67   ar
    87    69    68   ar
    88    67    65   ar
    89    84    87   am
    90    95    96    1
    91    30    34   am
    92    60    61    1
    93    99    96    1
    94    99   101    1
    95    46    48    1
    96    45    44    2
    97    97    96    1
    98    97    98    2
    99    61    62    1
   100    61    64    1
   101    68    66   ar
   102    94    93    1
   103    26    25    1
   104    87    88    1
   105    65    64    1
   106    65    66   ar
   107    34    35    1
   108    20    21    1
   109    62    63    2
   110    92    93    1
   111    92    91    1
   112    21    22    1
   113    21    24    1
   114    37    36    2
   115    36    35    1
   116    35    38    1
   117    88    91    1
   118    88    89    1
   119    25    24    1
   120    23    22    2
   121    89    90    2
   122    38    39    1
   123    40    39    1
   124    39    41    1
   125     8     6    1
   126    19    17   ar
   127    19    18   ar
   128     7     6    1
   129     6     5    1
   130    17    15   ar
   131    18    16   ar
   132     5     2    1
   133    15    14   ar
   134    16    14   ar
   135    14    13    1
   136     2     3    1
   137     2     1    1
   138     4     3    2
   139     3     9   am
   140     9    10    1
   141    10    13    1
   142    10    11    1
   143    11    12    2
