@<TRIPOS>MOLECULE
tmp/5l8rE35.pdb
 124 121 0 0 0
SMALL
GASTEIGER

@<TRIPOS>ATOM
      1  N         -4.0550    3.0180   90.0990 N.3    75  PHE75      -0.1241
      2  CA        -4.5510    3.8050   91.2240 C.3    75  PHE75       0.1605
      3  C         -3.7210    5.0660   91.4300 C.2    75  PHE75       0.2264
      4  O         -4.2590    6.1110   91.8130 O.2    75  PHE75      -0.2867
      5  CB        -4.5610    2.9640   92.5010 C.3    75  PHE75       0.0534
      6  CG        -5.8140    2.1600   92.6960 C.ar   75  PHE75      -0.0203
      7  CD1       -7.0260    2.7850   92.9530 C.ar   75  PHE75      -0.0042
      8  CD2       -5.7770    0.7780   92.6460 C.ar   75  PHE75      -0.0042
      9  CE1       -8.1800    2.0450   93.1420 C.ar   75  PHE75      -0.0003
     10  CE2       -6.9230    0.0300   92.8370 C.ar   75  PHE75      -0.0003
     11  CZ        -8.1270    0.6640   93.0850 C.ar   75  PHE75      -0.0000
     12  N         -5.0440    7.4520   88.7350 N.3    78  LEU78      -0.1245
     13  CA        -6.3160    8.0440   89.1450 C.3    78  LEU78       0.1561
     14  C         -6.1170    9.0560   90.2640 C.2    78  LEU78       0.2260
     15  O         -6.7400   10.1260   90.2640 O.2    78  LEU78      -0.2867
     16  CB        -7.2880    6.9500   89.5840 C.3    78  LEU78       0.0270
     17  CG        -7.8440    6.0820   88.4590 C.3    78  LEU78       0.0019
     18  CD1       -8.7650    5.0070   89.0100 C.3    78  LEU78       0.0001
     19  CD2       -8.5710    6.9570   87.4550 C.3    78  LEU78       0.0001
     20  N         -7.5710   12.9000   90.0150 N.3    82  TYR82      -0.1241
     21  CA        -8.4110   13.5560   91.0120 C.3    82  TYR82       0.1605
     22  C         -7.6570   14.6750   91.7200 C.2    82  TYR82       0.2264
     23  O         -8.2290   15.7380   91.9940 O.2    82  TYR82      -0.2867
     24  CB        -8.9370   12.5350   92.0210 C.3    82  TYR82       0.0534
     25  CG       -10.0670   11.6740   91.4960 C.ar   82  TYR82      -0.0201
     26  CD1      -11.3940   12.0420   91.6870 C.ar   82  TYR82      -0.0009
     27  CD2       -9.8070   10.4940   90.8100 C.ar   82  TYR82      -0.0009
     28  CE1      -12.4300   11.2580   91.2130 C.ar   82  TYR82       0.0417
     29  CE2      -10.8360    9.7070   90.3300 C.ar   82  TYR82       0.0417
     30  CZ       -12.1450   10.0950   90.5330 C.ar   82  TYR82       0.1957
     31  OH       -13.1750    9.3170   90.0600 O.3    82  TYR82      -0.2866
     32  N        -10.8100   11.7180   97.2440 N.3   152  THR152     -0.1218
     33  CA       -10.7280   10.6180   96.2890 C.3   152  THR152      0.1862
     34  C         -9.2880   10.3660   95.8610 C.2   152  THR152      0.2287
     35  O         -8.8830    9.2120   95.6850 O.2   152  THR152     -0.2866
     36  CB       -11.6030   10.8960   95.0710 C.3   152  THR152      0.1770
     37  OG1      -12.9140   11.2760   95.5030 O.3   152  THR152     -0.2211
     38  CG2      -11.7080    9.6440   94.2130 C.3   152  THR152      0.0375
     39  N         -7.6660    8.4580   98.7580 N.3   155  GLY155     -0.1210
     40  CA        -8.0880    7.0670   98.7370 C.3   155  GLY155      0.1956
     41  C         -7.4450    6.2860   97.6080 C.2   155  GLY155      0.2611
     42  O         -7.0060    5.1490   97.7950 O.2   155  GLY155     -0.2717
     43  N         -7.3720    6.8940   96.4230 N.am  156  ALA156     -0.1979
     44  CA        -6.7220    6.2510   95.2890 C.3   156  ALA156      0.1597
     45  C         -5.2570    5.9730   95.5850 C.2   156  ALA156      0.2287
     46  O         -4.7390    4.9020   95.2440 O.2   156  ALA156     -0.2864
     47  CB        -6.8590    7.1270   94.0440 C.3   156  ALA156      0.0319
     48  N         -5.0180    3.0210   97.8750 N.3   159  PHE159     -0.1241
     49  CA        -5.2430    1.7570   97.1810 C.3   159  PHE159      0.1605
     50  C         -4.0730    1.3920   96.2830 C.2   159  PHE159      0.2264
     51  O         -3.7860    0.2050   96.1040 O.2   159  PHE159     -0.2867
     52  CB        -6.5400    1.8090   96.3770 C.3   159  PHE159      0.0534
     53  CG        -7.7600    1.5240   97.1940 C.ar  159  PHE159     -0.0203
     54  CD1       -7.7160    1.6080   98.5750 C.ar  159  PHE159     -0.0042
     55  CD2       -8.9430    1.1500   96.5900 C.ar  159  PHE159     -0.0042
     56  CE1       -8.8350    1.3410   99.3340 C.ar  159  PHE159     -0.0003
     57  CE2      -10.0620    0.8830   97.3470 C.ar  159  PHE159     -0.0003
     58  CZ       -10.0090    0.9760   98.7180 C.ar  159  PHE159     -0.0000
     59  N        -21.6020   -7.1190   92.5720 N.3   198  LEU198     -0.1245
     60  CA       -21.5660   -6.2420   93.7370 C.3   198  LEU198      0.1561
     61  C        -20.9950   -4.8750   93.3900 C.2   198  LEU198      0.2260
     62  O        -21.3170   -3.8850   94.0560 O.2   198  LEU198     -0.2867
     63  CB       -20.7650   -6.8890   94.8660 C.3   198  LEU198      0.0270
     64  CG       -21.3270   -8.2040   95.4130 C.3   198  LEU198      0.0019
     65  CD1      -20.5290   -8.6710   96.6180 C.3   198  LEU198      0.0001
     66  CD2      -22.7990   -8.0570   95.7670 C.3   198  LEU198      0.0001
     67  N        -24.0100   -3.1110   91.7820 N.3   201  LEU201     -0.1231
     68  CA       -24.9790   -2.8180   92.8340 C.3   201  LEU201      0.1693
     69  C        -24.5060   -1.6680   93.7150 C.2   201  LEU201      0.2593
     70  O        -25.2840   -0.7600   94.0420 O.2   201  LEU201     -0.2718
     71  CB       -25.2360   -4.0690   93.6740 C.3   201  LEU201      0.0284
     72  CG       -26.2470   -3.8600   94.8010 C.3   201  LEU201      0.0019
     73  CD1      -27.5720   -3.3970   94.2230 C.3   201  LEU201      0.0001
     74  CD2      -26.4260   -5.1180   95.6270 C.3   201  LEU201      0.0001
     75  N        -23.2300   -1.6940   94.1140 N.am  202  SER202     -0.1938
     76  CA       -22.6700   -0.5980   94.9000 C.3   202  SER202      0.2055
     77  C        -22.8030    0.7280   94.1650 C.2   202  SER202      0.2643
     78  O        -23.1910    1.7490   94.7560 O.2   202  SER202     -0.2714
     79  CB       -21.2030   -0.8810   95.2150 C.3   202  SER202      0.2130
     80  OG       -21.0320   -2.1990   95.7010 O.3   202  SER202     -0.2179
     81  N        -22.4970    0.7300   92.8660 N.am  203  TRP203     -0.1973
     82  CA       -22.5980    1.9660   92.1040 C.3   203  TRP203      0.1640
     83  C        -24.0420    2.4400   92.0030 C.2   203  TRP203      0.2290
     84  O        -24.3110    3.6460   92.1020 O.2   203  TRP203     -0.2864
     85  CB       -21.9920    1.7930   90.7140 C.3   203  TRP203      0.0576
     86  CG       -21.9650    3.0850   89.9990 C.ar  203  TRP203      0.0006
     87  CD1      -22.5700    3.3850   88.8160 C.ar  203  TRP203      0.0946
     88  CD2      -21.3390    4.2930   90.4510 C.ar  203  TRP203      0.0152
     89  NE1      -22.3370    4.6990   88.4880 N.ar  203  TRP203     -0.2442
     90  CE2      -21.5860    5.2790   89.4770 C.ar  203  TRP203      0.0810
     91  CE3      -20.5790    4.6310   91.5770 C.ar  203  TRP203      0.0012
     92  CZ2      -21.1040    6.5810   89.5960 C.ar  203  TRP203      0.0191
     93  CZ3      -20.1040    5.9200   91.6950 C.ar  203  TRP203      0.0001
     94  CH2      -20.3670    6.8820   90.7100 C.ar  203  TRP203      0.0015
     95  N        -40.0470   -2.7600   98.1400 N.3   254  PHE254     -0.1227
     96  CA       -39.0670   -3.6920   97.5960 C.3   254  PHE254      0.1736
     97  C        -39.3420   -5.1130   98.0720 C.2   254  PHE254      0.2595
     98  O        -39.3150   -6.0600   97.2780 O.2   254  PHE254     -0.2718
     99  CB       -37.6560   -3.2530   97.9850 C.3   254  PHE254      0.0547
    100  CG       -36.5910   -4.2360   97.6030 C.ar  254  PHE254     -0.0202
    101  CD1      -36.1580   -4.3340   96.2920 C.ar  254  PHE254     -0.0042
    102  CD2      -36.0170   -5.0580   98.5570 C.ar  254  PHE254     -0.0042
    103  CE1      -35.1740   -5.2380   95.9380 C.ar  254  PHE254     -0.0003
    104  CE2      -35.0340   -5.9640   98.2100 C.ar  254  PHE254     -0.0003
    105  CZ       -34.6120   -6.0540   96.8970 C.ar  254  PHE254     -0.0000
    106  N        -39.6160   -5.2800   99.3660 N.am  255  PHE255     -0.1976
    107  CA       -39.9050   -6.6100   99.8870 C.3   255  PHE255      0.1639
    108  C        -41.3210   -7.0600   99.5530 C.2   255  PHE255      0.2290
    109  O        -41.5580   -8.2610   99.3920 O.2   255  PHE255     -0.2864
    110  CB       -39.6780   -6.6470  101.3990 C.3   255  PHE255      0.0560
    111  CG       -38.2550   -6.3830  101.8040 C.ar  255  PHE255     -0.0200
    112  CD1      -37.2950   -7.3780  101.7060 C.ar  255  PHE255     -0.0042
    113  CD2      -37.8760   -5.1400  102.2810 C.ar  255  PHE255     -0.0042
    114  CE1      -35.9840   -7.1360  102.0760 C.ar  255  PHE255     -0.0003
    115  CE2      -36.5680   -4.8930  102.6530 C.ar  255  PHE255     -0.0003
    116  CZ       -35.6210   -5.8930  102.5510 C.ar  255  PHE255     -0.0000
    117  N        -25.1650  -11.2870   89.5100 N.3   296  LEU296     -0.1245
    118  CA       -25.3140  -12.0760   90.7280 C.3   296  LEU296      0.1561
    119  C        -25.9310  -13.4360   90.4260 C.2   296  LEU296      0.2260
    120  O        -25.5740  -14.4380   91.0530 O.2   296  LEU296     -0.2867
    121  CB       -26.1550  -11.3130   91.7520 C.3   296  LEU296      0.0270
    122  CG       -25.4590  -10.1260   92.4220 C.3   296  LEU296      0.0019
    123  CD1      -26.4550   -9.3170   93.2280 C.3   296  LEU296      0.0001
    124  CD2      -24.3100  -10.5930   93.3040 C.3   296  LEU296      0.0001
@<TRIPOS>BOND
     1    19    17    1
     2    17    18    1
     3    17    16    1
     4    89    87   ar
     5    89    90   ar
     6    12    13    1
     7    87    86   ar
     8    13    16    1
     9    13    14    1
    10    90    92   ar
    11    90    88   ar
    12   117   118    1
    13    92    94   ar
    14    86    88   ar
    15    86    85    1
    16    20    21    1
    17    31    30    1
    18     1     2    1
    19    14    15    2
    20    29    30   ar
    21    29    27   ar
    22   119   118    1
    23   119   120    2
    24    88    91   ar
    25    30    28   ar
    26    94    93   ar
    27    85    82    1
    28   118   121    1
    29    27    25   ar
    30    21    22    1
    31    21    24    1
    32    28    26   ar
    33     2     3    1
    34     2     5    1
    35     3     4    2
    36    25    26   ar
    37    25    24    1
    38    91    93   ar
    39    22    23    2
    40   121   122    1
    41    67    68    1
    42    83    84    2
    43    83    82    1
    44    82    81    1
    45   122   123    1
    46   122   124    1
    47     5     6    1
    48    59    60    1
    49     8     6   ar
    50     8    10   ar
    51     6     7   ar
    52    68    71    1
    53    68    69    1
    54    10    11   ar
    55    81    77   am
    56     7     9   ar
    57    11     9   ar
    58    61    60    1
    59    61    62    2
    60    71    72    1
    61    69    70    2
    62    69    75   am
    63    60    63    1
    64    47    44    1
    65    75    76    1
    66    77    78    2
    67    77    76    1
    68    38    36    1
    69    73    72    1
    70    72    74    1
    71    63    64    1
    72    76    79    1
    73    36    37    1
    74    36    33    1
    75    79    80    1
    76    46    45    2
    77    44    45    1
    78    44    43    1
    79    64    66    1
    80    64    65    1
    81    35    34    2
    82    34    33    1
    83   103   101   ar
    84   103   105   ar
    85    51    50    2
    86    50    49    1
    87    33    32    1
    88   101   100   ar
    89    52    49    1
    90    52    53    1
    91    43    41   am
    92    55    53   ar
    93    55    57   ar
    94   105   104   ar
    95    49    48    1
    96    53    54   ar
    97    98    97    2
    98    57    58   ar
    99    96    99    1
   100    96    97    1
   101    96    95    1
   102   100    99    1
   103   100   102   ar
   104    41    42    2
   105    41    40    1
   106    97   106   am
   107   104   102   ar
   108    54    56   ar
   109    58    56   ar
   110    40    39    1
   111   106   107    1
   112   109   108    2
   113   108   107    1
   114   107   110    1
   115   110   111    1
   116   112   111   ar
   117   112   114   ar
   118   111   113   ar
   119   114   116   ar
   120   113   115   ar
   121   116   115   ar
