@<TRIPOS>MOLECULE
tmp/5l8rA01.pdb
 122 119 0 0 0
SMALL
GASTEIGER

@<TRIPOS>ATOM
      1  N         60.9540   51.1150   40.9270 N.3    66  TRP66      -0.1227
      2  CA        60.8400   49.8870   40.1490 C.3    66  TRP66       0.1737
      3  C         59.4100   49.6150   39.7030 C.2    66  TRP66       0.2595
      4  O         59.2070   48.9070   38.7100 O.2    66  TRP66      -0.2718
      5  CB        61.3750   48.7050   40.9580 C.3    66  TRP66       0.0564
      6  CG        60.5920   48.4210   42.2040 C.ar   66  TRP66       0.0003
      7  CD1       60.5870   49.1520   43.3560 C.ar   66  TRP66       0.0946
      8  CD2       59.7060   47.3170   42.4270 C.ar   66  TRP66       0.0152
      9  NE1       59.7480   48.5770   44.2800 N.ar   66  TRP66      -0.2442
     10  CE2       59.1960   47.4490   43.7340 C.ar   66  TRP66       0.0810
     11  CE3       59.2930   46.2340   41.6470 C.ar   66  TRP66       0.0012
     12  CZ2       58.2950   46.5390   44.2770 C.ar   66  TRP66       0.0191
     13  CZ3       58.4020   45.3320   42.1880 C.ar   66  TRP66       0.0001
     14  CH2       57.9110   45.4900   43.4910 C.ar   66  TRP66       0.0015
     15  N         58.4180   50.1680   40.4020 N.am   67  VAL67      -0.1980
     16  CA        57.0250   49.9700   40.0120 C.3    67  VAL67       0.1595
     17  C         56.6500   50.8990   38.8660 C.2    67  VAL67       0.2287
     18  O         56.0740   50.4670   37.8610 O.2    67  VAL67      -0.2864
     19  CB        56.0970   50.1700   41.2240 C.3    67  VAL67       0.0276
     20  CG1       54.6580   49.8500   40.8470 C.3    67  VAL67       0.0022
     21  CG2       56.5540   49.3110   42.3880 C.3    67  VAL67       0.0022
     22  N         57.5070   50.2730   35.0680 N.3    70  GLN70      -0.1231
     23  CA        56.7890   49.2740   34.2860 C.3    70  GLN70       0.1698
     24  C         55.4770   49.8000   33.7270 C.2    70  GLN70       0.2592
     25  O         54.7530   49.0500   33.0670 O.2    70  GLN70      -0.2718
     26  CB        56.4980   48.0310   35.1370 C.3    70  GLN70       0.0381
     27  CG        57.7010   47.3830   35.7940 C.3    70  GLN70       0.0905
     28  CD        57.2930   46.2930   36.7660 C.2    70  GLN70       0.2608
     29  OE1       56.2960   46.4240   37.4760 O.2    70  GLN70      -0.2717
     30  NE2       58.0560   45.2080   36.7970 N.am   70  GLN70      -0.0878
     31  N         55.1570   51.0660   33.9640 N.am   71  GLU71      -0.1966
     32  CA        53.7830   51.5420   33.8630 C.3    71  GLU71       0.1733
     33  C         53.3560   51.9370   32.4550 C.2    71  GLU71       0.2616
     34  O         52.1540   51.9050   32.1650 O.2    71  GLU71      -0.2715
     35  CB        53.5770   52.7310   34.8110 C.3    71  GLU71       0.0429
     36  CG        52.1260   53.0850   35.0700 C.3    71  GLU71       0.1163
     37  CD        51.9840   54.2020   36.0790 C.2    71  GLU71       0.3649
     38  OE1       52.9680   54.4770   36.7930 O.co2  71  GLU71      -0.2457
     39  OE2       50.8950   54.8080   36.1570 O.co2  71  GLU71      -0.2457
     40  N         54.2930   52.2980   31.5750 N.am   72  TRP72      -0.1960
     41  CA        53.9020   52.7400   30.2390 C.3    72  TRP72       0.1771
     42  C         53.1780   51.6440   29.4680 C.2    72  TRP72       0.2620
     43  O         52.3490   51.9430   28.6020 O.2    72  TRP72      -0.2715
     44  CB        55.1250   53.2010   29.4490 C.3    72  TRP72       0.0590
     45  CG        56.0950   52.0980   29.1790 C.ar   72  TRP72       0.0006
     46  CD1       55.9680   51.0930   28.2600 C.ar   72  TRP72       0.0946
     47  CD2       57.3470   51.8860   29.8330 C.ar   72  TRP72       0.0152
     48  NE1       57.0590   50.2660   28.3110 N.ar   72  TRP72      -0.2442
     49  CE2       57.9240   50.7330   29.2660 C.ar   72  TRP72       0.0810
     50  CE3       58.0380   52.5590   30.8430 C.ar   72  TRP72       0.0012
     51  CZ2       59.1560   50.2360   29.6800 C.ar   72  TRP72       0.0191
     52  CZ3       59.2640   52.0710   31.2450 C.ar   72  TRP72       0.0001
     53  CH2       59.8120   50.9210   30.6650 C.ar   72  TRP72       0.0015
     54  N         53.4830   50.3750   29.7560 N.am   73  ALA73      -0.1963
     55  CA        52.9040   49.2750   28.9930 C.3    73  ALA73       0.1728
     56  C         51.4210   49.0860   29.2800 C.2    73  ALA73       0.2616
     57  O         50.7140   48.4990   28.4530 O.2    73  ALA73      -0.2715
     58  CB        53.6610   47.9790   29.2830 C.3    73  ALA73       0.0334
     59  N         50.9380   49.5640   30.4300 N.am   74  ALA74      -0.1977
     60  CA        49.5130   49.4710   30.7290 C.3    74  ALA74       0.1597
     61  C         48.6890   50.2950   29.7470 C.2    74  ALA74       0.2287
     62  O         47.6360   49.8460   29.2790 O.2    74  ALA74      -0.2864
     63  CB        49.2480   49.9190   32.1670 C.3    74  ALA74       0.0319
     64  N         55.2190   48.0130   24.1670 N.3    92  LEU92      -0.1245
     65  CA        55.1370   46.7420   24.8850 C.3    92  LEU92       0.1561
     66  C         55.2520   45.5200   23.9790 C.2    92  LEU92       0.2260
     67  O         56.0210   44.6050   24.3210 O.2    92  LEU92      -0.2867
     68  CB        53.8490   46.6960   25.7130 C.3    92  LEU92       0.0270
     69  CG        53.5390   45.3360   26.3390 C.3    92  LEU92       0.0019
     70  CD1       54.5970   44.9480   27.3650 C.3    92  LEU92       0.0001
     71  CD2       52.1560   45.3410   26.9570 C.3    92  LEU92       0.0001
     72  N         59.3360   45.0210   22.8330 N.3    95  ILE95      -0.1231
     73  CA        60.1950   44.4780   23.8810 C.3    95  ILE95       0.1692
     74  C         59.6480   43.1790   24.4540 C.2    95  ILE95       0.2591
     75  O         60.3900   42.4230   25.0880 O.2    95  ILE95      -0.2718
     76  CB        60.3890   45.5190   25.0040 C.3    95  ILE95       0.0266
     77  CG1       59.0310   45.9140   25.5910 C.3    95  ILE95       0.0019
     78  CG2       61.1370   46.7360   24.4830 C.3    95  ILE95       0.0020
     79  CD1       59.1170   46.8060   26.8000 C.3    95  ILE95       0.0001
     80  N         58.3570   42.9060   24.2590 N.am   96  LEU96      -0.1980
     81  CA        57.7670   41.6610   24.7390 C.3    96  LEU96       0.1596
     82  C         58.1780   40.4860   23.8580 C.2    96  LEU96       0.2287
     83  O         58.6140   39.4430   24.3610 O.2    96  LEU96      -0.2864
     84  CB        56.2430   41.8010   24.7960 C.3    96  LEU96       0.0297
     85  CG        55.4240   40.6590   25.3980 C.3    96  LEU96       0.0022
     86  CD1       55.9190   40.3220   26.7930 C.3    96  LEU96       0.0001
     87  CD2       53.9500   41.0310   25.4300 C.3    96  LEU96       0.0001
     88  N         61.8850   40.0350   24.4420 N.3    99  GLU99      -0.1245
     89  CA        62.1600   39.3580   25.7050 C.3    99  GLU99       0.1567
     90  C         61.8400   37.8720   25.6190 C.2    99  GLU99       0.2260
     91  O         62.6040   37.0370   26.1200 O.2    99  GLU99      -0.2867
     92  CB        61.3630   40.0150   26.8340 C.3    99  GLU99       0.0388
     93  CG        61.5790   39.3800   28.2020 C.3    99  GLU99       0.1160
     94  CD        60.6170   39.9040   29.2520 C.2    99  GLU99       0.3649
     95  OE1       59.7440   40.7260   28.9040 O.co2  99  GLU99      -0.2457
     96  OE2       60.7310   39.4930   30.4260 O.co2  99  GLU99      -0.2457
     97  N         64.6440   41.4800   48.3290 N.3   156  PHE156     -0.1241
     98  CA        63.5560   41.5540   47.3580 C.3   156  PHE156      0.1605
     99  C         62.2080   41.3010   48.0210 C.2   156  PHE156      0.2264
    100  O         61.2230   41.9960   47.7320 O.2   156  PHE156     -0.2867
    101  CB        63.7980   40.5550   46.2250 C.3   156  PHE156      0.0534
    102  CG        62.7270   40.5580   45.1700 C.ar  156  PHE156     -0.0203
    103  CD1       62.7070   41.5310   44.1860 C.ar  156  PHE156     -0.0042
    104  CD2       61.7450   39.5810   45.1580 C.ar  156  PHE156     -0.0042
    105  CE1       61.7240   41.5340   43.2130 C.ar  156  PHE156     -0.0003
    106  CE2       60.7620   39.5790   44.1880 C.ar  156  PHE156     -0.0003
    107  CZ        60.7520   40.5570   43.2140 C.ar  156  PHE156     -0.0000
    108  N         58.9400   43.8300   47.9880 N.3   160  CYS160     -0.1235
    109  CA        57.5780   43.5150   47.5660 C.3   160  CYS160      0.1677
    110  C         56.5850   43.7120   48.7050 C.2   160  CYS160      0.2270
    111  O         55.4870   44.2460   48.4960 O.2   160  CYS160     -0.2867
    112  CB        57.5100   42.0880   47.0290 C.3   160  CYS160      0.0956
    113  SG        58.4830   41.8270   45.5320 S.3   160  CYS160     -0.0801
    114  N         56.1000   47.3030   49.3170 N.3   163  GLN163     -0.1245
    115  CA        55.2800   47.8330   48.2340 C.3   163  GLN163      0.1566
    116  C         53.8070   47.5220   48.4550 C.2   163  GLN163      0.2260
    117  O         52.9360   48.3290   48.1090 O.2   163  GLN163     -0.2867
    118  CB        55.7540   47.2700   46.8940 C.3   163  GLN163      0.0367
    119  CG        55.0690   47.8930   45.6960 C.3   163  GLN163      0.0905
    120  CD        55.1470   49.4060   45.7170 C.2   163  GLN163      0.2608
    121  OE1       54.1350   50.0890   45.8750 O.2   163  GLN163     -0.2717
    122  NE2       56.3550   49.9400   45.5640 N.am  163  GLN163     -0.0878
@<TRIPOS>BOND
     1    72    73    1
     2    82    83    2
     3    82    81    1
     4    73    74    1
     5    73    76    1
     6    66    67    2
     7    66    65    1
     8    64    65    1
     9    80    74   am
    10    80    81    1
    11    88    89    1
    12    74    75    2
    13    78    76    1
    14    81    84    1
    15    84    85    1
    16    65    68    1
    17    76    77    1
    18    85    87    1
    19    85    86    1
    20    77    79    1
    21    90    89    1
    22    90    91    2
    23    89    92    1
    24    68    69    1
    25    69    71    1
    26    69    70    1
    27    92    93    1
    28    93    94    1
    29    46    48   ar
    30    46    45   ar
    31    48    49   ar
    32    57    56    2
    33    43    42    2
    34    95    94   ar
    35    55    56    1
    36    55    58    1
    37    55    54    1
    38    45    44    1
    39    45    47   ar
    40    94    96   ar
    41    49    51   ar
    42    49    47   ar
    43    62    61    2
    44    56    59   am
    45    44    41    1
    46    42    54   am
    47    42    41    1
    48    51    53   ar
    49    61    60    1
    50    47    50   ar
    51    41    40    1
    52    59    60    1
    53    53    52   ar
    54    60    63    1
    55    50    52   ar
    56    40    33   am
    57    34    33    2
    58    33    32    1
    59    25    24    2
    60    24    31   am
    61    24    23    1
    62    32    31    1
    63    32    35    1
    64    23    22    1
    65    23    26    1
    66    35    36    1
    67    36    37    1
    68    26    27    1
    69    27    28    1
    70    37    39   ar
    71    37    38   ar
    72    28    30   am
    73    28    29    2
    74    18    17    2
    75     4     3    2
    76    17    16    1
    77     3     2    1
    78     3    15   am
    79    16    15    1
    80    16    19    1
    81     2     1    1
    82     2     5    1
    83    20    19    1
    84     5     6    1
    85    19    21    1
    86    11    13   ar
    87    11     8   ar
    88    13    14   ar
    89     6     8   ar
    90     6     7   ar
    91     8    10   ar
    92   105   107   ar
    93   105   103   ar
    94   107   106   ar
    95     7     9   ar
    96    14    12   ar
    97    10    12   ar
    98    10     9   ar
    99   103   102   ar
   100   106   104   ar
   101   104   102   ar
   102   102   101    1
   103   113   112    1
   104   122   120   am
   105   119   120    1
   106   119   118    1
   107   120   121    2
   108   101    98    1
   109   118   115    1
   110   112   109    1
   111    98    99    1
   112    98    97    1
   113   109   108    1
   114   109   110    1
   115   100    99    2
   116   117   116    2
   117   115   116    1
   118   115   114    1
   119   111   110    2
