@<TRIPOS>MOLECULE
tmp/5l8rO07.pdb
 89 87 0 0 0
SMALL
GASTEIGER

@<TRIPOS>ATOM
      1  N        -38.8440  -25.5730   97.1110 N.3    17  LEU17      -0.1245
      2  CA       -38.3540  -26.2570   98.3030 C.3    17  LEU17       0.1561
      3  C        -38.7880  -27.7140   98.3120 C.2    17  LEU17       0.2260
      4  O        -38.0100  -28.6020   98.6770 O.2    17  LEU17      -0.2867
      5  CB       -38.8640  -25.5540   99.5620 C.3    17  LEU17       0.0270
      6  CG       -38.4890  -24.0940   99.8140 C.3    17  LEU17       0.0019
      7  CD1      -39.3600  -23.5140  100.9200 C.3    17  LEU17       0.0001
      8  CD2      -37.0140  -23.9600  100.1550 C.3    17  LEU17       0.0001
      9  N        -36.4010  -30.8230   97.7720 N.3    21  ARG21      -0.1231
     10  CA       -36.4730  -31.5280   99.0470 C.3    21  ARG21       0.1694
     11  C        -36.3650  -33.0370   98.8690 C.2    21  ARG21       0.2592
     12  O        -35.3640  -33.6450   99.2620 O.2    21  ARG21      -0.2718
     13  CB       -37.7740  -31.1720   99.7730 C.3    21  ARG21       0.0321
     14  CG       -38.0030  -31.9390  101.0650 C.3    21  ARG21       0.0489
     15  CD       -36.8600  -31.7330  102.0430 C.3    21  ARG21       0.2205
     16  NE       -37.0270  -32.5300  103.2550 N.pl3  21  ARG21      -0.0865
     17  CZ       -36.6530  -33.7990  103.3700 C.cat  21  ARG21       0.5346
     18  NH1      -36.0920  -34.4170  102.3430 N.pl3  21  ARG21       0.1354
     19  NH2      -36.8430  -34.4500  104.5090 N.pl3  21  ARG21       0.1354
     20  N        -37.3910  -33.6500   98.2810 N.am   22  PHE22      -0.1976
     21  CA       -37.4320  -35.1020   98.1350 C.3    22  PHE22       0.1639
     22  C        -36.7750  -35.5540   96.8340 C.2    22  PHE22       0.2290
     23  O        -35.7730  -36.2750   96.8530 O.2    22  PHE22      -0.2864
     24  CB       -38.8820  -35.5940   98.2100 C.3    22  PHE22       0.0560
     25  CG       -39.5660  -35.2650   99.5060 C.ar   22  PHE22      -0.0200
     26  CD1      -39.2900  -35.9920  100.6520 C.ar   22  PHE22      -0.0042
     27  CD2      -40.4850  -34.2330   99.5790 C.ar   22  PHE22      -0.0042
     28  CE1      -39.9160  -35.6930  101.8470 C.ar   22  PHE22      -0.0003
     29  CE2      -41.1150  -33.9300  100.7710 C.ar   22  PHE22      -0.0003
     30  CZ       -40.8310  -34.6620  101.9060 C.ar   22  PHE22      -0.0000
     31  N        -25.9470  -33.4520  106.6310 N.3    44  THR44      -0.1203
     32  CA       -27.2010  -32.7930  106.9610 C.3    44  THR44       0.1994
     33  C        -27.9950  -33.7030  107.8830 C.2    44  THR44       0.2618
     34  O        -28.0360  -34.9200  107.6780 O.2    44  THR44      -0.2717
     35  CB       -28.0170  -32.4710  105.7020 C.3    44  THR44       0.1784
     36  OG1      -27.2650  -31.5940  104.8550 O.3    44  THR44      -0.2211
     37  CG2      -29.3350  -31.8050  106.0700 C.3    44  THR44       0.0376
     38  N        -28.6160  -33.1100  108.9060 N.am   45  GLY45      -0.1942
     39  CA       -29.4660  -33.8880  109.7900 C.3    45  GLY45       0.2014
     40  C        -30.6470  -34.5170  109.0760 C.2    45  GLY45       0.2639
     41  O        -31.1630  -35.5490  109.5140 O.2    45  GLY45      -0.2714
     42  N        -31.0850  -33.9140  107.9770 N.am   46  ASP46      -0.1957
     43  CA       -32.1980  -34.4620  107.2100 C.3    46  ASP46       0.1825
     44  C        -31.7880  -35.7870  106.5760 C.2    46  ASP46       0.2464
     45  O        -30.7500  -35.8540  105.9080 O.2    46  ASP46      -0.2730
     46  CB       -32.6400  -33.4680  106.1370 C.3    46  ASP46       0.1450
     47  CG       -33.8260  -33.9620  105.3370 C.2    46  ASP46       0.3671
     48  OD1      -34.9200  -34.1030  105.9210 O.co2  46  ASP46      -0.2456
     49  OD2      -33.6660  -34.1980  104.1210 O.co2  46  ASP46      -0.2456
     50  N        -32.5690  -36.8560  106.7550 N.am   47  PRO47      -0.2727
     51  CA       -32.1270  -38.1770  106.2780 C.3    47  PRO47       0.1402
     52  C        -32.1630  -38.3410  104.7670 C.2    47  PRO47       0.2269
     53  O        -31.5030  -39.2520  104.2510 O.2    47  PRO47      -0.2865
     54  CB       -33.1060  -39.1400  106.9620 C.3    47  PRO47       0.0296
     55  CG       -34.3380  -38.3200  107.1740 C.3    47  PRO47       0.0237
     56  CD       -33.8600  -36.9220  107.4620 C.3    47  PRO47       0.0939
     57  N        -31.2210  -33.8590  101.6190 N.3    50  PHE50      -0.1227
     58  CA       -31.5230  -32.4690  101.2840 C.3    50  PHE50       0.1736
     59  C        -30.7260  -31.5610  102.2140 C.2    50  PHE50       0.2596
     60  O        -30.9990  -31.5010  103.4170 O.2    50  PHE50      -0.2718
     61  CB       -33.0220  -32.2110  101.4010 C.3    50  PHE50       0.0547
     62  CG       -33.4180  -30.7880  101.1340 C.ar   50  PHE50      -0.0202
     63  CD1      -33.3520  -30.2630   99.8550 C.ar   50  PHE50      -0.0042
     64  CD2      -33.8700  -29.9780  102.1620 C.ar   50  PHE50      -0.0042
     65  CE1      -33.7260  -28.9570   99.6060 C.ar   50  PHE50      -0.0003
     66  CE2      -34.2450  -28.6710  101.9180 C.ar   50  PHE50      -0.0003
     67  CZ       -34.1720  -28.1600  100.6380 C.ar   50  PHE50      -0.0000
     68  N        -29.7490  -30.8460  101.6590 N.am   51  THR51      -0.1939
     69  CA       -28.7530  -30.1340  102.4430 C.3    51  THR51       0.2028
     70  C        -29.1170  -28.6570  102.5960 C.2    51  THR51       0.2642
     71  O        -30.1610  -28.1880  102.1380 O.2    51  THR51      -0.2714
     72  CB       -27.3710  -30.2760  101.8010 C.3    51  THR51       0.1808
     73  OG1      -27.3490  -29.5680  100.5560 O.3    51  THR51      -0.2208
     74  CG2      -27.0440  -31.7410  101.5500 C.3    51  THR51       0.0379
     75  N        -28.2200  -27.9170  103.2570 N.am   52  LEU52      -0.1977
     76  CA       -28.4040  -26.4830  103.4570 C.3    52  LEU52       0.1596
     77  C        -28.0990  -25.6960  102.1870 C.2    52  LEU52       0.2287
     78  O        -28.7780  -24.7050  101.8910 O.2    52  LEU52      -0.2864
     79  CB       -27.5210  -25.9960  104.6080 C.3    52  LEU52       0.0297
     80  CG       -27.4660  -24.4830  104.8580 C.3    52  LEU52       0.0022
     81  CD1      -28.8240  -23.9510  105.2940 C.3    52  LEU52       0.0001
     82  CD2      -26.3910  -24.1350  105.8790 C.3    52  LEU52       0.0001
     83  N        -31.0610  -26.0840  100.2430 N.3    55  THR55      -0.1218
     84  CA       -32.1370  -25.3120  100.8600 C.3    55  THR55       0.1862
     85  C        -32.0820  -23.8590  100.4060 C.2    55  THR55       0.2287
     86  O        -33.0870  -23.2960   99.9500 O.2    55  THR55      -0.2866
     87  CB       -32.0480  -25.4000  102.3860 C.3    55  THR55       0.1770
     88  OG1      -31.9640  -26.7740  102.7850 O.3    55  THR55      -0.2211
     89  CG2      -33.2720  -24.7650  103.0260 C.3    55  THR55       0.0375
@<TRIPOS>BOND
     1    22    23    2
     2    22    21    1
     3     1     2    1
     4     9    10    1
     5    21    24    1
     6    21    20    1
     7    24    25    1
     8    20    11   am
     9     2     3    1
    10     2     5    1
    11     3     4    2
    12    11    10    1
    13    11    12    2
    14    10    13    1
    15    25    27   ar
    16    25    26   ar
    17     5     6    1
    18    27    29   ar
    19    65    63   ar
    20    65    67   ar
    21    13    14    1
    22     6     8    1
    23     6     7    1
    24    63    62   ar
    25    86    85    2
    26    83    84    1
    27    85    84    1
    28    73    72    1
    29    67    66   ar
    30    26    28   ar
    31    29    30   ar
    32    84    87    1
    33    14    15    1
    34    62    61    1
    35    62    64   ar
    36    58    61    1
    37    58    57    1
    38    58    59    1
    39    74    72    1
    40    68    59   am
    41    68    69    1
    42    72    69    1
    43    28    30   ar
    44    78    77    2
    45    66    64   ar
    46    15    16    1
    47    71    70    2
    48    77    76    1
    49    59    60    2
    50    18    17    1
    51    87    88    1
    52    87    89    1
    53    69    70    1
    54    70    75   am
    55    16    17    2
    56    75    76    1
    57    17    19    1
    58    76    79    1
    59    49    47   ar
    60    53    52    2
    61    79    80    1
    62    52    51    1
    63    36    35    1
    64    80    81    1
    65    80    82    1
    66    47    48   ar
    67    47    46    1
    68    35    37    1
    69    35    32    1
    70    45    44    2
    71    46    43    1
    72    51    50    1
    73    51    54    1
    74    44    50   am
    75    44    43    1
    76    31    32    1
    77    50    56    1
    78    32    33    1
    79    54    55    1
    80    55    56    1
    81    43    42    1
    82    34    33    2
    83    33    38   am
    84    42    40   am
    85    38    39    1
    86    40    41    2
    87    40    39    1
