@<TRIPOS>MOLECULE
tmp/5l8rC07.pdb
 104 101 0 0 0
SMALL
GASTEIGER

@<TRIPOS>ATOM
      1  N        -13.1970   -9.2930  123.6040 N.3    54  PHE54      -0.1241
      2  CA       -13.5350   -7.9010  123.3170 C.3    54  PHE54       0.1605
      3  C        -15.0300   -7.7360  123.0770 C.2    54  PHE54       0.2264
      4  O        -15.6290   -6.7370  123.4920 O.2    54  PHE54      -0.2867
      5  CB       -12.7510   -7.4030  122.1010 C.3    54  PHE54       0.0534
      6  CG       -11.3520   -6.9540  122.4140 C.ar   54  PHE54      -0.0203
      7  CD1      -11.1090   -6.0440  123.4310 C.ar   54  PHE54      -0.0042
      8  CD2      -10.2790   -7.4420  121.6870 C.ar   54  PHE54      -0.0042
      9  CE1       -9.8190   -5.6300  123.7150 C.ar   54  PHE54      -0.0003
     10  CE2       -8.9880   -7.0350  121.9680 C.ar   54  PHE54      -0.0003
     11  CZ        -8.7580   -6.1260  122.9810 C.ar   54  PHE54      -0.0000
     12  N        -22.3440    7.9610  121.8970 N.3    85  THR85      -0.1203
     13  CA       -21.3570    8.2560  122.9220 C.3    85  THR85       0.1994
     14  C        -20.3290    9.2870  122.4770 C.2    85  THR85       0.2618
     15  O        -19.6110    9.8350  123.3210 O.2    85  THR85      -0.2717
     16  CB       -20.6570    6.9610  123.3200 C.3    85  THR85       0.1784
     17  OG1      -21.6310    5.9240  123.4950 O.3    85  THR85      -0.2211
     18  CG2      -19.9380    7.1500  124.6030 C.3    85  THR85       0.0376
     19  N        -20.2700    9.5940  121.1900 N.am   86  GLY86      -0.1942
     20  CA       -19.1460   10.2870  120.6040 C.3    86  GLY86       0.2014
     21  C        -18.3080    9.3850  119.7370 C.2    86  GLY86       0.2638
     22  O        -17.3930    9.8680  119.0580 O.2    86  GLY86      -0.2714
     23  N        -18.5910    8.0800  119.7570 N.am   87  VAL87      -0.1977
     24  CA       -17.9560    7.1470  118.8320 C.3    87  VAL87       0.1596
     25  C        -18.2040    7.5860  117.3970 C.2    87  VAL87       0.2287
     26  O        -17.2710    7.7480  116.6030 O.2    87  VAL87      -0.2864
     27  CB       -18.4810    5.7210  119.0790 C.3    87  VAL87       0.0276
     28  CG1      -17.5310    4.6850  118.4970 C.3    87  VAL87       0.0022
     29  CG2      -18.7110    5.5000  120.5620 C.3    87  VAL87       0.0022
     30  N        -15.8140   15.2350  126.5090 N.3    96  TYR96      -0.1227
     31  CA       -15.1070   14.6820  127.6520 C.3    96  TYR96       0.1736
     32  C        -13.9860   15.6350  128.0590 C.2    96  TYR96       0.2595
     33  O        -13.8920   16.7650  127.5730 O.2    96  TYR96      -0.2718
     34  CB       -14.5680   13.2910  127.3230 C.3    96  TYR96       0.0548
     35  CG       -15.6310   12.3180  126.8830 C.ar   96  TYR96      -0.0200
     36  CD1      -16.2770   11.5060  127.8040 C.ar   96  TYR96      -0.0009
     37  CD2      -15.9920   12.2130  125.5470 C.ar   96  TYR96      -0.0009
     38  CE1      -17.2510   10.6190  127.4070 C.ar   96  TYR96       0.0417
     39  CE2      -16.9650   11.3300  125.1400 C.ar   96  TYR96       0.0417
     40  CZ       -17.5900   10.5350  126.0740 C.ar   96  TYR96       0.1957
     41  OH       -18.5610    9.6530  125.6720 O.3    96  TYR96      -0.2866
     42  N        -13.1120   15.1800  128.9550 N.am   97  TRP97      -0.1976
     43  CA       -11.9440   15.9670  129.3240 C.3    97  TRP97       0.1640
     44  C        -10.9410   16.1020  128.1860 C.2    97  TRP97       0.2290
     45  O         -9.9500   16.8230  128.3470 O.2    97  TRP97      -0.2864
     46  CB       -11.2610   15.3490  130.5440 C.3    97  TRP97       0.0576
     47  CG       -10.6720   13.9990  130.2750 C.ar   97  TRP97       0.0006
     48  CD1      -11.3040   12.7940  130.3730 C.ar   97  TRP97       0.0946
     49  CD2       -9.3300   13.7150  129.8590 C.ar   97  TRP97       0.0152
     50  NE1      -10.4390   11.7770  130.0440 N.ar   97  TRP97      -0.2442
     51  CE2       -9.2210   12.3170  129.7250 C.ar   97  TRP97       0.0810
     52  CE3       -8.2100   14.5080  129.5870 C.ar   97  TRP97       0.0012
     53  CZ2       -8.0390   11.6960  129.3330 C.ar   97  TRP97       0.0191
     54  CZ3       -7.0390   13.8900  129.1980 C.ar   97  TRP97       0.0001
     55  CH2       -6.9620   12.4980  129.0740 C.ar   97  TRP97       0.0015
     56  N        -11.4280   13.7480  122.0350 N.3   100  ASN100     -0.1240
     57  CA       -11.8280   12.4880  121.4080 C.3   100  ASN100      0.1653
     58  C        -10.8080   12.0020  120.3790 C.2   100  ASN100      0.2266
     59  O        -10.7420   10.8010  120.0960 O.2   100  ASN100     -0.2867
     60  CB       -13.2200   12.6060  120.7730 C.3   100  ASN100      0.1155
     61  CG       -14.2780   13.0550  121.7670 C.2   100  ASN100      0.2627
     62  OD1      -14.0810   12.9750  122.9810 O.2   100  ASN100     -0.2716
     63  ND2      -15.4090   13.5260  121.2560 N.am  100  ASN100     -0.0877
     64  N         -7.9420   11.4750  122.8960 N.3   103  LEU103     -0.1245
     65  CA        -8.3550   10.2090  123.4920 C.3   103  LEU103      0.1561
     66  C         -7.9750    9.0360  122.6020 C.2   103  LEU103      0.2260
     67  O         -7.5420    7.9880  123.0950 O.2   103  LEU103     -0.2867
     68  CB        -9.8620   10.2070  123.7400 C.3   103  LEU103      0.0270
     69  CG       -10.3880   11.1120  124.8480 C.3   103  LEU103      0.0019
     70  CD1      -11.9050   11.0800  124.8840 C.3   103  LEU103      0.0001
     71  CD2       -9.8060   10.6990  126.1900 C.3   103  LEU103      0.0001
     72  N         -4.1930    8.5030  122.6650 N.3   106  LEU106     -0.1231
     73  CA        -3.8740    7.9000  123.9550 C.3   106  LEU106      0.1693
     74  C         -4.2080    6.4100  123.9710 C.2   106  LEU106      0.2591
     75  O         -3.3610    5.5690  124.3140 O.2   106  LEU106     -0.2718
     76  CB        -4.6280    8.6460  125.0570 C.3   106  LEU106      0.0284
     77  CG        -4.6990    8.0770  126.4680 C.3   106  LEU106      0.0019
     78  CD1       -3.3180    7.7630  126.9960 C.3   106  LEU106      0.0001
     79  CD2       -5.3940    9.0820  127.3650 C.3   106  LEU106      0.0001
     80  N         -5.4430    6.0620  123.5920 N.am  107  GLU107     -0.1979
     81  CA        -5.8520    4.6620  123.6090 C.3   107  GLU107      0.1602
     82  C         -5.0220    3.8240  122.6470 C.2   107  GLU107      0.2287
     83  O         -4.7360    2.6570  122.9340 O.2   107  GLU107     -0.2864
     84  CB        -7.3420    4.5340  123.2800 C.3   107  GLU107      0.0415
     85  CG        -7.6740    4.6860  121.8070 C.3   107  GLU107      0.1163
     86  CD        -9.1100    4.3550  121.4910 C.2   107  GLU107      0.3649
     87  OE1       -9.7900    3.7770  122.3550 O.co2 107  GLU107     -0.2457
     88  OE2       -9.5620    4.6750  120.3780 O.co2 107  GLU107     -0.2457
     89  N         -1.6860    3.1140  124.6740 N.3   110  LEU110     -0.1231
     90  CA        -1.8450    2.0650  125.6780 C.3   110  LEU110      0.1693
     91  C         -2.0810    0.7060  125.0200 C.2   110  LEU110      0.2591
     92  O         -1.3310   -0.2600  125.2460 O.2   110  LEU110     -0.2718
     93  CB        -2.9990    2.4360  126.6130 C.3   110  LEU110      0.0284
     94  CG        -2.9150    3.8490  127.2000 C.3   110  LEU110      0.0019
     95  CD1       -4.2320    4.2630  127.8350 C.3   110  LEU110      0.0001
     96  CD2       -1.7850    3.9430  128.2120 C.3   110  LEU110      0.0001
     97  N         -3.1300    0.6170  124.1930 N.am  111  MET111     -0.1979
     98  CA        -3.3570   -0.5830  123.3960 C.3   111  MET111      0.1605
     99  C         -2.1400   -0.9220  122.5510 C.2   111  MET111      0.2287
    100  O         -1.9170   -2.0930  122.2290 O.2   111  MET111     -0.2864
    101  CB        -4.5840   -0.4030  122.5000 C.3   111  MET111      0.0413
    102  CG        -5.8930   -0.2160  123.2460 C.3   111  MET111      0.0598
    103  SD        -6.4230   -1.6870  124.1320 S.3   111  MET111     -0.1393
    104  CE        -6.5890   -2.8510  122.7790 C.3   111  MET111      0.0692
@<TRIPOS>BOND
     1    26    25    2
     2    25    24    1
     3    28    27    1
     4    24    27    1
     5    24    23    1
     6    22    21    2
     7    27    29    1
     8    21    23   am
     9    21    20    1
    10    59    58    2
    11    88    86   ar
    12    58    57    1
    13    20    19    1
    14    60    57    1
    15    60    61    1
    16    19    14   am
    17    63    61   am
    18    57    56    1
    19    86    85    1
    20    86    87   ar
    21     8    10   ar
    22     8     6   ar
    23    61    62    2
    24    85    84    1
    25    12    13    1
    26    10    11   ar
    27     5     6    1
    28     5     2    1
    29   100    99    2
    30     6     7   ar
    31    14    13    1
    32    14    15    2
    33   101   102    1
    34   101    98    1
    35    99    98    1
    36    66    67    2
    37    66    65    1
    38    82    83    2
    39    82    81    1
    40    72    73    1
    41   104   103    1
    42    64    65    1
    43    13    16    1
    44    11     9   ar
    45     3     2    1
    46     3     4    2
    47   102   103    1
    48    84    81    1
    49     2     1    1
    50    16    17    1
    51    16    18    1
    52    98    97    1
    53     7     9   ar
    54    65    68    1
    55    80    81    1
    56    80    74   am
    57    68    69    1
    58    73    74    1
    59    73    76    1
    60    74    75    2
    61    97    91   am
    62    89    90    1
    63    69    70    1
    64    69    71    1
    65    91    92    2
    66    91    90    1
    67    76    77    1
    68    39    37   ar
    69    39    40   ar
    70    37    35   ar
    71    41    40    1
    72    90    93    1
    73    40    38   ar
    74    77    78    1
    75    77    79    1
    76    30    31    1
    77    93    94    1
    78    35    34    1
    79    35    36   ar
    80    94    95    1
    81    94    96    1
    82    34    31    1
    83    38    36   ar
    84    33    32    2
    85    31    32    1
    86    32    42   am
    87    44    45    2
    88    44    43    1
    89    42    43    1
    90    55    54   ar
    91    55    53   ar
    92    54    52   ar
    93    43    46    1
    94    53    51   ar
    95    52    49   ar
    96    51    49   ar
    97    51    50   ar
    98    49    47   ar
    99    50    48   ar
   100    47    48   ar
   101    47    46    1
