@<TRIPOS>MOLECULE
tmp/5l8rE23.pdb
 118 116 0 0 0
SMALL
GASTEIGER

@<TRIPOS>ATOM
      1  N        -37.4360    3.7980   82.7010 N.3   268  PHE268     -0.1241
      2  CA       -37.0780    3.2090   81.4170 C.3   268  PHE268      0.1605
      3  C        -37.3530    4.1880   80.2770 C.2   268  PHE268      0.2264
      4  O        -37.6730    3.7790   79.1600 O.2   268  PHE268     -0.2867
      5  CB       -37.8340    1.8950   81.2030 C.3   268  PHE268      0.0534
      6  CG       -37.1640    0.9450   80.2390 C.ar  268  PHE268     -0.0203
      7  CD1      -36.1440    0.1090   80.6650 C.ar  268  PHE268     -0.0042
      8  CD2      -37.5700    0.8730   78.9160 C.ar  268  PHE268     -0.0042
      9  CE1      -35.5320   -0.7670   79.7830 C.ar  268  PHE268     -0.0003
     10  CE2      -36.9590    0.0040   78.0300 C.ar  268  PHE268     -0.0003
     11  CZ       -35.9410   -0.8200   78.4660 C.ar  268  PHE268     -0.0000
     12  N        -21.0180    3.0980   71.7680 N.3   360  HIS360     -0.1241
     13  CA       -22.1730    3.3270   72.6270 C.3   360  HIS360      0.1621
     14  C        -22.0670    4.6340   73.4010 C.2   360  HIS360      0.2264
     15  O        -23.0970    5.2300   73.7390 O.2   360  HIS360     -0.2867
     16  CB       -22.3550    2.1480   73.5780 C.3   360  HIS360      0.0745
     17  CG       -22.7980    0.8940   72.8950 C.ar  360  HIS360      0.0817
     18  ND1      -23.1740   -0.2390   73.5850 N.ar  360  HIS360     -0.2268
     19  CD2      -22.9280    0.5960   71.5810 C.ar  360  HIS360      0.1154
     20  CE1      -23.5180   -1.1800   72.7250 C.ar  360  HIS360      0.1986
     21  NE2      -23.3740   -0.7010   71.5030 N.ar  360  HIS360     -0.2212
     22  N        -24.9750    7.3170   72.8280 N.3   364  MET364     -0.1245
     23  CA       -25.7740    7.3890   74.0520 C.3   364  MET364      0.1570
     24  C        -24.9190    8.0530   75.1170 C.2   364  MET364      0.2261
     25  O        -24.3980    7.3880   76.0220 O.2   364  MET364     -0.2867
     26  CB       -26.2310    6.0000   74.5070 C.3   364  MET364      0.0387
     27  CG       -27.1710    5.2750   73.5560 C.3   364  MET364      0.0595
     28  SD       -27.1030    3.4750   73.7230 S.3   364  MET364     -0.1393
     29  CE       -28.5380    3.0270   72.7700 C.3   364  MET364      0.0692
     30  N        -33.3440    0.4410   57.3420 N.3   476  TRP476     -0.1227
     31  CA       -34.4790   -0.2930   57.8950 C.3   476  TRP476      0.1737
     32  C        -34.2880   -0.5570   59.3840 C.2   476  TRP476      0.2595
     33  O        -35.2420   -0.4810   60.1710 O.2   476  TRP476     -0.2718
     34  CB       -34.6620   -1.6050   57.1350 C.3   476  TRP476      0.0564
     35  CG       -35.8910   -2.3590   57.5210 C.ar  476  TRP476      0.0003
     36  CD1      -37.0940   -2.3430   56.8800 C.ar  476  TRP476      0.0946
     37  CD2      -36.0420   -3.2440   58.6380 C.ar  476  TRP476      0.0152
     38  NE1      -37.9860   -3.1640   57.5270 N.ar  476  TRP476     -0.2442
     39  CE2      -37.3650   -3.7270   58.6110 C.ar  476  TRP476      0.0810
     40  CE3      -35.1890   -3.6740   59.6570 C.ar  476  TRP476      0.0012
     41  CZ2      -37.8540   -4.6180   59.5640 C.ar  476  TRP476      0.0191
     42  CZ3      -35.6770   -4.5560   60.6010 C.ar  476  TRP476      0.0001
     43  CH2      -36.9950   -5.0190   60.5490 C.ar  476  TRP476      0.0015
     44  N        -33.0550   -0.8590   59.7900 N.am  477  ILE477     -0.1980
     45  CA       -32.7910   -1.1410   61.1960 C.3   477  ILE477      0.1595
     46  C        -33.0560    0.0960   62.0490 C.2   477  ILE477      0.2287
     47  O        -33.8190    0.0450   63.0240 O.2   477  ILE477     -0.2864
     48  CB       -31.3560   -1.6660   61.3720 C.3   477  ILE477      0.0276
     49  CG1      -31.2690   -3.1140   60.8820 C.3   477  ILE477      0.0022
     50  CG2      -30.9290   -1.5750   62.8110 C.3   477  ILE477      0.0022
     51  CD1      -29.9260   -3.7690   61.1320 C.3   477  ILE477      0.0001
     52  N        -36.5620    0.7190   62.5310 N.3   480  THR480     -0.1203
     53  CA       -37.1830   -0.1730   63.5080 C.3   480  THR480      0.1994
     54  C        -36.8930    0.2720   64.9380 C.2   480  THR480      0.2617
     55  O        -37.7710    0.2020   65.8090 O.2   480  THR480     -0.2717
     56  CB       -36.7090   -1.6080   63.2850 C.3   480  THR480      0.1784
     57  OG1      -37.0440   -2.0160   61.9540 O.3   480  THR480     -0.2211
     58  CG2      -37.3770   -2.5500   64.2750 C.3   480  THR480      0.0376
     59  N        -35.6670    0.7380   65.2030 N.am  481  HIS481     -0.1975
     60  CA       -35.3780    1.3220   66.5110 C.3   481  HIS481      0.1656
     61  C        -36.2300    2.5580   66.7640 C.2   481  HIS481      0.2291
     62  O        -36.7040    2.7760   67.8860 O.2   481  HIS481     -0.2864
     63  CB       -33.9040    1.6930   66.6230 C.3   481  HIS481      0.0771
     64  CG       -32.9690    0.5390   66.4670 C.ar  481  HIS481      0.0820
     65  ND1      -32.7730   -0.3990   67.4570 N.ar  481  HIS481     -0.2267
     66  CD2      -32.1560    0.1840   65.4460 C.ar  481  HIS481      0.1154
     67  CE1      -31.8850   -1.2850   67.0460 C.ar  481  HIS481      0.1986
     68  NE2      -31.4980   -0.9570   65.8290 N.ar  481  HIS481     -0.2212
     69  N        -39.5360    1.4260   67.8110 N.3   484  ALA484     -0.1231
     70  CA       -39.5680    0.5170   68.9570 C.3   484  ALA484      0.1679
     71  C        -40.3220    1.0610   70.1670 C.2   484  ALA484      0.2434
     72  O        -41.1730    0.3310   70.7050 O.2   484  ALA484     -0.2733
     73  CB       -38.1360    0.1260   69.3340 C.3   484  ALA484      0.0304
     74  N        -40.0720    2.2800   70.6600 N.am  485  PRO485     -0.2729
     75  CA       -40.7350    2.7050   71.9010 C.3   485  PRO485      0.1401
     76  C        -42.2450    2.7620   71.7280 C.2   485  PRO485      0.2269
     77  O        -42.7550    3.2840   70.7350 O.2   485  PRO485     -0.2865
     78  CB       -40.1400    4.0920   72.1660 C.3   485  PRO485      0.0296
     79  CG       -39.7240    4.5760   70.8350 C.3   485  PRO485      0.0237
     80  CD       -39.2290    3.3600   70.1140 C.3   485  PRO485      0.0939
     81  N        -42.5690   -2.3680   70.2550 N.3   488  THR488     -0.1203
     82  CA       -41.7670   -3.4850   70.7380 C.3   488  THR488      0.1994
     83  C        -40.9830   -3.1450   71.9980 C.2   488  THR488      0.2617
     84  O        -40.1820   -3.9650   72.4520 O.2   488  THR488     -0.2717
     85  CB       -40.8080   -3.9610   69.6460 C.3   488  THR488      0.1784
     86  OG1      -39.8520   -2.9300   69.3620 O.3   488  THR488     -0.2211
     87  CG2      -41.5810   -4.2950   68.3820 C.3   488  THR488      0.0376
     88  N        -41.1720   -1.9510   72.5570 N.am  489  ALA489     -0.1979
     89  CA       -40.6760   -1.6210   73.8930 C.3   489  ALA489      0.1597
     90  C        -41.6540   -0.6450   74.5310 C.2   489  ALA489      0.2287
     91  O        -41.3440    0.5360   74.7320 O.2   489  ALA489     -0.2864
     92  CB       -39.2670   -1.0370   73.8280 C.3   489  ALA489      0.0319
     93  N        -40.4600    1.7360   77.0420 N.3   492  ALA492     -0.1245
     94  CA       -39.5460    2.7840   76.6050 C.3   492  ALA492      0.1562
     95  C        -40.3430    4.0030   76.1600 C.2   492  ALA492      0.2260
     96  O        -41.2020    3.9020   75.2770 O.2   492  ALA492     -0.2867
     97  CB       -38.6550    2.2790   75.4720 C.3   492  ALA492      0.0290
     98  N        -34.2360    4.4450   71.6090 N.3   496  THR496     -0.1218
     99  CA       -33.0710    3.9550   72.3380 C.3   496  THR496      0.1862
    100  C        -31.9100    4.9380   72.2680 C.2   496  THR496      0.2287
    101  O        -31.1430    5.0700   73.2290 O.2   496  THR496     -0.2866
    102  CB       -32.6520    2.6010   71.7710 C.3   496  THR496      0.1770
    103  OG1      -33.8260    1.8440   71.4550 O.3   496  THR496     -0.2211
    104  CG2      -31.8170    1.8300   72.7750 C.3   496  THR496      0.0375
    105  N        -31.3610    7.0360   66.1420 N.3   500  TRP500     -0.1241
    106  CA       -32.4550    6.3020   65.5190 C.3   500  TRP500      0.1605
    107  C        -33.6310    7.2270   65.2260 C.2   500  TRP500      0.2264
    108  O        -33.8520    7.6270   64.0780 O.2   500  TRP500     -0.2867
    109  CB       -32.9540    5.1560   66.4070 C.3   500  TRP500      0.0550
    110  CG       -31.9350    4.3110   67.1230 C.ar  500  TRP500      0.0003
    111  CD1      -31.8010    4.1690   68.4740 C.ar  500  TRP500      0.0946
    112  CD2      -30.9580    3.4430   66.5340 C.ar  500  TRP500      0.0152
    113  NE1      -30.7890    3.2850   68.7640 N.ar  500  TRP500     -0.2442
    114  CE2      -30.2550    2.8260   67.5900 C.ar  500  TRP500      0.0810
    115  CE3      -30.6000    3.1380   65.2210 C.ar  500  TRP500      0.0012
    116  CZ2      -29.2160    1.9230   67.3690 C.ar  500  TRP500      0.0191
    117  CZ3      -29.5690    2.2390   65.0030 C.ar  500  TRP500      0.0001
    118  CH2      -28.8910    1.6410   66.0720 C.ar  500  TRP500      0.0015
@<TRIPOS>BOND
     1    36    35   ar
     2    36    38   ar
     3    34    35    1
     4    34    31    1
     5    30    31    1
     6    35    37   ar
     7    38    39   ar
     8    31    32    1
     9    39    37   ar
    10    39    41   ar
    11    37    40   ar
    12    32    44   am
    13    32    33    2
    14    41    43   ar
    15    40    42   ar
    16    44    45    1
    17    43    42   ar
    18    49    51    1
    19    49    48    1
    20    45    48    1
    21    45    46    1
    22    48    50    1
    23    57    56    1
    24    46    47    2
    25    52    53    1
    26    56    53    1
    27    56    58    1
    28    53    54    1
    29   108   107    2
    30    54    59   am
    31    54    55    2
    32   117   115   ar
    33   117   118   ar
    34    59    60    1
    35   115   112   ar
    36   107   106    1
    37    66    68   ar
    38    66    64   ar
    39   106   105    1
    40   106   109    1
    41    68    67   ar
    42   118   116   ar
    43   109   110    1
    44    64    63    1
    45    64    65   ar
    46    60    63    1
    47    60    61    1
    48   112   110   ar
    49   112   114   ar
    50    61    62    2
    51    67    65   ar
    52   110   111   ar
    53   116   114   ar
    54   114   113   ar
    55    69    70    1
    56    87    85    1
    57   111   113   ar
    58    70    73    1
    59    70    71    1
    60    86    85    1
    61    85    82    1
    62    80    74    1
    63    80    79    1
    64    71    74   am
    65    71    72    2
    66    81    82    1
    67    74    75    1
    68    77    76    2
    69    82    83    1
    70    79    78    1
    71   103   102    1
    72    21    19   ar
    73    21    20   ar
    74    19    17   ar
    75    98    99    1
    76    76    75    1
    77    12    13    1
    78   102    99    1
    79   102   104    1
    80    75    78    1
    81    83    84    2
    82    83    88   am
    83   100    99    1
    84   100   101    2
    85    88    89    1
    86    13    14    1
    87    13    16    1
    88    20    18   ar
    89    29    28    1
    90    22    23    1
    91    17    16    1
    92    17    18   ar
    93    14    15    2
    94    27    28    1
    95    27    26    1
    96    92    89    1
    97    89    90    1
    98    23    26    1
    99    23    24    1
   100    90    91    2
   101    24    25    2
   102    96    95    2
   103    97    94    1
   104    95    94    1
   105    94    93    1
   106    10    11   ar
   107    10     8   ar
   108    11     9   ar
   109     8     6   ar
   110     4     3    2
   111     9     7   ar
   112     6     7   ar
   113     6     5    1
   114     3     2    1
   115     5     2    1
   116     2     1    1
