@<TRIPOS>MOLECULE
tmp/5l8rB02.pdb
 199 195 0 0 0
SMALL
GASTEIGER

@<TRIPOS>ATOM
      1  N         29.6820    8.1220  112.7220 N.3    47  GLN47      -0.1245
      2  CA        30.1540    9.5050  112.7480 C.3    47  GLN47       0.1566
      3  C         29.0100   10.4850  112.4970 C.2    47  GLN47       0.2260
      4  O         28.8830   11.5010  113.1990 O.2    47  GLN47      -0.2867
      5  CB        31.2730    9.7030  111.7280 C.3    47  GLN47       0.0367
      6  CG        32.5230    8.9110  112.0520 C.3    47  GLN47       0.0905
      7  CD        32.9390    9.0590  113.5020 C.2    47  GLN47       0.2608
      8  OE1       32.9700   10.1650  114.0410 O.2    47  GLN47      -0.2717
      9  NE2       33.2540    7.9400  114.1440 N.am   47  GLN47      -0.0878
     10  N         27.7020   13.5160  115.0310 N.3    51  VAL51      -0.1245
     11  CA        27.7450   14.9460  114.7280 C.3    51  VAL51       0.1561
     12  C         26.3430   15.5520  114.7750 C.2    51  VAL51       0.2260
     13  O         26.1280   16.6090  115.3800 O.2    51  VAL51      -0.2867
     14  CB        28.4290   15.1820  113.3690 C.3    51  VAL51       0.0252
     15  CG1       28.1900   16.5920  112.8890 C.3    51  VAL51       0.0019
     16  CG2       29.9200   14.9250  113.4860 C.3    51  VAL51       0.0019
     17  N         25.3700   16.0430  118.3920 N.3    54  ARG54      -0.1231
     18  CA        25.9820   17.1790  119.0740 C.3    54  ARG54       0.1694
     19  C         25.3900   18.5010  118.5910 C.2    54  ARG54       0.2592
     20  O         25.0120   19.3610  119.4030 O.2    54  ARG54      -0.2718
     21  CB        27.4960   17.1310  118.8760 C.3    54  ARG54       0.0321
     22  CG        28.1380   15.9500  119.5900 C.3    54  ARG54       0.0489
     23  CD        29.4830   15.5630  119.0020 C.3    54  ARG54       0.2205
     24  NE        30.1260   14.5150  119.7940 N.pl3  54  ARG54      -0.0865
     25  CZ        31.2990   13.9560  119.5060 C.cat  54  ARG54       0.5346
     26  NH1       31.9770   14.3370  118.4330 N.pl3  54  ARG54       0.1354
     27  NH2       31.7950   13.0090  120.2940 N.pl3  54  ARG54       0.1354
     28  N         25.2870   18.6740  117.2680 N.am   55  TRP55      -0.1976
     29  CA        24.6440   19.8700  116.7290 C.3    55  TRP55       0.1640
     30  C         23.2240   20.0170  117.2510 C.2    55  TRP55       0.2290
     31  O         22.7790   21.1280  117.5550 O.2    55  TRP55      -0.2864
     32  CB        24.6240   19.8310  115.2040 C.3    55  TRP55       0.0576
     33  CG        25.9220   20.1530  114.5540 C.ar   55  TRP55       0.0006
     34  CD1       26.5850   19.3930  113.6400 C.ar   55  TRP55       0.0946
     35  CD2       26.7170   21.3280  114.7520 C.ar   55  TRP55       0.0152
     36  NE1       27.7480   20.0140  113.2570 N.ar   55  TRP55      -0.2442
     37  CE2       27.8510   21.2070  113.9240 C.ar   55  TRP55       0.0810
     38  CE3       26.5830   22.4700  115.5490 C.ar   55  TRP55       0.0012
     39  CZ2       28.8440   22.1800  113.8730 C.ar   55  TRP55       0.0191
     40  CZ3       27.5690   23.4330  115.4960 C.ar   55  TRP55       0.0001
     41  CH2       28.6850   23.2830  114.6640 C.ar   55  TRP55       0.0015
     42  N         23.3320   21.2850  120.9470 N.3    58  LEU58      -0.1245
     43  CA        23.5670   22.7260  120.9580 C.3    58  LEU58       0.1561
     44  C         22.3370   23.4860  120.4740 C.2    58  LEU58       0.2260
     45  O         21.9850   24.5370  121.0250 O.2    58  LEU58      -0.2867
     46  CB        24.7800   23.0660  120.0930 C.3    58  LEU58       0.0270
     47  CG        26.1200   22.5140  120.5730 C.3    58  LEU58       0.0019
     48  CD1       27.1930   22.7520  119.5250 C.3    58  LEU58       0.0001
     49  CD2       26.5080   23.1480  121.8960 C.3    58  LEU58       0.0001
     50  N         35.9020   28.9760  108.3840 N.3   102  PHE102     -0.1227
     51  CA        36.4110   28.3830  109.6210 C.3   102  PHE102      0.1736
     52  C         35.8350   26.9850  109.8490 C.2   102  PHE102      0.2595
     53  O         36.5790   26.0150  110.0790 O.2   102  PHE102     -0.2718
     54  CB        36.1020   29.3050  110.8010 C.3   102  PHE102      0.0547
     55  CG        36.8380   30.6220  110.7540 C.ar  102  PHE102     -0.0202
     56  CD1       38.1280   30.7340  111.2520 C.ar  102  PHE102     -0.0042
     57  CD2       36.2400   31.7480  110.2140 C.ar  102  PHE102     -0.0042
     58  CE1       38.8050   31.9420  111.2110 C.ar  102  PHE102     -0.0003
     59  CE2       36.9140   32.9590  110.1700 C.ar  102  PHE102     -0.0003
     60  CZ        38.1950   33.0550  110.6700 C.ar  102  PHE102     -0.0000
     61  N         34.5050   26.8640  109.7870 N.am  103  ILE103     -0.1980
     62  CA        33.8600   25.5560  109.8680 C.3   103  ILE103      0.1595
     63  C         34.3740   24.6370  108.7700 C.2   103  ILE103      0.2287
     64  O         34.5050   23.4260  108.9760 O.2   103  ILE103     -0.2864
     65  CB        32.3270   25.7140  109.8060 C.3   103  ILE103      0.0276
     66  CG1       31.8230   26.5370  110.9900 C.3   103  ILE103      0.0022
     67  CG2       31.6410   24.3570  109.7910 C.3   103  ILE103      0.0022
     68  CD1       31.9900   25.8520  112.3170 C.3   103  ILE103      0.0001
     69  N         37.4190   24.5730  107.6660 N.3   105  TRP105     -0.1227
     70  CA        38.6810   24.0520  108.1830 C.3   105  TRP105      0.1737
     71  C         38.4350   22.9060  109.1540 C.2   105  TRP105      0.2595
     72  O         38.9670   21.7980  108.9810 O.2   105  TRP105     -0.2718
     73  CB        39.4680   25.1700  108.8650 C.3   105  TRP105      0.0564
     74  CG        40.8010   24.7360  109.3840 C.ar  105  TRP105      0.0003
     75  CD1       41.0810   24.2230  110.6220 C.ar  105  TRP105      0.0946
     76  CD2       42.0440   24.7860  108.6820 C.ar  105  TRP105      0.0152
     77  NE1       42.4240   23.9490  110.7280 N.ar  105  TRP105     -0.2442
     78  CE2       43.0360   24.2860  109.5500 C.ar  105  TRP105      0.0810
     79  CE3       42.4150   25.2060  107.4010 C.ar  105  TRP105      0.0012
     80  CZ2       44.3700   24.1940  109.1760 C.ar  105  TRP105      0.0191
     81  CZ3       43.7360   25.1150  107.0340 C.ar  105  TRP105      0.0001
     82  CH2       44.6970   24.6100  107.9160 C.ar  105  TRP105      0.0015
     83  N         37.6210   23.1550  110.1860 N.am  106  ALA106     -0.1966
     84  CA        37.3620   22.1230  111.1900 C.3   106  ALA106      0.1728
     85  C         36.8110   20.8490  110.5530 C.2   106  ALA106      0.2616
     86  O         37.3520   19.7510  110.7480 O.2   106  ALA106     -0.2715
     87  CB        36.3960   22.6570  112.2480 C.3   106  ALA106      0.0334
     88  N         35.7330   20.9840  109.7770 N.am  107  GLU107     -0.1977
     89  CA        35.1240   19.8360  109.1170 C.3   107  GLU107      0.1602
     90  C         36.0890   19.1620  108.1510 C.2   107  GLU107      0.2287
     91  O         36.0190   17.9440  107.9570 O.2   107  GLU107     -0.2864
     92  CB        33.8570   20.2740  108.3810 C.3   107  GLU107      0.0415
     93  CG        32.6940   20.6290  109.2930 C.3   107  GLU107      0.1163
     94  CD        32.0620   19.4100  109.9380 C.2   107  GLU107      0.3649
     95  OE1       31.7650   18.4450  109.2070 O.co2 107  GLU107     -0.2457
     96  OE2       31.8710   19.4080  111.1750 O.co2 107  GLU107     -0.2457
     97  N         39.4160   18.8740  108.5290 N.3   109  ARG109     -0.1231
     98  CA        40.3320   18.0280  109.2860 C.3   109  ARG109      0.1694
     99  C         39.6130   16.8160  109.8740 C.2   109  ARG109      0.2591
    100  O         40.1520   15.7000  109.8540 O.2   109  ARG109     -0.2718
    101  CB        41.0340   18.8480  110.3710 C.3   109  ARG109      0.0321
    102  CG        42.0330   19.8440  109.7960 C.3   109  ARG109      0.0489
    103  CD        42.9190   20.4460  110.8570 C.3   109  ARG109      0.2205
    104  NE        43.8460   19.4740  111.4340 N.pl3 109  ARG109     -0.0865
    105  CZ        45.1160   19.3310  111.0620 C.cat 109  ARG109      0.5346
    106  NH1       45.6240   20.0940  110.1050 N.pl3 109  ARG109      0.1354
    107  NH2       45.8840   18.4230  111.6500 N.pl3 109  ARG109      0.1354
    108  N         38.3930   17.0060  110.3910 N.am  110  ARG110     -0.1980
    109  CA        37.5930   15.8600  110.8250 C.3   110  ARG110      0.1597
    110  C         37.4070   14.8640  109.6850 C.2   110  ARG110      0.2287
    111  O         37.4680   13.6420  109.8850 O.2   110  ARG110     -0.2864
    112  CB        36.2400   16.3450  111.3470 C.3   110  ARG110      0.0334
    113  CG        35.3500   15.2540  111.9140 C.3   110  ARG110      0.0492
    114  CD        34.0530   15.8370  112.4530 C.3   110  ARG110      0.2205
    115  NE        33.2000   16.3390  111.3810 N.pl3 110  ARG110     -0.0865
    116  CZ        32.2720   15.6090  110.7730 C.cat 110  ARG110      0.5346
    117  NH1       32.0810   14.3480  111.1370 N.pl3 110  ARG110      0.1354
    118  NH2       31.5370   16.1350  109.8000 N.pl3 110  ARG110      0.1354
    119  N         40.3230   12.8440  109.1820 N.3   113  ASP113     -0.1239
    120  CA        40.4010   11.8440  110.2420 C.3   113  ASP113      0.1674
    121  C         39.5480   10.6230  109.9170 C.2   113  ASP113      0.2266
    122  O         40.0020    9.4830  110.0670 O.2   113  ASP113     -0.2867
    123  CB        39.9840   12.4470  111.5810 C.3   113  ASP113      0.1410
    124  CG        40.0640   11.4470  112.7160 C.2   113  ASP113      0.3668
    125  OD1       41.1910   11.1050  113.1330 O.co2 113  ASP113     -0.2456
    126  OD2       39.0000   11.0020  113.1940 O.co2 113  ASP113     -0.2456
    127  N         45.7320   13.3130  111.3940 N.3   120  VAL120     -0.1231
    128  CA        45.3480   14.7090  111.5260 C.3   120  VAL120      0.1692
    129  C         45.5490   15.2280  112.9490 C.2   120  VAL120      0.2592
    130  O         45.1100   16.3330  113.2740 O.2   120  VAL120     -0.2718
    131  CB        43.8930   14.9040  111.0510 C.3   120  VAL120      0.0266
    132  CG1       42.9150   14.4860  112.1340 C.3   120  VAL120      0.0020
    133  CG2       43.6400   16.3170  110.5590 C.3   120  VAL120      0.0020
    134  N         46.2440   14.4680  113.7970 N.am  121  ASN121     -0.1974
    135  CA        46.3250   14.7680  115.2220 C.3   121  ASN121      0.1688
    136  C         47.3460   15.8440  115.5750 C.2   121  ASN121      0.2292
    137  O         47.3090   16.3550  116.7000 O.2   121  ASN121     -0.2864
    138  CB        46.6500   13.4940  116.0110 C.3   121  ASN121      0.1181
    139  CG        45.4620   12.5550  116.1230 C.2   121  ASN121      0.2629
    140  OD1       44.3120   12.9890  116.1610 O.2   121  ASN121     -0.2716
    141  ND2       45.7380   11.2580  116.1800 N.am  121  ASN121     -0.0877
    142  N         49.6220   21.7550  112.7250 N.3   124  PRO124     -0.2116
    143  CA        50.5270   22.0230  111.5990 C.3   124  PRO124      0.1372
    144  C         51.4620   23.1970  111.8220 C.2   124  PRO124      0.2244
    145  O         52.2840   23.4800  110.9440 O.2   124  PRO124     -0.2868
    146  CB        49.5610   22.3060  110.4440 C.3   124  PRO124      0.0268
    147  CG        48.3510   22.8430  111.1110 C.3   124  PRO124      0.0207
    148  CD        48.2280   22.0850  112.3970 C.3   124  PRO124      0.0892
    149  N         46.9060   15.6480  119.8000 N.3   131  LEU131     -0.1245
    150  CA        45.6150   15.2060  120.3110 C.3   131  LEU131      0.1561
    151  C         45.7270   13.7790  120.8280 C.2   131  LEU131      0.2260
    152  O         46.4490   12.9580  120.2530 O.2   131  LEU131     -0.2867
    153  CB        44.5320   15.2820  119.2320 C.3   131  LEU131      0.0270
    154  CG        44.1510   16.6860  118.7570 C.3   131  LEU131      0.0019
    155  CD1       43.1860   16.6220  117.5870 C.3   131  LEU131      0.0001
    156  CD2       43.5450   17.4820  119.8980 C.3   131  LEU131      0.0001
    157  N         35.8220   10.2180  116.1140 N.3   137  GLY137     -0.1225
    158  CA        34.6500   10.8320  116.6920 C.3   137  GLY137      0.1811
    159  C         34.8190   11.2990  118.1200 C.2   137  GLY137      0.2280
    160  O         33.9210   11.9690  118.6480 O.2   137  GLY137     -0.2866
    161  N         37.8980   13.0780  119.6690 N.3   139  PRO139     -0.2116
    162  CA        39.2780   13.5040  119.3770 C.3   139  PRO139      0.1372
    163  C         40.1530   13.6720  120.6040 C.2   139  PRO139      0.2244
    164  O         41.3770   13.5210  120.4940 O.2   139  PRO139     -0.2868
    165  CB        39.0850   14.8430  118.6500 C.3   139  PRO139      0.0268
    166  CG        37.6540   14.8500  118.2100 C.3   139  PRO139      0.0207
    167  CD        36.9100   14.0810  119.2440 C.3   139  PRO139      0.0892
    168  N         42.1200   20.6220  123.7610 N.3   143  TRP143     -0.1227
    169  CA        41.0400   21.4450  123.2270 C.3   143  TRP143      0.1737
    170  C         39.6820   20.7860  123.4270 C.2   143  TRP143      0.2595
    171  O         38.7430   21.4140  123.9280 O.2   143  TRP143     -0.2718
    172  CB        41.2780   21.7180  121.7440 C.3   143  TRP143      0.0564
    173  CG        42.2670   22.7920  121.4850 C.ar  143  TRP143      0.0003
    174  CD1       43.1200   23.3580  122.3860 C.ar  143  TRP143      0.0946
    175  CD2       42.5030   23.4470  120.2380 C.ar  143  TRP143      0.0152
    176  NE1       43.8790   24.3250  121.7730 N.ar  143  TRP143     -0.2442
    177  CE2       43.5170   24.4000  120.4540 C.ar  143  TRP143      0.0810
    178  CE3       41.9550   23.3200  118.9580 C.ar  143  TRP143      0.0012
    179  CZ2       43.9930   25.2240  119.4390 C.ar  143  TRP143      0.0191
    180  CZ3       42.4310   24.1350  117.9490 C.ar  143  TRP143      0.0001
    181  CH2       43.4420   25.0750  118.1950 C.ar  143  TRP143      0.0015
    182  N         39.5560   19.5230  123.0290 N.am  144  PHE144     -0.1976
    183  CA        38.2650   18.8540  122.9910 C.3   144  PHE144      0.1639
    184  C         38.0030   17.9760  124.2060 C.2   144  PHE144      0.2290
    185  O         36.8780   17.4890  124.3660 O.2   144  PHE144     -0.2864
    186  CB        38.1530   18.0250  121.7090 C.3   144  PHE144      0.0560
    187  CG        38.4270   18.8180  120.4680 C.ar  144  PHE144     -0.0200
    188  CD1       37.5020   19.7390  120.0060 C.ar  144  PHE144     -0.0042
    189  CD2       39.6170   18.6640  119.7760 C.ar  144  PHE144     -0.0042
    190  CE1       37.7490   20.4810  118.8700 C.ar  144  PHE144     -0.0003
    191  CE2       39.8710   19.4030  118.6390 C.ar  144  PHE144     -0.0003
    192  CZ        38.9350   20.3140  118.1850 C.ar  144  PHE144     -0.0000
    193  N         39.6080   18.8540  127.7430 N.3   146  PRO146     -0.2116
    194  CA        40.5580   19.4280  128.7070 C.3   146  PRO146      0.1372
    195  C         40.4700   18.8000  130.0820 C.2   146  PRO146      0.2244
    196  O         41.5010   18.6610  130.7510 O.2   146  PRO146     -0.2868
    197  CB        40.1690   20.9110  128.7400 C.3   146  PRO146      0.0268
    198  CG        38.7340   20.9190  128.3730 C.3   146  PRO146      0.0207
    199  CD        38.5670   19.8230  127.3600 C.3   146  PRO146      0.0892
@<TRIPOS>BOND
     1    81    79   ar
     2    81    82   ar
     3    79    76   ar
     4    69    70    1
     5    82    80   ar
     6    91    90    2
     7    90    89    1
     8    70    73    1
     9    70    71    1
    10    92    89    1
    11    92    93    1
    12    50    51    1
    13    97    98    1
    14    76    74   ar
    15    76    78   ar
    16    63    64    2
    17    63    62    1
    18    73    74    1
    19    72    71    2
    20    89    88    1
    21    71    83   am
    22    80    78   ar
    23   119   120    1
    24    95    94   ar
    25    98    99    1
    26    98   101    1
    27    93    94    1
    28    74    75   ar
    29    78    77   ar
    30    51    52    1
    31    51    54    1
    32   110   111    2
    33   110   109    1
    34    88    85   am
    35    61    52   am
    36    61    62    1
    37    67    65    1
    38   102   101    1
    39   102   103    1
    40   118   116    1
    41    65    62    1
    42    65    66    1
    43    52    53    2
    44   100    99    2
    45    99   108   am
    46   121   122    2
    47   121   120    1
    48    94    96   ar
    49   106   105    1
    50    59    57   ar
    51    59    60   ar
    52    83    84    1
    53    57    55   ar
    54   120   123    1
    55   108   109    1
    56   146   147    1
    57   146   143    1
    58    85    86    2
    59    85    84    1
    60   133   131    1
    61    75    77   ar
    62    60    58   ar
    63    55    54    1
    64    55    56   ar
    65   116   117    1
    66   116   115    2
    67   109   112    1
    68   103   104    1
    69   145   144    2
    70    66    68    1
    71   131   128    1
    72   131   132    1
    73   105   104    2
    74   105   107    1
    75   147   148    1
    76    84    87    1
    77    58    56   ar
    78   112   113    1
    79   115   114    1
    80   127   128    1
    81   128   129    1
    82   123   124    1
    83   143   144    1
    84   143   142    1
    85     5     6    1
    86     5     2    1
    87   113   114    1
    88     6     7    1
    89   148   142    1
    90     3     2    1
    91     3     4    2
    92   124   125   ar
    93   124   126   ar
    94     1     2    1
    95    15    14    1
    96   129   130    2
    97   129   134   am
    98    36    34   ar
    99    36    37   ar
   100    14    16    1
   101    14    11    1
   102     7     8    2
   103     7     9   am
   104    34    33   ar
   105   134   135    1
   106    39    37   ar
   107    39    41   ar
   108    37    35   ar
   109    33    35   ar
   110    33    32    1
   111    41    40   ar
   112    11    12    1
   113    11    10    1
   114    35    38   ar
   115    12    13    2
   116    32    29    1
   117   135   136    1
   118   135   138    1
   119    40    38   ar
   120   136   137    2
   121   138   139    1
   122   157   158    1
   123   139   140    2
   124   139   141   am
   125   158   159    1
   126    29    30    1
   127    29    28    1
   128    30    31    2
   129    28    19   am
   130   155   154    1
   131   180   181   ar
   132   180   178   ar
   133   159   160    2
   134   192   191   ar
   135   192   190   ar
   136   181   179   ar
   137   166   165    1
   138   166   167    1
   139    17    18    1
   140    26    25    1
   141    19    18    1
   142    19    20    2
   143   191   189   ar
   144   165   162    1
   145   154   153    1
   146   154   156    1
   147   190   188   ar
   148    21    18    1
   149    21    22    1
   150   178   175   ar
   151    23    22    1
   152    23    24    1
   153   153   150    1
   154   167   161    1
   155   162   161    1
   156   162   163    1
   157   179   177   ar
   158    25    24    2
   159    25    27    1
   160    48    47    1
   161   189   187   ar
   162   149   150    1
   163   188   187   ar
   164    46    47    1
   165    46    43    1
   166   175   177   ar
   167   175   173   ar
   168   152   151    2
   169   150   151    1
   170   177   176   ar
   171   187   186    1
   172    44    43    1
   173    44    45    2
   174   164   163    2
   175    47    49    1
   176    42    43    1
   177   173   172    1
   178   173   174   ar
   179   186   183    1
   180   172   169    1
   181   176   174   ar
   182   183   182    1
   183   183   184    1
   184   182   170   am
   185   169   170    1
   186   169   168    1
   187   170   171    2
   188   184   185    2
   189   199   193    1
   190   199   198    1
   191   193   194    1
   192   198   197    1
   193   194   197    1
   194   194   195    1
   195   195   196    2
