@<TRIPOS>MOLECULE
tmp/5l8rP02.pdb
 102 99 0 0 0
SMALL
GASTEIGER

@<TRIPOS>ATOM
      1  N        -24.5540  -14.6680   26.1060 N.3    55  PHE55      -0.1227
      2  CA       -25.8700  -14.1850   26.5100 C.3    55  PHE55       0.1736
      3  C        -25.7950  -13.3980   27.8140 C.2    55  PHE55       0.2595
      4  O        -26.4650  -12.3700   27.9670 O.2    55  PHE55      -0.2718
      5  CB       -26.8460  -15.3510   26.6480 C.3    55  PHE55       0.0547
      6  CG       -28.2170  -14.9360   27.0980 C.ar   55  PHE55      -0.0202
      7  CD1      -29.1700  -14.5380   26.1740 C.ar   55  PHE55      -0.0042
      8  CD2      -28.5510  -14.9380   28.4440 C.ar   55  PHE55      -0.0042
      9  CE1      -30.4320  -14.1480   26.5830 C.ar   55  PHE55      -0.0003
     10  CE2      -29.8060  -14.5490   28.8590 C.ar   55  PHE55      -0.0003
     11  CZ       -30.7510  -14.1550   27.9260 C.ar   55  PHE55      -0.0000
     12  N        -24.9850  -13.8660   28.7680 N.am   56  LEU56      -0.1980
     13  CA       -24.9230  -13.2050   30.0700 C.3    56  LEU56       0.1596
     14  C        -24.3100  -11.8090   29.9740 C.2    56  LEU56       0.2287
     15  O        -24.7980  -10.8660   30.6070 O.2    56  LEU56      -0.2864
     16  CB       -24.1300  -14.0650   31.0550 C.3    56  LEU56       0.0297
     17  CG       -23.4670  -13.3040   32.2070 C.3    56  LEU56       0.0022
     18  CD1      -24.4970  -12.7830   33.2020 C.3    56  LEU56       0.0001
     19  CD2      -22.4230  -14.1620   32.8970 C.3    56  LEU56       0.0001
     20  N        -24.3490   -9.3790   28.0570 N.3    58  VAL58      -0.1231
     21  CA       -25.0720   -8.2370   27.4990 C.3    58  VAL58       0.1692
     22  C        -25.6160   -7.3420   28.6060 C.2    58  VAL58       0.2593
     23  O        -25.5950   -6.1090   28.4930 O.2    58  VAL58      -0.2718
     24  CB       -26.1910   -8.7270   26.5620 C.3    58  VAL58       0.0266
     25  CG1      -27.1760   -7.6090   26.2680 C.3    58  VAL58       0.0020
     26  CG2      -25.5940   -9.2610   25.2710 C.3    58  VAL58       0.0020
     27  N        -26.0960   -7.9410   29.6940 N.am   59  GLY59      -0.1943
     28  CA       -26.7350   -7.2080   30.7650 C.3    59  GLY59       0.1998
     29  C        -25.9050   -6.0810   31.3540 C.2    59  GLY59       0.2480
     30  O        -26.2690   -4.9020   31.2700 O.2    59  GLY59      -0.2729
     31  N        -24.7730   -6.4240   31.9770 N.am   60  PRO60      -0.2726
     32  CA       -23.9710   -5.3830   32.6430 C.3    60  PRO60       0.1402
     33  C        -23.4460   -4.3120   31.7020 C.2    60  PRO60       0.2269
     34  O        -23.3950   -3.1370   32.0860 O.2    60  PRO60      -0.2865
     35  CB       -22.8290   -6.1840   33.2830 C.3    60  PRO60       0.0296
     36  CG       -23.3690   -7.5600   33.4350 C.3    60  PRO60       0.0237
     37  CD       -24.2530   -7.7760   32.2460 C.3    60  PRO60       0.0939
     38  N        -24.8170   -3.1070   28.9490 N.3    62  VAL62      -0.1231
     39  CA       -25.8840   -2.2030   28.5370 C.3    62  VAL62       0.1692
     40  C        -26.3840   -1.3830   29.7210 C.2    62  VAL62       0.2592
     41  O        -26.5500   -0.1610   29.6230 O.2    62  VAL62      -0.2718
     42  CB       -27.0230   -3.0000   27.8810 C.3    62  VAL62       0.0266
     43  CG1      -28.2320   -2.1160   27.6600 C.3    62  VAL62       0.0020
     44  CG2      -26.5430   -3.6090   26.5730 C.3    62  VAL62       0.0020
     45  N        -26.6280   -2.0400   30.8590 N.am   63  LYS63      -0.1966
     46  CA       -27.2400   -1.3400   31.9840 C.3    63  LYS63       0.1728
     47  C        -26.2540   -0.4410   32.7220 C.2    63  LYS63       0.2616
     48  O        -26.6580    0.5960   33.2580 O.2    63  LYS63      -0.2715
     49  CB       -27.8670   -2.3390   32.9600 C.3    63  LYS63       0.0311
     50  CG       -28.5110   -1.6770   34.1780 C.3    63  LYS63       0.0038
     51  CD       -29.3160   -2.6540   35.0210 C.3    63  LYS63       0.0206
     52  CE       -29.8740   -1.9730   36.2660 C.3    63  LYS63       0.1093
     53  NZ       -30.6930   -2.9030   37.0940 N.3    63  LYS63      -0.1314
     54  N        -24.9720   -0.8010   32.7560 N.am   64  ALA64      -0.1977
     55  CA       -23.9870   -0.0260   33.4970 C.3    64  ALA64       0.1597
     56  C        -23.1090    0.8530   32.6130 C.2    64  ALA64       0.2287
     57  O        -22.4150    1.7280   33.1400 O.2    64  ALA64      -0.2864
     58  CB       -23.0980   -0.9580   34.3310 C.3    64  ALA64       0.0319
     59  N        -29.4150  -12.2030   23.0790 N.3   147  ALA147     -0.1245
     60  CA       -29.8200  -11.3210   24.1700 C.3   147  ALA147      0.1562
     61  C        -30.2330   -9.9510   23.6440 C.2   147  ALA147      0.2260
     62  O        -31.2250   -9.3760   24.1060 O.2   147  ALA147     -0.2867
     63  CB       -28.6910  -11.1870   25.1910 C.3   147  ALA147      0.0290
     64  N        -33.7860   -9.4630   22.3140 N.3   150  LEU150     -0.1245
     65  CA       -34.8660   -9.3020   23.2840 C.3   150  LEU150      0.1561
     66  C        -34.6540   -7.9940   24.0450 C.2   150  LEU150      0.2260
     67  O        -33.8080   -7.9110   24.9400 O.2   150  LEU150     -0.2867
     68  CB       -34.9220  -10.4970   24.2300 C.3   150  LEU150      0.0270
     69  CG       -34.9820  -11.8750   23.5630 C.3   150  LEU150      0.0019
     70  CD1      -35.0830  -12.9690   24.6100 C.3   150  LEU150      0.0001
     71  CD2      -36.1410  -11.9640   22.5760 C.3   150  LEU150      0.0001
     72  N        -39.4510   -6.6730   29.7680 N.3   154  LEU154     -0.1231
     73  CA       -38.5510   -7.1440   30.8110 C.3   154  LEU154      0.1693
     74  C        -38.3840   -6.0280   31.8290 C.2   154  LEU154      0.2592
     75  O        -38.1690   -4.8720   31.4530 O.2   154  LEU154     -0.2718
     76  CB       -37.1950   -7.5650   30.2310 C.3   154  LEU154      0.0284
     77  CG       -37.2480   -8.7560   29.2670 C.3   154  LEU154      0.0019
     78  CD1      -35.9600   -8.8740   28.4720 C.3   154  LEU154      0.0001
     79  CD2      -37.5350  -10.0480   30.0200 C.3   154  LEU154      0.0001
     80  N        -38.4890   -6.3790   33.1150 N.am  155  ASP155     -0.1960
     81  CA       -38.5070   -5.3740   34.1730 C.3   155  ASP155      0.1840
     82  C        -37.2490   -4.5170   34.1920 C.2   155  ASP155      0.2622
     83  O        -37.2720   -3.4130   34.7480 O.2   155  ASP155     -0.2715
     84  CB       -38.6990   -6.0480   35.5330 C.3   155  ASP155      0.1450
     85  CG       -40.0440   -6.7410   35.6550 C.2   155  ASP155      0.3671
     86  OD1      -40.9820   -6.3630   34.9190 O.co2 155  ASP155     -0.2456
     87  OD2      -40.1640   -7.6610   36.4920 O.co2 155  ASP155     -0.2456
     88  N        -36.1560   -4.9940   33.5990 N.am  156  LEU156     -0.1964
     89  CA       -34.9130   -4.2310   33.5190 C.3   156  LEU156      0.1713
     90  C        -34.3650   -4.3460   32.1050 C.2   156  LEU156      0.2458
     91  O        -33.5540   -5.2320   31.8080 O.2   156  LEU156     -0.2730
     92  CB       -33.8920   -4.7190   34.5480 C.3   156  LEU156      0.0310
     93  CG       -34.2770   -4.5980   36.0260 C.3   156  LEU156      0.0022
     94  CD1      -33.2150   -5.2260   36.9100 C.3   156  LEU156      0.0001
     95  CD2      -34.4990   -3.1440   36.4100 C.3   156  LEU156      0.0001
     96  N        -34.7970   -3.4640   31.1910 N.am  157  PRO157     -0.2727
     97  CA       -34.2930   -3.4640   29.8140 C.3   157  PRO157      0.1402
     98  C        -32.9760   -2.7030   29.6760 C.2   157  PRO157      0.2269
     99  O        -32.3810   -2.7140   28.5980 O.2   157  PRO157     -0.2865
    100  CB       -35.4120   -2.7670   29.0410 C.3   157  PRO157      0.0296
    101  CG       -35.9770   -1.8010   30.0310 C.3   157  PRO157      0.0237
    102  CD       -35.8590   -2.4610   31.3880 C.3   157  PRO157      0.0939
@<TRIPOS>BOND
     1    64    65    1
     2    71    69    1
     3    59    60    1
     4    65    66    1
     5    65    68    1
     6    69    68    1
     7    69    70    1
     8    61    62    2
     9    61    60    1
    10    66    67    2
    11    60    63    1
    12    26    24    1
    13     1     2    1
    14     7     9   ar
    15     7     6   ar
    16    25    24    1
    17     2     5    1
    18     2     3    1
    19    24    21    1
    20    44    42    1
    21     9    11   ar
    22     5     6    1
    23     6     8   ar
    24    21    20    1
    25    21    22    1
    26    43    42    1
    27     3     4    2
    28     3    12   am
    29    42    39    1
    30    11    10   ar
    31     8    10   ar
    32    78    77    1
    33    23    22    2
    34    39    38    1
    35    39    40    1
    36    99    98    2
    37    22    27   am
    38    12    13    1
    39   100    97    1
    40   100   101    1
    41    77    79    1
    42    77    76    1
    43    41    40    2
    44    98    97    1
    45    27    28    1
    46    40    45   am
    47    72    73    1
    48    97    96    1
    49    14    13    1
    50    14    15    2
    51   101   102    1
    52    13    16    1
    53    76    73    1
    54    28    29    1
    55    73    74    1
    56    45    46    1
    57    16    17    1
    58    96   102    1
    59    96    90   am
    60    30    29    2
    61    29    31   am
    62    75    74    2
    63    33    34    2
    64    33    32    1
    65    91    90    2
    66    74    80   am
    67    31    37    1
    68    31    32    1
    69    46    47    1
    70    46    49    1
    71    90    89    1
    72    17    19    1
    73    17    18    1
    74    37    36    1
    75    56    57    2
    76    56    55    1
    77    32    35    1
    78    47    54   am
    79    47    48    2
    80    54    55    1
    81    49    50    1
    82    80    81    1
    83    35    36    1
    84    55    58    1
    85    89    88    1
    86    89    92    1
    87    88    82   am
    88    81    82    1
    89    81    84    1
    90    50    51    1
    91    82    83    2
    92    92    93    1
    93    86    85   ar
    94    51    52    1
    95    84    85    1
    96    85    87   ar
    97    93    95    1
    98    93    94    1
    99    52    53    1
