@<TRIPOS>MOLECULE
tmp/5l8rA24.pdb
 143 136 0 0 0
SMALL
GASTEIGER

@<TRIPOS>ATOM
      1  N         70.8420   36.8400   50.7060 N.3   151  LEU151     -0.1245
      2  CA        70.6040   38.1910   51.2020 C.3   151  LEU151      0.1561
      3  C         69.7800   39.0080   50.2110 C.2   151  LEU151      0.2260
      4  O         68.7980   39.6620   50.5880 O.2   151  LEU151     -0.2867
      5  CB        71.9380   38.8750   51.4830 C.3   151  LEU151      0.0270
      6  CG        71.8210   40.2840   52.0470 C.3   151  LEU151      0.0019
      7  CD1       71.2270   40.2340   53.4460 C.3   151  LEU151      0.0001
      8  CD2       73.1790   40.9580   52.0370 C.3   151  LEU151      0.0001
      9  N         66.1130   37.8990   50.2950 N.3   154  LEU154     -0.1231
     10  CA        65.4230   38.4790   51.4430 C.3   154  LEU154      0.1693
     11  C         65.0900   39.9470   51.1950 C.2   154  LEU154      0.2591
     12  O         63.9630   40.3930   51.4520 O.2   154  LEU154     -0.2718
     13  CB        66.2780   38.3190   52.7000 C.3   154  LEU154      0.0284
     14  CG        65.6320   38.7890   54.0040 C.3   154  LEU154      0.0019
     15  CD1       64.3310   38.0420   54.2510 C.3   154  LEU154      0.0001
     16  CD2       66.5870   38.6110   55.1740 C.3   154  LEU154      0.0001
     17  N         66.0590   40.7090   50.6710 N.am  155  ALA155     -0.1980
     18  CA        65.8220   42.1210   50.3750 C.3   155  ALA155      0.1597
     19  C         64.6770   42.3010   49.3840 C.2   155  ALA155      0.2287
     20  O         63.8230   43.1770   49.5650 O.2   155  ALA155     -0.2864
     21  CB        67.0980   42.7690   49.8380 C.3   155  ALA155      0.0319
     22  N         62.1450   40.3110   48.9160 N.3   157  VAL157     -0.1231
     23  CA        60.9190   40.0890   49.6790 C.3   157  VAL157      0.1692
     24  C         60.5390   41.3470   50.4510 C.2   157  VAL157      0.2592
     25  O         59.3670   41.7490   50.4780 O.2   157  VAL157     -0.2718
     26  CB        61.0810   38.8780   50.6150 C.3   157  VAL157      0.0266
     27  CG1       59.8350   38.6940   51.4670 C.3   157  VAL157      0.0020
     28  CG2       61.3560   37.6330   49.8080 C.3   157  VAL157      0.0020
     29  N         61.5220   41.9920   51.0830 N.am  158  GLY158     -0.1957
     30  CA        61.2410   43.2390   51.7760 C.3   158  GLY158      0.1869
     31  C         60.6820   44.3080   50.8570 C.2   158  GLY158      0.2309
     32  O         59.7910   45.0710   51.2430 O.2   158  GLY158     -0.2863
     33  N         56.9550   43.3010   49.9190 N.3   161  VAL161     -0.1231
     34  CA        56.0330   43.4250   51.0430 C.3   161  VAL161      0.1692
     35  C         55.8570   44.8870   51.4350 C.2   161  VAL161      0.2591
     36  O         54.7450   45.3250   51.7510 O.2   161  VAL161     -0.2718
     37  CB        56.5110   42.5670   52.2260 C.3   161  VAL161      0.0266
     38  CG1       55.6250   42.8010   53.4390 C.3   161  VAL161      0.0020
     39  CG2       56.5010   41.0970   51.8390 C.3   161  VAL161      0.0020
     40  N         56.9440   45.6650   51.4240 N.am  162  GLN162     -0.1979
     41  CA        56.8130   47.1030   51.6420 C.3   162  GLN162      0.1601
     42  C         55.9430   47.7430   50.5680 C.2   162  GLN162      0.2287
     43  O         55.1300   48.6280   50.8600 O.2   162  GLN162     -0.2864
     44  CB        58.1890   47.7620   51.6710 C.3   162  GLN162      0.0394
     45  CG        58.9630   47.5400   52.9510 C.3   162  GLN162      0.0908
     46  CD        60.4170   47.9320   52.8100 C.2   162  GLN162      0.2608
     47  OE1       61.0220   47.7440   51.7560 O.2   162  GLN162     -0.2717
     48  NE2       60.9820   48.4920   53.8650 N.am  162  GLN162     -0.0878
     49  N         52.5330   47.1530   51.5060 N.3   165  ALA165     -0.1231
     50  CA        52.1840   47.9120   52.6980 C.3   165  ALA165      0.1694
     51  C         52.2210   49.4130   52.4750 C.2   165  ALA165      0.2592
     52  O         51.7840   50.1640   53.3500 O.2   165  ALA165     -0.2718
     53  CB        53.1240   47.5520   53.8470 C.3   165  ALA165      0.0304
     54  N         52.7680   49.8660   51.3520 N.am  166  TYR166     -0.1976
     55  CA        52.7650   51.2850   50.9950 C.3   166  TYR166      0.1639
     56  C         52.6960   51.3760   49.4810 C.2   166  TYR166      0.2290
     57  O         53.7040   51.6160   48.8070 O.2   166  TYR166     -0.2864
     58  CB        54.0020   52.0050   51.5370 C.3   166  TYR166      0.0560
     59  CG        54.1770   51.8870   53.0350 C.ar  166  TYR166     -0.0198
     60  CD1       53.5780   52.7930   53.9020 C.ar  166  TYR166     -0.0009
     61  CD2       54.9380   50.8660   53.5830 C.ar  166  TYR166     -0.0009
     62  CE1       53.7360   52.6820   55.2740 C.ar  166  TYR166      0.0417
     63  CE2       55.0960   50.7460   54.9480 C.ar  166  TYR166      0.0417
     64  CZ        54.4990   51.6560   55.7910 C.ar  166  TYR166      0.1957
     65  OH        54.6650   51.5360   57.1530 O.3   166  TYR166     -0.2866
     66  N         61.7720   51.5190   48.0660 N.3   171  PRO171     -0.2116
     67  CA        62.5800   51.0500   49.2060 C.3   171  PRO171      0.1372
     68  C         63.3420   52.1600   49.9100 C.2   171  PRO171      0.2244
     69  O         63.4060   52.1840   51.1450 O.2   171  PRO171     -0.2868
     70  CB        63.5270   50.0370   48.5520 C.3   171  PRO171      0.0268
     71  CG        62.7470   49.4960   47.4060 C.3   171  PRO171      0.0207
     72  CD        61.8810   50.6230   46.9010 C.3   171  PRO171      0.0892
     73  N         60.7080   54.4320   51.5570 N.3   174  ASN174     -0.1225
     74  CA        60.3810   53.8010   52.8330 C.3   174  ASN174      0.1785
     75  C         61.4880   54.0260   53.8530 C.2   174  ASN174      0.2597
     76  O         61.2180   54.3540   55.0170 O.2   174  ASN174     -0.2718
     77  CB        60.1470   52.3020   52.6350 C.3   174  ASN174      0.1169
     78  CG        59.0100   52.0070   51.6810 C.2   174  ASN174      0.2627
     79  OD1       57.9760   52.6750   51.7040 O.2   174  ASN174     -0.2716
     80  ND2       59.1950   51.0010   50.8330 N.am  174  ASN174     -0.0877
     81  N         62.7450   53.8530   53.4320 N.am  175  LEU175     -0.1980
     82  CA        63.8690   54.0340   54.3450 C.3   175  LEU175      0.1596
     83  C         63.9060   55.4520   54.8950 C.2   175  LEU175      0.2287
     84  O         64.0960   55.6540   56.0970 O.2   175  LEU175     -0.2864
     85  CB        65.1830   53.6970   53.6400 C.3   175  LEU175      0.0297
     86  CG        66.4700   54.0870   54.3730 C.3   175  LEU175      0.0022
     87  CD1       66.5860   53.3820   55.7190 C.3   175  LEU175      0.0001
     88  CD2       67.6800   53.7880   53.5080 C.3   175  LEU175      0.0001
     89  N         61.3860   57.5700   55.0940 N.3   177  THR177     -0.1203
     90  CA        60.2440   57.6960   55.9910 C.3   177  THR177      0.1994
     91  C         60.5750   57.1330   57.3670 C.2   177  THR177      0.2617
     92  O         60.1480   57.6790   58.3910 O.2   177  THR177     -0.2717
     93  CB        59.0270   56.9900   55.3930 C.3   177  THR177      0.1784
     94  OG1       58.7400   57.5440   54.1030 O.3   177  THR177     -0.2211
     95  CG2       57.8060   57.1570   56.2880 C.3   177  THR177      0.0376
     96  N         61.3550   56.0500   57.4090 N.am  178  HIS178     -0.1975
     97  CA        61.7780   55.5030   58.6930 C.3   178  HIS178      0.1656
     98  C         62.8020   56.4060   59.3730 C.2   178  HIS178      0.2291
     99  O         62.7200   56.6460   60.5820 O.2   178  HIS178     -0.2864
    100  CB        62.3470   54.0980   58.5020 C.3   178  HIS178      0.0771
    101  CG        62.8590   53.4810   59.7650 C.ar  178  HIS178      0.0820
    102  ND1       62.0380   53.1660   60.8260 N.ar  178  HIS178     -0.2267
    103  CD2       64.1120   53.1320   60.1420 C.ar  178  HIS178      0.1154
    104  CE1       62.7610   52.6410   61.7980 C.ar  178  HIS178      0.1986
    105  NE2       64.0230   52.6140   61.4100 N.ar  178  HIS178     -0.2212
    106  N         57.6740   55.4530   62.8420 N.3   185  ASN185     -0.1225
    107  CA        57.5600   54.8890   61.5010 C.3   185  ASN185      0.1785
    108  C         58.2300   53.5220   61.5220 C.2   185  ASN185      0.2598
    109  O         59.4610   53.4260   61.5630 O.2   185  ASN185     -0.2718
    110  CB        58.1890   55.8060   60.4570 C.3   185  ASN185      0.1169
    111  CG        57.3960   57.0760   60.2550 C.2   185  ASN185      0.2627
    112  OD1       56.1840   57.1020   60.4660 O.2   185  ASN185     -0.2716
    113  ND2       58.0730   58.1400   59.8420 N.am  185  ASN185     -0.0877
    114  N         57.4140   52.4730   61.5000 N.am  186  THR186     -0.1939
    115  CA        57.8830   51.1120   61.7010 C.3   186  THR186      0.2028
    116  C         56.9280   50.1760   60.9740 C.2   186  THR186      0.2642
    117  O         55.8260   50.5690   60.5810 O.2   186  THR186     -0.2714
    118  CB        57.9520   50.7740   63.2020 C.3   186  THR186      0.1808
    119  OG1       58.6570   51.8070   63.9000 O.3   186  THR186     -0.2208
    120  CG2       58.6630   49.4640   63.4460 C.3   186  THR186      0.0379
    121  N         57.3640   48.9260   60.7890 N.am  187  ILE187     -0.1977
    122  CA        56.4360   47.8760   60.3980 C.3   187  ILE187      0.1596
    123  C         55.3260   47.7280   61.4260 C.2   187  ILE187      0.2287
    124  O         54.2790   47.1540   61.1190 O.2   187  ILE187     -0.2864
    125  CB        57.1680   46.5310   60.2050 C.3   187  ILE187      0.0276
    126  CG1       56.3120   45.5680   59.3770 C.3   187  ILE187      0.0022
    127  CG2       57.4760   45.8980   61.5540 C.3   187  ILE187      0.0022
    128  CD1       56.9620   44.2280   59.1180 C.3   187  ILE187      0.0001
    129  N         52.0440   48.8750   60.1720 N.3   190  VAL190     -0.1231
    130  CA        51.4450   48.0150   59.1580 C.3   190  VAL190      0.1692
    131  C         50.9060   46.7350   59.7840 C.2   190  VAL190      0.2591
    132  O         49.7980   46.2910   59.4610 O.2   190  VAL190     -0.2718
    133  CB        52.4640   47.7220   58.0450 C.3   190  VAL190      0.0266
    134  CG1       51.9530   46.6160   57.1440 C.3   190  VAL190      0.0020
    135  CG2       52.7260   48.9810   57.2390 C.3   190  VAL190      0.0020
    136  N         51.6790   46.1200   60.6820 N.am  191  LEU191     -0.1980
    137  CA        51.1870   44.9650   61.4220 C.3   191  LEU191      0.1596
    138  C         50.0180   45.3410   62.3190 C.2   191  LEU191      0.2287
    139  O         49.1030   44.5380   62.5120 O.2   191  LEU191     -0.2864
    140  CB        52.3100   44.3480   62.2590 C.3   191  LEU191      0.0297
    141  CG        53.6200   43.9670   61.5660 C.3   191  LEU191      0.0022
    142  CD1       54.6270   43.4550   62.5820 C.3   191  LEU191      0.0001
    143  CD2       53.3860   42.9310   60.4860 C.3   191  LEU191      0.0001
@<TRIPOS>BOND
     1    72    71    1
     2    72    66    1
     3    71    70    1
     4    66    67    1
     5    70    67    1
     6    57    56    2
     7    22    23    1
     8    67    68    1
     9    19    20    2
    10    19    18    1
    11    56    55    1
    12    23    24    1
    13    23    26    1
    14    28    26    1
    15    21    18    1
    16    68    69    2
    17    33    34    1
    18     3     4    2
    19     3     2    1
    20     9    10    1
    21    18    17    1
    22    24    25    2
    23    24    29   am
    24    42    43    2
    25    42    41    1
    26    26    27    1
    27    17    11   am
    28     1     2    1
    29    80    78   am
    30    31    32    2
    31    31    30    1
    32    55    54    1
    33    55    58    1
    34    34    35    1
    35    34    37    1
    36    29    30    1
    37    11    10    1
    38    11    12    2
    39     2     5    1
    40    54    51   am
    41    40    35   am
    42    40    41    1
    43    35    36    2
    44    10    13    1
    45     5     6    1
    46    49    50    1
    47    58    59    1
    48    73    74    1
    49    41    44    1
    50    44    45    1
    51    78    79    2
    52    78    77    1
    53    47    46    2
    54    39    37    1
    55     8     6    1
    56     6     7    1
    57    37    38    1
    58    51    50    1
    59    51    52    2
    60    77    74    1
    61    50    53    1
    62    13    14    1
    63    46    45    1
    64    46    48   am
    65    74    75    1
    66    59    61   ar
    67    59    60   ar
    68    81    75   am
    69    81    82    1
    70    88    86    1
    71    61    63   ar
    72    85    82    1
    73    85    86    1
    74    75    76    2
    75    60    62   ar
    76    14    15    1
    77    14    16    1
    78    94    93    1
    79    82    83    1
    80    86    87    1
    81    83    84    2
    82    63    64   ar
    83    89    90    1
    84    62    64   ar
    85    93    90    1
    86    93    95    1
    87    64    65    1
    88    90    91    1
    89   134   133    1
    90   135   133    1
    91    91    96   am
    92    91    92    2
    93    96    97    1
    94   133   130    1
    95   100    97    1
    96   100   101    1
    97    97    98    1
    98   128   126    1
    99   130   131    1
   100   130   129    1
   101    98    99    2
   102   126   125    1
   103   132   131    2
   104   101   103   ar
   105   101   102   ar
   106   131   136   am
   107   113   111   am
   108   103   105   ar
   109   125   122    1
   110   125   127    1
   111   111   110    1
   112   111   112    2
   113   122   121    1
   114   122   123    1
   115   110   107    1
   116   143   141    1
   117   117   116    2
   118   136   137    1
   119   121   116   am
   120   102   104   ar
   121   116   115    1
   122   124   123    2
   123   105   104   ar
   124   137   140    1
   125   137   138    1
   126   114   108   am
   127   114   115    1
   128   107   108    1
   129   107   106    1
   130   108   109    2
   131   141   140    1
   132   141   142    1
   133   115   118    1
   134   138   139    2
   135   118   120    1
   136   118   119    1
