@<TRIPOS>MOLECULE
tmp/5l8rA16.pdb
 76 73 0 0 0
SMALL
GASTEIGER

@<TRIPOS>ATOM
      1  N         53.4830   50.3750   29.7560 N.3    73  ALA73      -0.1231
      2  CA        52.9040   49.2750   28.9930 C.3    73  ALA73       0.1694
      3  C         51.4210   49.0860   29.2800 C.2    73  ALA73       0.2592
      4  O         50.7140   48.4990   28.4530 O.2    73  ALA73      -0.2718
      5  CB        53.6610   47.9790   29.2830 C.3    73  ALA73       0.0304
      6  N         50.9380   49.5640   30.4300 N.am   74  ALA74      -0.1966
      7  CA        49.5130   49.4710   30.7290 C.3    74  ALA74       0.1728
      8  C         48.6890   50.2950   29.7470 C.2    74  ALA74       0.2616
      9  O         47.6360   49.8460   29.2790 O.2    74  ALA74      -0.2715
     10  CB        49.2480   49.9190   32.1670 C.3    74  ALA74       0.0334
     11  N         49.1630   51.5250   29.4120 N.am   75  LEU75      -0.1964
     12  CA        48.4850   52.3610   28.4330 C.3    75  LEU75       0.1713
     13  C         48.9380   52.0010   27.0190 C.2    75  LEU75       0.2458
     14  O         50.0890   51.6030   26.8120 O.2    75  LEU75      -0.2730
     15  CB        48.7530   53.8380   28.7200 C.3    75  LEU75       0.0310
     16  CG        50.1810   54.2630   29.0650 C.3    75  LEU75       0.0022
     17  CD1       50.8780   54.8200   27.8390 C.3    75  LEU75       0.0001
     18  CD2       50.1810   55.2790   30.1960 C.3    75  LEU75       0.0001
     19  N         48.0510   52.1360   26.0250 N.am   76  PRO76      -0.2727
     20  CA        48.3090   51.4750   24.7330 C.3    76  PRO76       0.1402
     21  C         49.4820   52.0480   23.9560 C.2    76  PRO76       0.2269
     22  O         50.2890   51.2800   23.4170 O.2    76  PRO76      -0.2865
     23  CB        46.9830   51.6610   23.9820 C.3    76  PRO76       0.0296
     24  CG        46.3930   52.8940   24.5680 C.3    76  PRO76       0.0237
     25  CD        46.7830   52.8870   26.0190 C.3    76  PRO76       0.0939
     26  N         52.1420   53.2730   24.8670 N.3    78  GLY78      -0.1225
     27  CA        53.2950   53.3600   25.7410 C.3    78  GLY78       0.1811
     28  C         54.6450   53.2670   25.0610 C.2    78  GLY78       0.2280
     29  O         54.8630   52.4120   24.1970 O.2    78  GLY78      -0.2866
     30  N         55.2190   48.0130   24.1670 N.3    92  LEU92      -0.1231
     31  CA        55.1370   46.7420   24.8850 C.3    92  LEU92       0.1678
     32  C         55.2520   45.5200   23.9790 C.2    92  LEU92       0.2434
     33  O         56.0210   44.6050   24.3210 O.2    92  LEU92      -0.2733
     34  CB        53.8490   46.6960   25.7130 C.3    92  LEU92       0.0284
     35  CG        53.5390   45.3360   26.3390 C.3    92  LEU92       0.0019
     36  CD1       54.5970   44.9480   27.3650 C.3    92  LEU92       0.0001
     37  CD2       52.1560   45.3410   26.9570 C.3    92  LEU92       0.0001
     38  N         54.5310   45.4120   22.8540 N.am   93  PRO93      -0.2729
     39  CA        54.6940   44.2100   22.0170 C.3    93  PRO93       0.1401
     40  C         56.1070   44.0220   21.4880 C.2    93  PRO93       0.2269
     41  O         56.5650   42.8770   21.3720 O.2    93  PRO93      -0.2865
     42  CB        53.6890   44.4370   20.8790 C.3    93  PRO93       0.0296
     43  CG        52.6710   45.3430   21.4600 C.3    93  PRO93       0.0237
     44  CD        53.4420   46.2690   22.3500 C.3    93  PRO93       0.0939
     45  N         58.3570   42.9060   24.2590 N.3    96  LEU96      -0.1231
     46  CA        57.7670   41.6610   24.7390 C.3    96  LEU96       0.1693
     47  C         58.1780   40.4860   23.8580 C.2    96  LEU96       0.2591
     48  O         58.6140   39.4430   24.3610 O.2    96  LEU96      -0.2718
     49  CB        56.2430   41.8010   24.7960 C.3    96  LEU96       0.0284
     50  CG        55.4240   40.6590   25.3980 C.3    96  LEU96       0.0019
     51  CD1       55.9190   40.3220   26.7930 C.3    96  LEU96       0.0001
     52  CD2       53.9500   41.0310   25.4300 C.3    96  LEU96       0.0001
     53  N         58.0490   40.6420   22.5370 N.am   97  VAL97      -0.1980
     54  CA        58.5430   39.6240   21.6120 C.3    97  VAL97       0.1595
     55  C         60.0480   39.4470   21.7800 C.2    97  VAL97       0.2287
     56  O         60.5610   38.3180   21.8510 O.2    97  VAL97      -0.2864
     57  CB        58.1730   39.9980   20.1640 C.3    97  VAL97       0.0276
     58  CG1       58.8460   39.0590   19.1760 C.3    97  VAL97       0.0022
     59  CG2       56.6610   39.9790   19.9830 C.3    97  VAL97       0.0022
     60  N         60.7200   37.5170   24.9840 N.3   100  PHE100     -0.1241
     61  CA        60.3550   36.1070   24.8830 C.3   100  PHE100      0.1605
     62  C         61.4050   35.3200   24.1090 C.2   100  PHE100      0.2264
     63  O         61.8770   34.2760   24.5730 O.2   100  PHE100     -0.2867
     64  CB        58.9840   35.9490   24.2260 C.3   100  PHE100      0.0534
     65  CG        58.6250   34.5180   23.9240 C.ar  100  PHE100     -0.0203
     66  CD1       58.1060   33.6980   24.9130 C.ar  100  PHE100     -0.0042
     67  CD2       58.8160   33.9890   22.6570 C.ar  100  PHE100     -0.0042
     68  CE1       57.7790   32.3810   24.6430 C.ar  100  PHE100     -0.0003
     69  CE2       58.4930   32.6720   22.3830 C.ar  100  PHE100     -0.0003
     70  CZ        57.9730   31.8690   23.3760 C.ar  100  PHE100     -0.0000
     71  N         58.9400   43.8300   47.9880 N.3   160  CYS160     -0.1235
     72  CA        57.5780   43.5150   47.5660 C.3   160  CYS160      0.1677
     73  C         56.5850   43.7120   48.7050 C.2   160  CYS160      0.2270
     74  O         55.4870   44.2460   48.4960 O.2   160  CYS160     -0.2867
     75  CB        57.5100   42.0880   47.0290 C.3   160  CYS160      0.0956
     76  SG        58.4830   41.8270   45.5320 S.3   160  CYS160     -0.0801
@<TRIPOS>BOND
     1    58    57    1
     2    59    57    1
     3    57    54    1
     4    42    43    1
     5    42    39    1
     6    41    40    2
     7    43    44    1
     8    40    39    1
     9    54    55    1
    10    54    53    1
    11    55    56    2
    12    39    38    1
    13    44    38    1
    14    69    67   ar
    15    69    70   ar
    16    53    47   am
    17    67    65   ar
    18    38    32   am
    19    70    68   ar
    20    22    21    2
    21    47    48    2
    22    47    46    1
    23    65    64    1
    24    65    66   ar
    25    21    20    1
    26    32    33    2
    27    32    31    1
    28    23    24    1
    29    23    20    1
    30    62    63    2
    31    62    61    1
    32    30    31    1
    33    29    28    2
    34    64    61    1
    35    45    46    1
    36    24    25    1
    37    68    66   ar
    38    20    19    1
    39    46    49    1
    40    49    50    1
    41    26    27    1
    42    61    60    1
    43    31    34    1
    44    28    27    1
    45    50    52    1
    46    50    51    1
    47    34    35    1
    48    25    19    1
    49    19    13   am
    50    35    37    1
    51    35    36    1
    52    14    13    2
    53    13    12    1
    54    17    16    1
    55    12    15    1
    56    12    11    1
    57     4     3    2
    58    15    16    1
    59     2     3    1
    60     2     5    1
    61     2     1    1
    62    16    18    1
    63     9     8    2
    64     3     6   am
    65    11     8   am
    66     8     7    1
    67     6     7    1
    68     7    10    1
    69    76    75    1
    70    75    72    1
    71    72    71    1
    72    72    73    1
    73    74    73    2
