@<TRIPOS>MOLECULE
tmp/5l8rA04.pdb
 136 132 0 0 0
SMALL
GASTEIGER

@<TRIPOS>ATOM
      1  N         69.5230   36.0230   39.8550 N.3    47  TRP47      -0.1241
      2  CA        68.5020   36.9600   39.3920 C.3    47  TRP47       0.1605
      3  C         68.2550   38.0530   40.4240 C.2    47  TRP47       0.2264
      4  O         68.0880   39.2250   40.0700 O.2    47  TRP47      -0.2867
      5  CB        67.1910   36.2310   39.0870 C.3    47  TRP47       0.0550
      6  CG        67.1530   35.5080   37.7720 C.ar   47  TRP47       0.0003
      7  CD1       67.0500   34.1600   37.5840 C.ar   47  TRP47       0.0946
      8  CD2       67.2030   36.0920   36.4630 C.ar   47  TRP47       0.0152
      9  NE1       67.0420   33.8670   36.2410 N.ar   47  TRP47      -0.2442
     10  CE2       67.1340   35.0360   35.5320 C.ar   47  TRP47       0.0810
     11  CE3       67.3030   37.4040   35.9880 C.ar   47  TRP47       0.0012
     12  CZ2       67.1600   35.2510   34.1550 C.ar   47  TRP47       0.0191
     13  CZ3       67.3290   37.6140   34.6200 C.ar   47  TRP47       0.0001
     14  CH2       67.2590   36.5440   33.7200 C.ar   47  TRP47       0.0015
     15  N         58.5240   52.2340   36.7030 N.3    69  ALA69      -0.1231
     16  CA        59.2870   51.9150   35.5030 C.3    69  ALA69       0.1694
     17  C         58.6680   50.7970   34.6760 C.2    69  ALA69       0.2591
     18  O         59.2690   50.4000   33.6730 O.2    69  ALA69      -0.2718
     19  CB        60.7230   51.5440   35.8790 C.3    69  ALA69       0.0304
     20  N         57.5070   50.2730   35.0680 N.am   70  GLN70      -0.1979
     21  CA        56.7890   49.2740   34.2860 C.3    70  GLN70       0.1601
     22  C         55.4770   49.8000   33.7270 C.2    70  GLN70       0.2287
     23  O         54.7530   49.0500   33.0670 O.2    70  GLN70      -0.2864
     24  CB        56.4980   48.0310   35.1370 C.3    70  GLN70       0.0394
     25  CG        57.7010   47.3830   35.7940 C.3    70  GLN70       0.0908
     26  CD        57.2930   46.2930   36.7660 C.2    70  GLN70       0.2608
     27  OE1       56.2960   46.4240   37.4760 O.2    70  GLN70      -0.2717
     28  NE2       58.0560   45.2080   36.7970 N.am   70  GLN70      -0.0878
     29  N         54.2930   52.2980   31.5750 N.3    72  TRP72      -0.1227
     30  CA        53.9020   52.7400   30.2390 C.3    72  TRP72       0.1737
     31  C         53.1780   51.6440   29.4680 C.2    72  TRP72       0.2595
     32  O         52.3490   51.9430   28.6020 O.2    72  TRP72      -0.2718
     33  CB        55.1250   53.2010   29.4490 C.3    72  TRP72       0.0564
     34  CG        56.0950   52.0980   29.1790 C.ar   72  TRP72       0.0003
     35  CD1       55.9680   51.0930   28.2600 C.ar   72  TRP72       0.0946
     36  CD2       57.3470   51.8860   29.8330 C.ar   72  TRP72       0.0152
     37  NE1       57.0590   50.2660   28.3110 N.ar   72  TRP72      -0.2442
     38  CE2       57.9240   50.7330   29.2660 C.ar   72  TRP72       0.0810
     39  CE3       58.0380   52.5590   30.8430 C.ar   72  TRP72       0.0012
     40  CZ2       59.1560   50.2360   29.6800 C.ar   72  TRP72       0.0191
     41  CZ3       59.2640   52.0710   31.2450 C.ar   72  TRP72       0.0001
     42  CH2       59.8120   50.9210   30.6650 C.ar   72  TRP72       0.0015
     43  N         53.4830   50.3750   29.7560 N.am   73  ALA73      -0.1980
     44  CA        52.9040   49.2750   28.9930 C.3    73  ALA73       0.1597
     45  C         51.4210   49.0860   29.2800 C.2    73  ALA73       0.2287
     46  O         50.7140   48.4990   28.4530 O.2    73  ALA73      -0.2864
     47  CB        53.6610   47.9790   29.2830 C.3    73  ALA73       0.0319
     48  N         58.8850   53.4360   26.2400 N.3    80  ALA80      -0.1245
     49  CA        59.7650   53.4040   27.3950 C.3    80  ALA80       0.1562
     50  C         60.7050   54.6040   27.4100 C.2    80  ALA80       0.2260
     51  O         60.9110   55.2860   26.4020 O.2    80  ALA80      -0.2867
     52  CB        60.5880   52.1230   27.4010 C.3    80  ALA80       0.0290
     53  N         64.6110   55.1380   28.8890 N.3    82  TYR82      -0.1241
     54  CA        65.8400   54.7070   29.5460 C.3    82  TYR82       0.1605
     55  C         66.7250   55.9310   29.7330 C.2    82  TYR82       0.2264
     56  O         67.1900   56.5210   28.7530 O.2    82  TYR82      -0.2867
     57  CB        66.5590   53.6330   28.7340 C.3    82  TYR82       0.0534
     58  CG        67.7770   53.0780   29.4370 C.ar   82  TYR82      -0.0201
     59  CD1       67.6500   52.1000   30.4140 C.ar   82  TYR82      -0.0009
     60  CD2       69.0520   53.5370   29.1310 C.ar   82  TYR82      -0.0009
     61  CE1       68.7570   51.5890   31.0630 C.ar   82  TYR82       0.0417
     62  CE2       70.1660   53.0320   29.7760 C.ar   82  TYR82       0.0417
     63  CZ        70.0120   52.0590   30.7420 C.ar   82  TYR82       0.1957
     64  OH        71.1140   51.5480   31.3880 O.3    82  TYR82      -0.2866
     65  N         63.1710   55.6540   24.3290 N.3    87  VAL87      -0.1245
     66  CA        63.7620   54.6660   23.4180 C.3    87  VAL87       0.1561
     67  C         62.7180   54.2400   22.3940 C.2    87  VAL87       0.2260
     68  O         61.5390   54.0430   22.7550 O.2    87  VAL87      -0.2867
     69  CB        64.3060   53.4560   24.1970 C.3    87  VAL87       0.0252
     70  CG1       65.5320   53.8550   25.0060 C.3    87  VAL87       0.0019
     71  CG2       63.2400   52.8750   25.1090 C.3    87  VAL87       0.0019
     72  N         61.9870   51.5100   20.5930 N.3    89  TRP89      -0.1227
     73  CA        61.3650   50.1980   20.7020 C.3    89  TRP89       0.1737
     74  C         60.6060   50.0070   22.0100 C.2    89  TRP89       0.2596
     75  O         60.1960   48.8830   22.3130 O.2    89  TRP89      -0.2718
     76  CB        62.4270   49.1050   20.5470 C.3    89  TRP89       0.0564
     77  CG        63.5340   49.1940   21.5510 C.ar   89  TRP89       0.0003
     78  CD1       63.5550   48.6370   22.7950 C.ar   89  TRP89       0.0946
     79  CD2       64.7860   49.8760   21.3970 C.ar   89  TRP89       0.0152
     80  NE1       64.7380   48.9310   23.4250 N.ar   89  TRP89      -0.2442
     81  CE2       65.5120   49.6900   22.5890 C.ar   89  TRP89       0.0810
     82  CE3       65.3630   50.6250   20.3680 C.ar   89  TRP89       0.0012
     83  CZ2       66.7830   50.2260   22.7810 C.ar   89  TRP89       0.0191
     84  CZ3       66.6250   51.1580   20.5620 C.ar   89  TRP89       0.0001
     85  CH2       67.3210   50.9550   21.7590 C.ar   89  TRP89       0.0015
     86  N         60.3900   51.0760   22.7790 N.am   90  GLY90      -0.1957
     87  CA        59.7840   50.9970   24.1000 C.3    90  GLY90       0.1869
     88  C         58.3450   50.5350   24.1310 C.2    90  GLY90       0.2309
     89  O         57.7900   50.3990   25.2230 O.2    90  GLY90      -0.2863
     90  N         55.2190   48.0130   24.1670 N.3    92  LEU92      -0.1245
     91  CA        55.1370   46.7420   24.8850 C.3    92  LEU92       0.1561
     92  C         55.2520   45.5200   23.9790 C.2    92  LEU92       0.2260
     93  O         56.0210   44.6050   24.3210 O.2    92  LEU92      -0.2867
     94  CB        53.8490   46.6960   25.7130 C.3    92  LEU92       0.0270
     95  CG        53.5390   45.3360   26.3390 C.3    92  LEU92       0.0019
     96  CD1       54.5970   44.9480   27.3650 C.3    92  LEU92       0.0001
     97  CD2       52.1560   45.3410   26.9570 C.3    92  LEU92       0.0001
     98  N         59.3360   45.0210   22.8330 N.3    95  ILE95      -0.1245
     99  CA        60.1950   44.4780   23.8810 C.3    95  ILE95       0.1561
    100  C         59.6480   43.1790   24.4540 C.2    95  ILE95       0.2260
    101  O         60.3900   42.4230   25.0880 O.2    95  ILE95      -0.2867
    102  CB        60.3890   45.5190   25.0040 C.3    95  ILE95       0.0252
    103  CG1       59.0310   45.9140   25.5910 C.3    95  ILE95       0.0019
    104  CG2       61.1370   46.7360   24.4830 C.3    95  ILE95       0.0019
    105  CD1       59.1170   46.8060   26.8000 C.3    95  ILE95       0.0001
    106  N         60.7750   40.5670   21.8610 N.3    98  ILE98      -0.1231
    107  CA        62.2210   40.5230   22.0810 C.3    98  ILE98       0.1692
    108  C         62.5440   39.7050   23.3270 C.2    98  ILE98       0.2591
    109  O         63.3680   38.7790   23.2970 O.2    98  ILE98      -0.2718
    110  CB        62.7840   41.9520   22.1880 C.3    98  ILE98       0.0266
    111  CG1       62.5870   42.7100   20.8730 C.3    98  ILE98       0.0019
    112  CG2       64.2520   41.9220   22.5880 C.3    98  ILE98       0.0020
    113  CD1       62.7900   44.2070   20.9980 C.3    98  ILE98       0.0001
    114  N         61.8850   40.0350   24.4420 N.am   99  GLU99      -0.1979
    115  CA        62.1600   39.3580   25.7050 C.3    99  GLU99       0.1602
    116  C         61.8400   37.8720   25.6190 C.2    99  GLU99       0.2287
    117  O         62.6040   37.0370   26.1200 O.2    99  GLU99      -0.2864
    118  CB        61.3630   40.0150   26.8340 C.3    99  GLU99       0.0415
    119  CG        61.5790   39.3800   28.2020 C.3    99  GLU99       0.1163
    120  CD        60.6170   39.9040   29.2520 C.2    99  GLU99       0.3649
    121  OE1       59.7440   40.7260   28.9040 O.co2  99  GLU99      -0.2457
    122  OE2       60.7310   39.4930   30.4260 O.co2  99  GLU99      -0.2457
    123  N         64.6100   36.0790   23.2970 N.3   102  SER102     -0.1202
    124  CA        65.9350   36.0820   23.9110 C.3   102  SER102      0.2020
    125  C         65.9670   35.2180   25.1720 C.2   102  SER102      0.2618
    126  O         66.7740   34.2810   25.2880 O.2   102  SER102     -0.2717
    127  CB        66.3550   37.5230   24.2150 C.3   102  SER102      0.2103
    128  OG        65.3220   38.2330   24.8780 O.3   102  SER102     -0.2182
    129  N         65.0810   35.5170   26.1280 N.am  103  ILE103     -0.1979
    130  CA        65.0690   34.7920   27.3970 C.3   103  ILE103      0.1595
    131  C         64.8120   33.3090   27.1630 C.2   103  ILE103      0.2287
    132  O         65.4890   32.4450   27.7360 O.2   103  ILE103     -0.2864
    133  CB        64.0250   35.3980   28.3520 C.3   103  ILE103      0.0276
    134  CG1       64.3990   36.8360   28.7170 C.3   103  ILE103      0.0022
    135  CG2       63.8860   34.5400   29.6020 C.3   103  ILE103      0.0022
    136  CD1       65.7760   36.9750   29.3230 C.3   103  ILE103      0.0001
@<TRIPOS>BOND
     1    82    84   ar
     2    82    79   ar
     3    76    73    1
     4    76    77    1
     5    84    85   ar
     6    72    73    1
     7    73    74    1
     8   111   113    1
     9   111   110    1
    10    79    77   ar
    11    79    81   ar
    12    77    78   ar
    13    85    83   ar
    14   106   107    1
    15    74    75    2
    16    74    86   am
    17   107   110    1
    18   107   108    1
    19   110   112    1
    20    67    68    2
    21    67    66    1
    22    81    83   ar
    23    81    80   ar
    24    86    87    1
    25    78    80   ar
    26    98    99    1
    27   123   124    1
    28   109   108    2
    29   108   114   am
    30    66    69    1
    31    66    65    1
    32    99   100    1
    33    99   102    1
    34   124   127    1
    35   124   125    1
    36    92    93    2
    37    92    91    1
    38    87    88    1
    39    88    89    2
    40    90    91    1
    41    69    70    1
    42    69    71    1
    43   127   128    1
    44   114   115    1
    45   100   101    2
    46   104   102    1
    47    91    94    1
    48   102   103    1
    49   125   126    2
    50   125   129   am
    51   103   105    1
    52   116   115    1
    53   116   117    2
    54   115   118    1
    55    94    95    1
    56   129   130    1
    57    48    49    1
    58    95    97    1
    59    95    96    1
    60    51    50    2
    61   118   119    1
    62   131   130    1
    63   131   132    2
    64    49    52    1
    65    49    50    1
    66   130   133    1
    67   119   120    1
    68    35    37   ar
    69    35    34   ar
    70    37    38   ar
    71   133   134    1
    72   133   135    1
    73    46    45    2
    74    32    31    2
    75   134   136    1
    76    57    58    1
    77    57    54    1
    78    56    55    2
    79    53    54    1
    80   121   120   ar
    81    44    45    1
    82    44    47    1
    83    44    43    1
    84    60    58   ar
    85    60    62   ar
    86    34    33    1
    87    34    36   ar
    88   120   122   ar
    89    38    40   ar
    90    38    36   ar
    91    58    59   ar
    92    33    30    1
    93    31    43   am
    94    31    30    1
    95    54    55    1
    96    40    42   ar
    97    62    63   ar
    98    36    39   ar
    99    30    29    1
   100    59    61   ar
   101    42    41   ar
   102    63    61   ar
   103    63    64    1
   104    39    41   ar
   105    23    22    2
   106    18    17    2
   107    14    12   ar
   108    14    13   ar
   109    22    21    1
   110    12    10   ar
   111    21    20    1
   112    21    24    1
   113    13    11   ar
   114    17    20   am
   115    17    16    1
   116    24    25    1
   117    16    19    1
   118    16    15    1
   119    10     9   ar
   120    10     8   ar
   121    25    26    1
   122    11     8   ar
   123     9     7   ar
   124     8     6   ar
   125    26    28   am
   126    26    27    2
   127     7     6   ar
   128     6     5    1
   129     5     2    1
   130     2     1    1
   131     2     3    1
   132     4     3    2
