@<TRIPOS>MOLECULE
tmp/5l8rB05.pdb
 147 149 0 0 0
SMALL
GASTEIGER

@<TRIPOS>ATOM
      1  N         37.4190   24.5730  107.6660 N.3   105  TRP105     -0.1241
      2  CA        38.6810   24.0520  108.1830 C.3   105  TRP105      0.1605
      3  C         38.4350   22.9060  109.1540 C.2   105  TRP105      0.2264
      4  O         38.9670   21.7980  108.9810 O.2   105  TRP105     -0.2867
      5  CB        39.4680   25.1700  108.8650 C.3   105  TRP105      0.0550
      6  CG        40.8010   24.7360  109.3840 C.ar  105  TRP105      0.0003
      7  CD1       41.0810   24.2230  110.6220 C.ar  105  TRP105      0.0946
      8  CD2       42.0440   24.7860  108.6820 C.ar  105  TRP105      0.0152
      9  NE1       42.4240   23.9490  110.7280 N.ar  105  TRP105     -0.2442
     10  CE2       43.0360   24.2860  109.5500 C.ar  105  TRP105      0.0810
     11  CE3       42.4150   25.2060  107.4010 C.ar  105  TRP105      0.0012
     12  CZ2       44.3700   24.1940  109.1760 C.ar  105  TRP105      0.0191
     13  CZ3       43.7360   25.1150  107.0340 C.ar  105  TRP105      0.0001
     14  CH2       44.6970   24.6100  107.9160 C.ar  105  TRP105      0.0015
     15  N         39.4160   18.8740  108.5290 N.3   109  ARG109     -0.1245
     16  CA        40.3320   18.0280  109.2860 C.3   109  ARG109      0.1563
     17  C         39.6130   16.8160  109.8740 C.2   109  ARG109      0.2260
     18  O         40.1520   15.7000  109.8540 O.2   109  ARG109     -0.2867
     19  CB        41.0340   18.8480  110.3710 C.3   109  ARG109      0.0307
     20  CG        42.0330   19.8440  109.7960 C.3   109  ARG109      0.0489
     21  CD        42.9190   20.4460  110.8570 C.3   109  ARG109      0.2205
     22  NE        43.8460   19.4740  111.4340 N.pl3 109  ARG109     -0.0865
     23  CZ        45.1160   19.3310  111.0620 C.cat 109  ARG109      0.5346
     24  NH1       45.6240   20.0940  110.1050 N.pl3 109  ARG109      0.1354
     25  NH2       45.8840   18.4230  111.6500 N.pl3 109  ARG109      0.1354
     26  N         45.7320   13.3130  111.3940 N.3   120  VAL120     -0.1231
     27  CA        45.3480   14.7090  111.5260 C.3   120  VAL120      0.1692
     28  C         45.5490   15.2280  112.9490 C.2   120  VAL120      0.2592
     29  O         45.1100   16.3330  113.2740 O.2   120  VAL120     -0.2718
     30  CB        43.8930   14.9040  111.0510 C.3   120  VAL120      0.0266
     31  CG1       42.9150   14.4860  112.1340 C.3   120  VAL120      0.0020
     32  CG2       43.6400   16.3170  110.5590 C.3   120  VAL120      0.0020
     33  N         46.2440   14.4680  113.7970 N.am  121  ASN121     -0.1960
     34  CA        46.3250   14.7680  115.2220 C.3   121  ASN121      0.1819
     35  C         47.3460   15.8440  115.5750 C.2   121  ASN121      0.2622
     36  O         47.3090   16.3550  116.7000 O.2   121  ASN121     -0.2715
     37  CB        46.6500   13.4940  116.0110 C.3   121  ASN121      0.1195
     38  CG        45.4620   12.5550  116.1230 C.2   121  ASN121      0.2630
     39  OD1       44.3120   12.9890  116.1610 O.2   121  ASN121     -0.2716
     40  ND2       45.7380   11.2580  116.1800 N.am  121  ASN121     -0.0877
     41  N         48.2500   16.2040  114.6690 N.am  122  THR122     -0.1937
     42  CA        49.3070   17.1590  114.9750 C.3   122  THR122      0.2028
     43  C         48.9280   18.5620  114.5200 C.2   122  THR122      0.2642
     44  O         48.3760   18.7490  113.4310 O.2   122  THR122     -0.2714
     45  CB        50.6280   16.7530  114.3180 C.3   122  THR122      0.1808
     46  OG1       50.4320   16.5870  112.9080 O.3   122  THR122     -0.2208
     47  CG2       51.1470   15.4580  114.9150 C.3   122  THR122      0.0379
     48  N         49.2150   19.5370  115.3710 N.am  123  ASP123     -0.1957
     49  CA        49.1340   20.9450  115.0090 C.3   123  ASP123      0.1825
     50  C         50.0930   21.2180  113.8550 C.2   123  ASP123      0.2464
     51  O         51.2930   20.9270  113.9780 O.2   123  ASP123     -0.2730
     52  CB        49.4840   21.7950  116.2340 C.3   123  ASP123      0.1450
     53  CG        49.3530   23.2960  115.9950 C.2   123  ASP123      0.3671
     54  OD1       49.2170   23.7390  114.8370 O.co2 123  ASP123     -0.2456
     55  OD2       49.4050   24.0450  116.9910 O.co2 123  ASP123     -0.2456
     56  N         49.6220   21.7550  112.7250 N.am  124  PRO124     -0.2715
     57  CA        50.5270   22.0230  111.5990 C.3   124  PRO124      0.1536
     58  C         51.4620   23.1970  111.8220 C.2   124  PRO124      0.2598
     59  O         52.2840   23.4800  110.9440 O.2   124  PRO124     -0.2715
     60  CB        49.5610   22.3060  110.4440 C.3   124  PRO124      0.0310
     61  CG        48.3510   22.8430  111.1110 C.3   124  PRO124      0.0237
     62  CD        48.2280   22.0850  112.3970 C.3   124  PRO124      0.0939
     63  N         51.3600   23.8940  112.9510 N.am  125  ILE125     -0.1964
     64  CA        52.2800   24.9730  113.3050 C.3   125  ILE125      0.1727
     65  C         53.1240   24.5980  114.5180 C.2   125  ILE125      0.2616
     66  O         54.3540   24.6250  114.4610 O.2   125  ILE125     -0.2715
     67  CB        51.5230   26.3000  113.5400 C.3   125  ILE125      0.0290
     68  CG1       50.7520   26.7120  112.2870 C.3   125  ILE125      0.0022
     69  CG2       52.4940   27.3950  113.9440 C.3   125  ILE125      0.0023
     70  CD1       49.8630   27.9190  112.4880 C.3   125  ILE125      0.0001
     71  N         52.4760   24.2400  115.6280 N.am  126  PHE126     -0.1974
     72  CA        53.1500   23.9100  116.8810 C.3   126  PHE126      0.1639
     73  C         52.9940   22.4190  117.1510 C.2   126  PHE126      0.2290
     74  O         52.0540   22.0010  117.8420 O.2   126  PHE126     -0.2864
     75  CB        52.5790   24.7390  118.0340 C.3   126  PHE126      0.0560
     76  CG        52.5810   26.2210  117.7750 C.ar  126  PHE126     -0.0200
     77  CD1       53.7440   26.9600  117.9180 C.ar  126  PHE126     -0.0042
     78  CD2       51.4190   26.8750  117.3930 C.ar  126  PHE126     -0.0042
     79  CE1       53.7500   28.3220  117.6810 C.ar  126  PHE126     -0.0003
     80  CE2       51.4190   28.2380  117.1570 C.ar  126  PHE126     -0.0003
     81  CZ        52.5870   28.9610  117.3000 C.ar  126  PHE126     -0.0000
     82  N         54.1650   20.1880  119.1340 N.3   128  ASN128     -0.1225
     83  CA        54.1600   19.6130  120.4760 C.3   128  ASN128      0.1785
     84  C         52.7720   19.5510  121.1040 C.2   128  ASN128      0.2597
     85  O         52.6260   18.9540  122.1760 O.2   128  ASN128     -0.2718
     86  CB        55.0960   20.4010  121.3960 C.3   128  ASN128      0.1169
     87  CG        56.5570   20.0400  121.1960 C.2   128  ASN128      0.2627
     88  OD1       56.8800   19.0180  120.5910 O.2   128  ASN128     -0.2716
     89  ND2       57.4490   20.8740  121.7200 N.am  128  ASN128     -0.0877
     90  N         51.7560   20.1370  120.4720 N.am  129  ASN129     -0.1960
     91  CA        50.4280   20.1920  121.0840 C.3   129  ASN129      0.1819
     92  C         49.7040   18.8500  120.9750 C.2   129  ASN129      0.2621
     93  O         49.4470   18.1900  121.9860 O.2   129  ASN129     -0.2715
     94  CB        49.6200   21.3250  120.4480 C.3   129  ASN129      0.1195
     95  CG        50.1360   22.6950  120.8460 C.2   129  ASN129      0.2630
     96  OD1       50.5530   22.9040  121.9840 O.2   129  ASN129     -0.2716
     97  ND2       50.1180   23.6320  119.9070 N.am  129  ASN129     -0.0877
     98  N         49.3460   18.4500  119.7510 N.am  130  LYS130     -0.1963
     99  CA        48.8160   17.1180  119.4560 C.3   130  LYS130      0.1728
    100  C         47.4700   16.8200  120.1120 C.2   130  LYS130      0.2616
    101  O         46.9470   17.6300  120.8840 O.2   130  LYS130     -0.2715
    102  CB        49.8240   16.0400  119.8620 C.3   130  LYS130      0.0311
    103  CG        51.0600   15.9780  118.9860 C.3   130  LYS130      0.0038
    104  CD        51.9570   14.8280  119.4060 C.3   130  LYS130      0.0206
    105  CE        53.2290   14.7790  118.5780 C.3   130  LYS130      0.1093
    106  NZ        54.1670   13.7280  119.0740 N.3   130  LYS130     -0.1314
    107  N         46.9060   15.6480  119.8000 N.am  131  LEU131     -0.1977
    108  CA        45.6150   15.2060  120.3110 C.3   131  LEU131      0.1596
    109  C         45.7270   13.7790  120.8280 C.2   131  LEU131      0.2287
    110  O         46.4490   12.9580  120.2530 O.2   131  LEU131     -0.2864
    111  CB        44.5320   15.2820  119.2320 C.3   131  LEU131      0.0297
    112  CG        44.1510   16.6860  118.7570 C.3   131  LEU131      0.0022
    113  CD1       43.1860   16.6220  117.5870 C.3   131  LEU131      0.0001
    114  CD2       43.5450   17.4820  119.8980 C.3   131  LEU131      0.0001
    115  N         43.7930   18.5740  124.6580 N.3   142  LEU142     -0.1231
    116  CA        43.4810   19.6780  125.5620 C.3   142  LEU142      0.1693
    117  C         42.2810   20.4840  125.0780 C.2   142  LEU142      0.2592
    118  O         41.4910   20.9720  125.8940 O.2   142  LEU142     -0.2718
    119  CB        44.7010   20.5860  125.7190 C.3   142  LEU142      0.0284
    120  CG        44.5110   21.8290  126.5910 C.3   142  LEU142      0.0019
    121  CD1       44.0920   21.4360  127.9980 C.3   142  LEU142      0.0001
    122  CD2       45.7740   22.6720  126.6260 C.3   142  LEU142      0.0001
    123  N         42.1200   20.6220  123.7610 N.am  143  TRP143     -0.1962
    124  CA        41.0400   21.4450  123.2270 C.3   143  TRP143      0.1771
    125  C         39.6820   20.7860  123.4270 C.2   143  TRP143      0.2619
    126  O         38.7430   21.4140  123.9280 O.2   143  TRP143     -0.2715
    127  CB        41.2780   21.7180  121.7440 C.3   143  TRP143      0.0590
    128  CG        42.2670   22.7920  121.4850 C.ar  143  TRP143      0.0006
    129  CD1       43.1200   23.3580  122.3860 C.ar  143  TRP143      0.0946
    130  CD2       42.5030   23.4470  120.2380 C.ar  143  TRP143      0.0152
    131  NE1       43.8790   24.3250  121.7730 N.ar  143  TRP143     -0.2442
    132  CE2       43.5170   24.4000  120.4540 C.ar  143  TRP143      0.0810
    133  CE3       41.9550   23.3200  118.9580 C.ar  143  TRP143      0.0012
    134  CZ2       43.9930   25.2240  119.4390 C.ar  143  TRP143      0.0191
    135  CZ3       42.4310   24.1350  117.9490 C.ar  143  TRP143      0.0001
    136  CH2       43.4420   25.0750  118.1950 C.ar  143  TRP143      0.0015
    137  N         39.5560   19.5230  123.0290 N.am  144  PHE144     -0.1974
    138  CA        38.2650   18.8540  122.9910 C.3   144  PHE144      0.1639
    139  C         38.0030   17.9760  124.2060 C.2   144  PHE144      0.2290
    140  O         36.8780   17.4890  124.3660 O.2   144  PHE144     -0.2864
    141  CB        38.1530   18.0250  121.7090 C.3   144  PHE144      0.0560
    142  CG        38.4270   18.8180  120.4680 C.ar  144  PHE144     -0.0200
    143  CD1       37.5020   19.7390  120.0060 C.ar  144  PHE144     -0.0042
    144  CD2       39.6170   18.6640  119.7760 C.ar  144  PHE144     -0.0042
    145  CE1       37.7490   20.4810  118.8700 C.ar  144  PHE144     -0.0003
    146  CE2       39.8710   19.4030  118.6390 C.ar  144  PHE144     -0.0003
    147  CZ        38.9350   20.3140  118.1850 C.ar  144  PHE144     -0.0000
@<TRIPOS>BOND
     1    13    11   ar
     2    13    14   ar
     3    11     8   ar
     4     1     2    1
     5    14    12   ar
     6     2     5    1
     7     2     3    1
     8    15    16    1
     9     8     6   ar
    10     8    10   ar
    11     5     6    1
    12     4     3    2
    13    12    10   ar
    14    16    17    1
    15    16    19    1
    16     6     7   ar
    17    10     9   ar
    18    20    19    1
    19    20    21    1
    20    18    17    2
    21    24    23    1
    22    60    61    1
    23    60    57    1
    24    32    30    1
    25     7     9   ar
    26    21    22    1
    27    59    58    2
    28    30    27    1
    29    30    31    1
    30    23    22    2
    31    23    25    1
    32    61    62    1
    33    26    27    1
    34    27    28    1
    35    57    58    1
    36    57    56    1
    37    58    63   am
    38    68    70    1
    39    68    67    1
    40    62    56    1
    41    56    50   am
    42    46    45    1
    43    28    29    2
    44    28    33   am
    45    63    64    1
    46    64    67    1
    47    64    65    1
    48    44    43    2
    49    67    69    1
    50    33    34    1
    51    50    51    2
    52    50    49    1
    53    45    47    1
    54    45    42    1
    55    66    65    2
    56    65    71   am
    57    43    42    1
    58    43    48   am
    59    41    42    1
    60    41    35   am
    61    54    53   ar
    62    49    48    1
    63    49    52    1
    64    34    35    1
    65    34    37    1
    66    35    36    2
    67    71    72    1
    68    53    52    1
    69    53    55   ar
    70    37    38    1
    71    38    39    2
    72    38    40   am
    73    72    73    1
    74    72    75    1
    75    73    74    2
    76    80    81   ar
    77    80    78   ar
    78    81    79   ar
    79    78    76   ar
    80   113   112    1
    81    79    77   ar
    82    76    77   ar
    83    76    75    1
    84   135   136   ar
    85   135   133   ar
    86   147   146   ar
    87   147   145   ar
    88   136   134   ar
    89   105   106    1
    90   105   104    1
    91   146   144   ar
    92   112   111    1
    93   112   114    1
    94   145   143   ar
    95   133   130   ar
    96   103   104    1
    97   103   102    1
    98    82    83    1
    99   111   108    1
   100   134   132   ar
   101    99    98    1
   102    99   102    1
   103    99   100    1
   104    98    92   am
   105   144   142   ar
   106   107   100   am
   107   107   108    1
   108    97    95   am
   109   143   142   ar
   110   100   101    2
   111   130   132   ar
   112   130   128   ar
   113   110   109    2
   114   108   109    1
   115    94    95    1
   116    94    91    1
   117   132   131   ar
   118   142   141    1
   119    90    91    1
   120    90    84   am
   121    83    84    1
   122    83    86    1
   123    88    87    2
   124    95    96    2
   125    92    91    1
   126    92    93    2
   127    84    85    2
   128    87    86    1
   129    87    89   am
   130   128   127    1
   131   128   129   ar
   132   141   138    1
   133   127   124    1
   134   131   129   ar
   135   138   137    1
   136   138   139    1
   137   137   125   am
   138   124   125    1
   139   124   123    1
   140   125   126    2
   141   123   117   am
   142   139   140    2
   143   115   116    1
   144   117   116    1
   145   117   118    2
   146   116   119    1
   147   119   120    1
   148   120   122    1
   149   120   121    1
