@<TRIPOS>MOLECULE
tmp/5l8rA07.pdb
 100 99 0 0 0
SMALL
GASTEIGER

@<TRIPOS>ATOM
      1  N         72.5200   26.4960   61.4550 N.3     2  TRP2       -0.1227
      2  CA        71.5890   27.6190   61.4150 C.3     2  TRP2        0.1737
      3  C         70.8810   27.8040   62.7510 C.2     2  TRP2        0.2595
      4  O         70.6300   28.9360   63.1740 O.2     2  TRP2       -0.2718
      5  CB        70.5670   27.4130   60.3000 C.3     2  TRP2        0.0564
      6  CG        69.6580   26.2630   60.5680 C.ar    2  TRP2        0.0003
      7  CD1       69.9600   24.9400   60.4510 C.ar    2  TRP2        0.0946
      8  CD2       68.3010   26.3270   61.0200 C.ar    2  TRP2        0.0152
      9  NE1       68.8740   24.1730   60.7920 N.ar    2  TRP2       -0.2442
     10  CE2       67.8410   25.0010   61.1470 C.ar    2  TRP2        0.0810
     11  CE3       67.4270   27.3760   61.3240 C.ar    2  TRP2        0.0012
     12  CZ2       66.5480   24.6940   61.5660 C.ar    2  TRP2        0.0191
     13  CZ3       66.1400   27.0700   61.7400 C.ar    2  TRP2        0.0001
     14  CH2       65.7140   25.7390   61.8570 C.ar    2  TRP2        0.0015
     15  N         70.5430   26.7110   63.4280 N.am    3  MET3       -0.1979
     16  CA        69.8130   26.7650   64.6930 C.3     3  MET3        0.1605
     17  C         70.5970   25.9560   65.7150 C.2     3  MET3        0.2287
     18  O         70.4660   24.7250   65.7800 O.2     3  MET3       -0.2864
     19  CB        68.3870   26.2440   64.5290 C.3     3  MET3        0.0413
     20  CG        67.4760   26.4750   65.7240 C.3     3  MET3        0.0598
     21  SD        65.7740   25.9680   65.3740 S.3     3  MET3       -0.1393
     22  CE        65.0510   26.0210   67.0090 C.3     3  MET3        0.0692
     23  N         69.9150   22.1830   67.5100 N.3     6  GLN6       -0.1231
     24  CA        69.0600   21.3410   66.6830 C.3     6  GLN6        0.1683
     25  C         69.8950   20.3380   65.9100 C.2     6  GLN6        0.2434
     26  O         70.9010   20.7230   65.2940 O.2     6  GLN6       -0.2733
     27  CB        68.2490   22.1900   65.7090 C.3     6  GLN6        0.0380
     28  CG        67.0890   22.9060   66.3510 C.3     6  GLN6        0.0905
     29  CD        66.1360   21.9540   67.0400 C.2     6  GLN6        0.2608
     30  OE1       66.0940   21.8850   68.2690 O.2     6  GLN6       -0.2717
     31  NE2       65.3640   21.2120   66.2510 N.am    6  GLN6       -0.0878
     32  N         69.5140   19.0620   65.9190 N.am    7  PRO7       -0.2718
     33  CA        70.2520   18.0690   65.1290 C.3     7  PRO7        0.1535
     34  C         70.1570   18.3830   63.6430 C.2     7  PRO7        0.2598
     35  O         69.0670   18.5730   63.1000 O.2     7  PRO7       -0.2715
     36  CB        69.5510   16.7480   65.4740 C.3     7  PRO7        0.0310
     37  CG        68.8160   17.0160   66.7520 C.3     7  PRO7        0.0237
     38  CD        68.4190   18.4550   66.6910 C.3     7  PRO7        0.0939
     39  N         71.3150   18.4480   62.9910 N.am    8  ARG8       -0.1964
     40  CA        71.3410   18.6760   61.5570 C.3     8  ARG8        0.1714
     41  C         70.6460   17.5230   60.8330 C.2     8  ARG8        0.2458
     42  O         70.6200   16.3930   61.3310 O.2     8  ARG8       -0.2730
     43  CB        72.7780   18.8110   61.0580 C.3     8  ARG8        0.0347
     44  CG        73.5410   19.9890   61.6360 C.3     8  ARG8        0.0492
     45  CD        74.9480   20.0500   61.0650 C.3     8  ARG8        0.2205
     46  NE        74.9380   20.2230   59.6150 N.pl3   8  ARG8       -0.0865
     47  CZ        75.1030   21.3900   59.0000 C.cat   8  ARG8        0.5346
     48  NH1       75.2980   22.4950   59.7090 N.pl3   8  ARG8        0.1354
     49  NH2       75.0770   21.4530   57.6750 N.pl3   8  ARG8        0.1354
     50  N         70.0570   17.7830   59.6670 N.am    9  PRO9       -0.2727
     51  CA        69.4680   16.6930   58.8840 C.3     9  PRO9        0.1402
     52  C         70.5180   15.6620   58.5020 C.2     9  PRO9        0.2269
     53  O         71.7180   15.9410   58.4480 O.2     9  PRO9       -0.2865
     54  CB        68.9060   17.4040   57.6470 C.3     9  PRO9        0.0296
     55  CG        68.6750   18.8070   58.0980 C.3     9  PRO9        0.0237
     56  CD        69.7830   19.1010   59.0720 C.3     9  PRO9        0.0939
     57  N         69.7360   23.7220   57.1470 N.3    22  PHE22      -0.1241
     58  CA        68.3730   24.2400   57.2000 C.3    22  PHE22       0.1605
     59  C         67.5270   23.5590   56.1300 C.2    22  PHE22       0.2264
     60  O         67.6570   23.8610   54.9400 O.2    22  PHE22      -0.2867
     61  CB        68.3610   25.7570   57.0200 C.3    22  PHE22       0.0534
     62  CG        66.9810   26.3490   56.9700 C.ar   22  PHE22      -0.0203
     63  CD1       66.2710   26.5860   58.1370 C.ar   22  PHE22      -0.0042
     64  CD2       66.3910   26.6680   55.7570 C.ar   22  PHE22      -0.0042
     65  CE1       64.9960   27.1300   58.0960 C.ar   22  PHE22      -0.0003
     66  CE2       65.1150   27.2100   55.7070 C.ar   22  PHE22      -0.0003
     67  CZ        64.4180   27.4430   56.8780 C.ar   22  PHE22      -0.0000
     68  N         63.8790   22.3030   57.4300 N.3    24  PRO24      -0.2116
     69  CA        62.9560   21.7490   58.4350 C.3    24  PRO24       0.1372
     70  C         61.8190   20.9300   57.8510 C.2    24  PRO24       0.2244
     71  O         61.2150   20.1340   58.5820 O.2    24  PRO24      -0.2868
     72  CB        62.4320   23.0000   59.1570 C.3    24  PRO24       0.0268
     73  CG        62.6240   24.1130   58.1790 C.3    24  PRO24       0.0207
     74  CD        63.8790   23.7770   57.4330 C.3    24  PRO24       0.0892
     75  N         62.3580   18.8550   55.2670 N.3    26  ARG26      -0.1245
     76  CA        63.0070   17.6990   54.6460 C.3    26  ARG26       0.1563
     77  C         62.7420   17.6550   53.1430 C.2    26  ARG26       0.2260
     78  O         62.5510   16.5870   52.5570 O.2    26  ARG26      -0.2867
     79  CB        62.5720   16.3940   55.3160 C.3    26  ARG26       0.0307
     80  CG        62.8810   16.3280   56.8010 C.3    26  ARG26       0.0489
     81  CD        64.3770   16.2490   57.0510 C.3    26  ARG26       0.2205
     82  NE        64.6910   16.1620   58.4750 N.pl3  26  ARG26      -0.0865
     83  CZ        64.9960   17.2060   59.2390 C.cat  26  ARG26       0.5346
     84  NH1       65.0340   18.4240   58.7170 N.pl3  26  ARG26       0.1354
     85  NH2       65.2660   17.0340   60.5240 N.pl3  26  ARG26       0.1354
     86  N         66.1130   37.8990   50.2950 N.3   154  LEU154     -0.1245
     87  CA        65.4230   38.4790   51.4430 C.3   154  LEU154      0.1561
     88  C         65.0900   39.9470   51.1950 C.2   154  LEU154      0.2260
     89  O         63.9630   40.3930   51.4520 O.2   154  LEU154     -0.2867
     90  CB        66.2780   38.3190   52.7000 C.3   154  LEU154      0.0270
     91  CG        65.6320   38.7890   54.0040 C.3   154  LEU154      0.0019
     92  CD1       64.3310   38.0420   54.2510 C.3   154  LEU154      0.0001
     93  CD2       66.5870   38.6110   55.1740 C.3   154  LEU154      0.0001
     94  N         62.1450   40.3110   48.9160 N.3   157  VAL157     -0.1245
     95  CA        60.9190   40.0890   49.6790 C.3   157  VAL157      0.1561
     96  C         60.5390   41.3470   50.4510 C.2   157  VAL157      0.2260
     97  O         59.3670   41.7490   50.4780 O.2   157  VAL157     -0.2867
     98  CB        61.0810   38.8780   50.6150 C.3   157  VAL157      0.0252
     99  CG1       59.8350   38.6940   51.4670 C.3   157  VAL157      0.0019
    100  CG2       61.3560   37.6330   49.8080 C.3   157  VAL157      0.0019
@<TRIPOS>BOND
     1    94    95    1
     2    95    96    1
     3    95    98    1
     4   100    98    1
     5    86    87    1
     6    96    97    2
     7    98    99    1
     8    88    87    1
     9    88    89    2
    10    87    90    1
    11    78    77    2
    12    90    91    1
    13    77    76    1
    14    91    92    1
    15    91    93    1
    16    76    75    1
    17    76    79    1
    18    60    59    2
    19    79    80    1
    20    66    64   ar
    21    66    67   ar
    22    64    62   ar
    23    59    58    1
    24    80    81    1
    25    67    65   ar
    26    62    61    1
    27    62    63   ar
    28    61    58    1
    29    81    82    1
    30    57    58    1
    31    68    74    1
    32    68    69    1
    33    74    73    1
    34    54    55    1
    35    54    51    1
    36    49    47    1
    37    70    69    1
    38    70    71    2
    39    65    63   ar
    40    55    56    1
    41    73    72    1
    42    69    72    1
    43    53    52    2
    44    82    83    2
    45    52    51    1
    46    84    83    1
    47    51    50    1
    48    47    46    2
    49    47    48    1
    50    56    50    1
    51    83    85    1
    52    46    45    1
    53    50    41   am
    54     5     6    1
    55     5     2    1
    56     7     6   ar
    57     7     9   ar
    58     6     8   ar
    59     9    10   ar
    60    41    42    2
    61    41    40    1
    62     8    10   ar
    63     8    11   ar
    64    43    40    1
    65    43    44    1
    66    45    44    1
    67    10    12   ar
    68    11    13   ar
    69     2     1    1
    70     2     3    1
    71    40    39    1
    72    12    14   ar
    73    13    14   ar
    74     3     4    2
    75     3    15   am
    76    39    34   am
    77    35    34    2
    78    15    16    1
    79    34    33    1
    80    19    16    1
    81    19    20    1
    82    16    17    1
    83    33    36    1
    84    33    32    1
    85    26    25    2
    86    21    20    1
    87    21    22    1
    88    36    37    1
    89    27    28    1
    90    27    24    1
    91    17    18    2
    92    25    32   am
    93    25    24    1
    94    32    38    1
    95    31    29   am
    96    28    29    1
    97    24    23    1
    98    38    37    1
    99    29    30    2
