@<TRIPOS>MOLECULE
tmp/5l8rB17.pdb
 170 163 0 0 0
SMALL
GASTEIGER

@<TRIPOS>ATOM
      1  N         25.3700   16.0430  118.3920 N.3    54  ARG54      -0.1245
      2  CA        25.9820   17.1790  119.0740 C.3    54  ARG54       0.1563
      3  C         25.3900   18.5010  118.5910 C.2    54  ARG54       0.2260
      4  O         25.0120   19.3610  119.4030 O.2    54  ARG54      -0.2867
      5  CB        27.4960   17.1310  118.8760 C.3    54  ARG54       0.0307
      6  CG        28.1380   15.9500  119.5900 C.3    54  ARG54       0.0489
      7  CD        29.4830   15.5630  119.0020 C.3    54  ARG54       0.2205
      8  NE        30.1260   14.5150  119.7940 N.pl3  54  ARG54      -0.0865
      9  CZ        31.2990   13.9560  119.5060 C.cat  54  ARG54       0.5346
     10  NH1       31.9770   14.3370  118.4330 N.pl3  54  ARG54       0.1354
     11  NH2       31.7950   13.0090  120.2940 N.pl3  54  ARG54       0.1354
     12  N         22.0430   18.9150  120.0710 N.3    57  MET57      -0.1230
     13  CA        22.0450   19.2790  121.4840 C.3    57  MET57       0.1702
     14  C         22.3240   20.7680  121.6590 C.2    57  MET57       0.2592
     15  O         21.6250   21.4600  122.4160 O.2    57  MET57      -0.2718
     16  CB        23.0630   18.4260  122.2430 C.3    57  MET57       0.0401
     17  CG        22.5900   16.9970  122.4950 C.3    57  MET57       0.0596
     18  SD        23.7000   15.9920  123.5060 S.3    57  MET57      -0.1393
     19  CE        24.9470   15.5660  122.2920 C.3    57  MET57       0.0692
     20  N         23.3320   21.2850  120.9470 N.am   58  LEU58      -0.1980
     21  CA        23.5670   22.7260  120.9580 C.3    58  LEU58       0.1596
     22  C         22.3370   23.4860  120.4740 C.2    58  LEU58       0.2287
     23  O         21.9850   24.5370  121.0250 O.2    58  LEU58      -0.2864
     24  CB        24.7800   23.0660  120.0930 C.3    58  LEU58       0.0297
     25  CG        26.1200   22.5140  120.5730 C.3    58  LEU58       0.0022
     26  CD1       27.1930   22.7520  119.5250 C.3    58  LEU58       0.0001
     27  CD2       26.5080   23.1480  121.8960 C.3    58  LEU58       0.0001
     28  N         19.5740   23.5270  123.0620 N.3    61  ALA61      -0.1245
     29  CA        19.8840   24.5740  124.0310 C.3    61  ALA61       0.1562
     30  C         19.5180   25.9510  123.4890 C.2    61  ALA61       0.2260
     31  O         18.8040   26.7180  124.1440 O.2    61  ALA61      -0.2867
     32  CB        21.3630   24.5180  124.4090 C.3    61  ALA61       0.0290
     33  N         16.4270   27.1790  125.7930 N.3    65  ILE65      -0.1245
     34  CA        16.8680   27.9820  126.9310 C.3    65  ILE65       0.1561
     35  C         16.5450   29.4580  126.7020 C.2    65  ILE65       0.2260
     36  O         15.8890   30.0660  127.5590 O.2    65  ILE65      -0.2867
     37  CB        18.3610   27.7620  127.2260 C.3    65  ILE65       0.0252
     38  CG1       18.6490   26.2850  127.5060 C.3    65  ILE65       0.0019
     39  CG2       18.7940   28.6150  128.4120 C.3    65  ILE65       0.0019
     40  CD1       18.0540   25.7800  128.8020 C.3    65  ILE65       0.0001
     41  N         44.9910   13.4840  121.9020 N.3   132  THR132     -0.1203
     42  CA        45.1500   12.2300  122.6290 C.3   132  THR132      0.1994
     43  C         44.2220   11.1180  122.1570 C.2   132  THR132      0.2618
     44  O         44.5180    9.9430  122.3950 O.2   132  THR132     -0.2717
     45  CB        44.9120   12.4560  124.1260 C.3   132  THR132      0.1784
     46  OG1       43.5650   12.8970  124.3350 O.3   132  THR132     -0.2211
     47  CG2       45.8680   13.5050  124.6640 C.3   132  THR132      0.0376
     48  N         43.1110   11.4530  121.5100 N.am  133  GLY133     -0.1956
     49  CA        42.1150   10.4450  121.1930 C.3   133  GLY133      0.1869
     50  C         42.6460    9.4050  120.2220 C.2   133  GLY133      0.2309
     51  O         43.3990    9.7090  119.2960 O.2   133  GLY133     -0.2863
     52  N         35.9380   10.9660  118.7610 N.3   138  TYR138     -0.1228
     53  CA        36.2270   11.3550  120.1400 C.3   138  TYR138      0.1721
     54  C         37.6630   11.8590  120.1660 C.2   138  TYR138      0.2437
     55  O         38.5730   11.1660  120.6430 O.2   138  TYR138     -0.2733
     56  CB        35.9970   10.1850  121.0970 C.3   138  TYR138      0.0547
     57  CG        34.6230    9.5730  120.9430 C.ar  138  TYR138     -0.0200
     58  CD1       33.5220   10.1240  121.5830 C.ar  138  TYR138     -0.0009
     59  CD2       34.4220    8.4590  120.1390 C.ar  138  TYR138     -0.0009
     60  CE1       32.2610    9.5760  121.4390 C.ar  138  TYR138      0.0417
     61  CE2       33.1620    7.9040  119.9860 C.ar  138  TYR138      0.0417
     62  CZ        32.0870    8.4670  120.6400 C.ar  138  TYR138      0.1957
     63  OH        30.8320    7.9200  120.4920 O.3   138  TYR138     -0.2866
     64  N         37.8980   13.0780  119.6690 N.am  139  PRO139     -0.2718
     65  CA        39.2780   13.5040  119.3770 C.3   139  PRO139      0.1535
     66  C         40.1530   13.6720  120.6040 C.2   139  PRO139      0.2599
     67  O         41.3770   13.5210  120.4940 O.2   139  PRO139     -0.2715
     68  CB        39.0850   14.8430  118.6500 C.3   139  PRO139      0.0310
     69  CG        37.6540   14.8500  118.2100 C.3   139  PRO139      0.0237
     70  CD        36.9100   14.0810  119.2440 C.3   139  PRO139      0.0939
     71  N         39.5790   13.9930  121.7600 N.am  140  GLY140     -0.1955
     72  CA        40.4210   14.2110  122.9190 C.3   140  GLY140      0.1869
     73  C         41.3190   15.4240  122.7440 C.2   140  GLY140      0.2309
     74  O         41.0250   16.3530  121.9830 O.2   140  GLY140     -0.2863
     75  N         39.5560   19.5230  123.0290 N.3   144  PHE144     -0.1227
     76  CA        38.2650   18.8540  122.9910 C.3   144  PHE144      0.1736
     77  C         38.0030   17.9760  124.2060 C.2   144  PHE144      0.2595
     78  O         36.8780   17.4890  124.3660 O.2   144  PHE144     -0.2718
     79  CB        38.1530   18.0250  121.7090 C.3   144  PHE144      0.0547
     80  CG        38.4270   18.8180  120.4680 C.ar  144  PHE144     -0.0202
     81  CD1       37.5020   19.7390  120.0060 C.ar  144  PHE144     -0.0042
     82  CD2       39.6170   18.6640  119.7760 C.ar  144  PHE144     -0.0042
     83  CE1       37.7490   20.4810  118.8700 C.ar  144  PHE144     -0.0003
     84  CE2       39.8710   19.4030  118.6390 C.ar  144  PHE144     -0.0003
     85  CZ        38.9350   20.3140  118.1850 C.ar  144  PHE144     -0.0000
     86  N         38.9980   17.7730  125.0640 N.am  145  ASP145     -0.1974
     87  CA        38.8100   17.0230  126.2970 C.3   145  ASP145      0.1709
     88  C         39.7430   17.5750  127.3700 C.2   145  ASP145      0.2293
     89  O         40.6050   16.8450  127.8790 O.2   145  ASP145     -0.2864
     90  CB        39.0660   15.5310  126.0610 C.3   145  ASP145      0.1436
     91  CG        38.5750   14.6610  127.2030 C.2   145  ASP145      0.3671
     92  OD1       37.4030   14.8120  127.6080 O.co2 145  ASP145     -0.2456
     93  OD2       39.3630   13.8270  127.6980 O.co2 145  ASP145     -0.2456
     94  N         37.8860   13.7750  131.0460 N.3   149  TRP149     -0.1227
     95  CA        36.7870   12.8360  131.2460 C.3   149  TRP149      0.1737
     96  C         36.6360   11.8550  130.0890 C.2   149  TRP149      0.2596
     97  O         35.8620   10.8990  130.2080 O.2   149  TRP149     -0.2718
     98  CB        35.4600   13.5860  131.4430 C.3   149  TRP149      0.0564
     99  CG        35.2630   14.2620  132.7910 C.ar  149  TRP149      0.0003
    100  CD1       35.8560   15.4120  133.2240 C.ar  149  TRP149      0.0946
    101  CD2       34.3830   13.8450  133.8500 C.ar  149  TRP149      0.0152
    102  NE1       35.4170   15.7290  134.4860 N.ar  149  TRP149     -0.2442
    103  CE2       34.5130   14.7840  134.8950 C.ar  149  TRP149      0.0810
    104  CE3       33.5070   12.7660  134.0190 C.ar  149  TRP149      0.0012
    105  CZ2       33.8010   14.6750  136.0930 C.ar  149  TRP149      0.0191
    106  CZ3       32.8000   12.6610  135.2110 C.ar  149  TRP149      0.0001
    107  CH2       32.9520   13.6110  136.2300 C.ar  149  TRP149      0.0015
    108  N         37.3520   12.0620  128.9840 N.am  150  GLY150     -0.1942
    109  CA        37.1860   11.2510  127.7940 C.3   150  GLY150      0.2014
    110  C         38.1450   10.0910  127.6450 C.2   150  GLY150      0.2639
    111  O         37.8430    9.1260  126.9380 O.2   150  GLY150     -0.2714
    112  N         39.3080   10.1730  128.2810 N.am  151  SER151     -0.1949
    113  CA        40.2910    9.0930  128.2540 C.3   151  SER151      0.1924
    114  C         40.1260    8.3010  129.5430 C.2   151  SER151      0.2314
    115  O         40.5800    8.7250  130.6090 O.2   151  SER151     -0.2863
    116  CB        41.7050    9.6390  128.1040 C.3   151  SER151      0.2116
    117  OG        42.6460    8.5850  128.0130 O.3   151  SER151     -0.2180
    118  N         33.6880    4.5720  129.3870 N.3   157  LEU157     -0.1245
    119  CA        33.5020    5.2720  128.1240 C.3   157  LEU157      0.1561
    120  C         32.2480    4.7990  127.4060 C.2   157  LEU157      0.2260
    121  O         31.6020    5.5860  126.7080 O.2   157  LEU157     -0.2867
    122  CB        34.7240    5.0800  127.2290 C.3   157  LEU157      0.0270
    123  CG        36.0250    5.6420  127.7910 C.3   157  LEU157      0.0019
    124  CD1       37.1280    5.5650  126.7530 C.3   157  LEU157      0.0001
    125  CD2       35.8140    7.0700  128.2630 C.3   157  LEU157      0.0001
    126  N         29.3420    6.6380  129.2290 N.3   160  LEU160     -0.1231
    127  CA        29.2690    8.0590  128.9040 C.3   160  LEU160      0.1693
    128  C         28.8930    8.2870  127.4430 C.2   160  LEU160      0.2591
    129  O         28.0750    9.1620  127.1390 O.2   160  LEU160     -0.2718
    130  CB        30.6010    8.7330  129.2230 C.3   160  LEU160      0.0284
    131  CG        30.9880    9.0300  130.6680 C.3   160  LEU160      0.0019
    132  CD1       32.3960    9.6000  130.7090 C.3   160  LEU160      0.0001
    133  CD2       29.9980    9.9900  131.3020 C.3   160  LEU160      0.0001
    134  N         29.4900    7.5260  126.5220 N.am  161  ARG161     -0.1980
    135  CA        29.1590    7.6780  125.1080 C.3   161  ARG161      0.1597
    136  C         27.7090    7.2960  124.8400 C.2   161  ARG161      0.2287
    137  O         27.0360    7.9170  124.0050 O.2   161  ARG161     -0.2864
    138  CB        30.1010    6.8340  124.2500 C.3   161  ARG161      0.0334
    139  CG        31.5310    7.3380  124.2100 C.3   161  ARG161      0.0492
    140  CD        32.4130    6.3750  123.4390 C.3   161  ARG161      0.2205
    141  NE        33.8190    6.7630  123.4880 N.pl3 161  ARG161     -0.0865
    142  CZ        34.7800    6.1630  122.7950 C.cat 161  ARG161      0.5346
    143  NH1       34.4860    5.1470  121.9950 N.pl3 161  ARG161      0.1354
    144  NH2       36.0340    6.5810  122.8990 N.pl3 161  ARG161      0.1354
    145  N         25.3380    7.7620  127.0270 N.3   163  LYS163     -0.1231
    146  CA        24.6400    8.9660  127.4790 C.3   163  LYS163      0.1693
    147  C         24.6450   10.0510  126.4070 C.2   163  LYS163      0.2591
    148  O         23.6120   10.6820  126.1400 O.2   163  LYS163     -0.2718
    149  CB        25.2820    9.4890  128.7650 C.3   163  LYS163      0.0285
    150  CG        25.1550    8.5530  129.9570 C.3   163  LYS163      0.0035
    151  CD        25.8940    9.0920  131.1640 C.3   163  LYS163      0.0206
    152  CE        25.5790    8.2810  132.4100 C.3   163  LYS163      0.1093
    153  NZ        24.1340    8.3550  132.7610 N.3   163  LYS163     -0.1314
    154  N         25.8000   10.2760  125.7790 N.am  164  GLU164     -0.1979
    155  CA        25.9190   11.3040  124.7510 C.3   164  GLU164      0.1602
    156  C         24.9840   11.0270  123.5820 C.2   164  GLU164      0.2287
    157  O         24.2870   11.9280  123.1010 O.2   164  GLU164     -0.2864
    158  CB        27.3690   11.3820  124.2770 C.3   164  GLU164      0.0415
    159  CG        27.6610   12.4730  123.2650 C.3   164  GLU164      0.1163
    160  CD        29.0850   12.3990  122.7460 C.2   164  GLU164      0.3649
    161  OE1       29.7830   11.4180  123.0750 O.co2 164  GLU164     -0.2457
    162  OE2       29.5090   13.3130  122.0100 O.co2 164  GLU164     -0.2457
    163  N         21.1730   11.3690  124.6360 N.3   167  ASN167     -0.1240
    164  CA        20.8580   12.7920  124.7240 C.3   167  ASN167      0.1653
    165  C         20.7760   13.4220  123.3410 C.2   167  ASN167      0.2266
    166  O         19.8920   14.2460  123.0760 O.2   167  ASN167     -0.2867
    167  CB        21.9010   13.5140  125.5760 C.3   167  ASN167      0.1155
    168  CG        21.8020   13.1610  127.0420 C.2   167  ASN167      0.2627
    169  OD1       20.9670   13.7020  127.7660 O.2   167  ASN167     -0.2716
    170  ND2       22.6570   12.2510  127.4910 N.am  167  ASN167     -0.0877
@<TRIPOS>BOND
     1    85    84   ar
     2    85    83   ar
     3    69    68    1
     4    69    70    1
     5     1     2    1
     6    10     9    1
     7     3     2    1
     8     3     4    2
     9    84    82   ar
    10    68    65    1
    11    52    53    1
    12    83    81   ar
    13     5     2    1
    14     5     6    1
    15     7     6    1
    16     7     8    1
    17    70    64    1
    18    51    50    2
    19    65    64    1
    20    65    66    1
    21     9     8    2
    22     9    11    1
    23    26    25    1
    24    64    54   am
    25    82    80   ar
    26    61    59   ar
    27    61    62   ar
    28    81    80   ar
    29    12    13    1
    30    24    25    1
    31    24    21    1
    32    59    57   ar
    33    53    54    1
    34    53    56    1
    35    54    55    2
    36    50    49    1
    37    80    79    1
    38    22    21    1
    39    22    23    2
    40    63    62    1
    41    67    66    2
    42    25    27    1
    43    66    71   am
    44    62    60   ar
    45    57    56    1
    46    57    58   ar
    47    20    21    1
    48    20    14   am
    49    49    48    1
    50    60    58   ar
    51    13    14    1
    52    13    16    1
    53    48    43   am
    54    14    15    2
    55    79    76    1
    56    71    72    1
    57    41    42    1
    58    74    73    2
    59   143   142    1
    60   162   160   ar
    61    43    44    2
    62    43    42    1
    63    16    17    1
    64    19    18    1
    65    17    18    1
    66    42    45    1
    67    73    72    1
    68   160   161   ar
    69   160   159    1
    70   142   144    1
    71   142   141    2
    72    76    75    1
    73    76    77    1
    74    28    29    1
    75   166   165    2
    76   157   156    2
    77   159   158    1
    78   165   164    1
    79   140   141    1
    80   140   139    1
    81    30    29    1
    82    30    31    2
    83   156   155    1
    84   137   136    2
    85    29    32    1
    86    45    46    1
    87    45    47    1
    88    77    78    2
    89    77    86   am
    90   139   138    1
    91   138   135    1
    92   158   155    1
    93   163   164    1
    94   164   167    1
    95   155   154    1
    96   136   135    1
    97    86    87    1
    98   135   134    1
    99   167   168    1
   100   154   147   am
   101    33    34    1
   102    90    87    1
   103    90    91    1
   104   148   147    2
   105    87    88    1
   106   147   146    1
   107   134   128   am
   108    35    34    1
   109    35    36    2
   110   121   120    2
   111   124   123    1
   112    34    37    1
   113   111   110    2
   114   145   146    1
   115   168   170   am
   116   168   169    2
   117   129   128    2
   118    91    92   ar
   119    91    93   ar
   120    37    38    1
   121    37    39    1
   122   122   123    1
   123   122   119    1
   124    88    89    2
   125   120   119    1
   126   128   127    1
   127   146   149    1
   128    38    40    1
   129   110   109    1
   130   110   112   am
   131   123   125    1
   132   109   108    1
   133   117   116    1
   134   116   113    1
   135   119   118    1
   136   113   112    1
   137   113   114    1
   138   149   150    1
   139   127   130    1
   140   127   126    1
   141   108    96   am
   142   130   131    1
   143   114   115    2
   144   150   151    1
   145    96    97    2
   146    96    95    1
   147   131   132    1
   148   131   133    1
   149    94    95    1
   150   151   152    1
   151    95    98    1
   152    98    99    1
   153   152   153    1
   154    99   100   ar
   155    99   101   ar
   156   100   102   ar
   157   101   104   ar
   158   101   103   ar
   159   104   106   ar
   160   102   103   ar
   161   103   105   ar
   162   106   107   ar
   163   105   107   ar
