@<TRIPOS>MOLECULE
tmp/5l8rE41.pdb
 102 102 0 0 0
SMALL
GASTEIGER

@<TRIPOS>ATOM
      1  N          0.2450   28.2840   66.0150 N.3   653  TYR653     -0.1241
      2  CA         1.3810   29.0020   66.5790 C.3   653  TYR653      0.1605
      3  C          0.9480   30.3690   67.1000 C.2   653  TYR653      0.2264
      4  O          0.1490   31.0730   66.4720 O.2   653  TYR653     -0.2867
      5  CB         2.4860   29.1690   65.5340 C.3   653  TYR653      0.0534
      6  CG         3.3340   27.9370   65.2950 C.ar  653  TYR653     -0.0201
      7  CD1        2.9970   26.7060   65.8500 C.ar  653  TYR653     -0.0009
      8  CD2        4.4820   28.0120   64.5180 C.ar  653  TYR653     -0.0009
      9  CE1        3.7800   25.5790   65.6250 C.ar  653  TYR653      0.0417
     10  CE2        5.2680   26.9010   64.2940 C.ar  653  TYR653      0.0417
     11  CZ         4.9140   25.6850   64.8470 C.ar  653  TYR653      0.1957
     12  OH         5.7030   24.5870   64.6150 O.3   653  TYR653     -0.2866
     13  N          3.2020   21.8850   67.2680 N.3   662  LEU662     -0.1231
     14  CA         4.5020   21.2540   67.4720 C.3   662  LEU662      0.1693
     15  C          4.4020   19.7310   67.4270 C.2   662  LEU662      0.2592
     16  O          5.2570   19.0640   66.8340 O.2   662  LEU662     -0.2718
     17  CB         5.1010   21.7170   68.7990 C.3   662  LEU662      0.0284
     18  CG         5.4420   23.2030   68.9480 C.3   662  LEU662      0.0019
     19  CD1        5.9130   23.5050   70.3640 C.3   662  LEU662      0.0001
     20  CD2        6.4900   23.6380   67.9410 C.3   662  LEU662      0.0001
     21  N          3.3600   19.1600   68.0400 N.am  663  PHE663     -0.1976
     22  CA         3.2160   17.7070   68.0300 C.3   663  PHE663      0.1639
     23  C          2.8060   17.1940   66.6590 C.2   663  PHE663      0.2290
     24  O          3.1690   16.0760   66.2850 O.2   663  PHE663     -0.2864
     25  CB         2.2100   17.2590   69.0910 C.3   663  PHE663      0.0560
     26  CG         2.8360   16.9310   70.4180 C.ar  663  PHE663     -0.0200
     27  CD1        4.2070   16.9200   70.5690 C.ar  663  PHE663     -0.0042
     28  CD2        2.0520   16.6230   71.5070 C.ar  663  PHE663     -0.0042
     29  CE1        4.7790   16.6110   71.7880 C.ar  663  PHE663     -0.0003
     30  CE2        2.6150   16.3120   72.7250 C.ar  663  PHE663     -0.0003
     31  CZ         3.9800   16.3060   72.8660 C.ar  663  PHE663     -0.0000
     32  N          3.9580   18.4710   63.7740 N.3   665  LEU665     -0.1231
     33  CA         5.1940   18.3580   63.0010 C.3   665  LEU665      0.1693
     34  C          6.1050   17.2670   63.5510 C.2   665  LEU665      0.2592
     35  O          6.7060   16.5050   62.7810 O.2   665  LEU665     -0.2718
     36  CB         5.9270   19.6980   62.9720 C.3   665  LEU665      0.0284
     37  CG         5.3930   20.7590   62.0150 C.3   665  LEU665      0.0019
     38  CD1        6.2490   22.0020   62.1180 C.3   665  LEU665      0.0001
     39  CD2        5.3660   20.2380   60.5890 C.3   665  LEU665      0.0001
     40  N          6.2260   17.1760   64.8760 N.am  666  GLY666     -0.1957
     41  CA         7.1050   16.1740   65.4590 C.3   666  GLY666      0.1869
     42  C          6.6410   14.7550   65.1890 C.2   666  GLY666      0.2309
     43  O          7.4580   13.8510   64.9890 O.2   666  GLY666     -0.2863
     44  N          4.8330   13.8270   62.5290 N.3   668  HIS668     -0.1226
     45  CA         5.2910   13.6320   61.1550 C.3   668  HIS668      0.1752
     46  C          6.7530   13.1990   61.1290 C.2   668  HIS668      0.2596
     47  O          7.1370   12.2920   60.3750 O.2   668  HIS668     -0.2718
     48  CB         5.1240   14.9190   60.3470 C.3   668  HIS668      0.0759
     49  CG         3.7520   15.1340   59.7950 C.ar  668  HIS668      0.0818
     50  ND1        2.7130   15.6290   60.5530 N.ar  668  HIS668     -0.2268
     51  CD2        3.2610   14.9670   58.5440 C.ar  668  HIS668      0.1154
     52  CE1        1.6360   15.7400   59.7950 C.ar  668  HIS668      0.1986
     53  NE2        1.9390   15.3370   58.5750 N.ar  668  HIS668     -0.2212
     54  N          7.5830   13.8320   61.9610 N.am  669  PHE669     -0.1976
     55  CA         9.0130   13.5480   61.9360 C.3   669  PHE669      0.1639
     56  C          9.3070   12.1180   62.3760 C.2   669  PHE669      0.2290
     57  O         10.1120   11.4250   61.7440 O.2   669  PHE669     -0.2864
     58  CB         9.7730   14.5420   62.8170 C.3   669  PHE669      0.0560
     59  CG        11.2330   14.2280   62.9550 C.ar  669  PHE669     -0.0200
     60  CD1       12.1500   14.7440   62.0620 C.ar  669  PHE669     -0.0042
     61  CD2       11.6890   13.4060   63.9770 C.ar  669  PHE669     -0.0042
     62  CE1       13.5020   14.4510   62.1870 C.ar  669  PHE669     -0.0003
     63  CE2       13.0360   13.1060   64.1010 C.ar  669  PHE669     -0.0003
     64  CZ        13.9430   13.6340   63.2070 C.ar  669  PHE669     -0.0000
     65  N          7.3260    9.5990   62.3250 N.3   671  TRP671     -0.1227
     66  CA         6.7610    8.6800   61.3420 C.3   671  TRP671      0.1737
     67  C          7.6980    8.5070   60.1570 C.2   671  TRP671      0.2595
     68  O          7.9620    7.3810   59.7180 O.2   671  TRP671     -0.2718
     69  CB         5.3980    9.1810   60.8720 C.3   671  TRP671      0.0564
     70  CG         4.7550    8.3400   59.8090 C.ar  671  TRP671      0.0003
     71  CD1        3.8900    7.2990   60.0000 C.ar  671  TRP671      0.0946
     72  CD2        4.8970    8.4860   58.3870 C.ar  671  TRP671      0.0152
     73  NE1        3.4800    6.7900   58.7860 N.ar  671  TRP671     -0.2442
     74  CE2        4.0820    7.5000   57.7810 C.ar  671  TRP671      0.0810
     75  CE3        5.6230    9.3610   57.5670 C.ar  671  TRP671      0.0012
     76  CZ2        3.9830    7.3560   56.3980 C.ar  671  TRP671      0.0191
     77  CZ3        5.5120    9.2300   56.1910 C.ar  671  TRP671      0.0001
     78  CH2        4.7030    8.2270   55.6190 C.ar  671  TRP671      0.0015
     79  N          8.1980    9.6190   59.6120 N.am  672  ALA672     -0.1980
     80  CA         9.1780    9.5190   58.5350 C.3   672  ALA672      0.1597
     81  C         10.4630    8.8620   59.0170 C.2   672  ALA672      0.2287
     82  O         11.1410    8.1720   58.2480 O.2   672  ALA672     -0.2864
     83  CB         9.4750   10.9030   57.9690 C.3   672  ALA672      0.0319
     84  N         10.6850    5.1180   58.6570 N.3   675  LEU675     -0.1245
     85  CA        10.9270    4.5680   57.3270 C.3   675  LEU675      0.1561
     86  C         12.3910    4.1820   57.1320 C.2   675  LEU675      0.2260
     87  O         12.6950    3.3040   56.3120 O.2   675  LEU675     -0.2867
     88  CB        10.4720    5.5680   56.2630 C.3   675  LEU675      0.0270
     89  CG         8.9830    5.9100   56.3510 C.3   675  LEU675      0.0019
     90  CD1        8.5490    6.7800   55.1930 C.3   675  LEU675      0.0001
     91  CD2        8.1310    4.6530   56.3860 C.3   675  LEU675      0.0001
     92  N         12.6940    0.4080   55.7940 N.3   679  PHE679     -0.1241
     93  CA        13.1320    0.2200   54.4130 C.3   679  PHE679      0.1605
     94  C         14.5450   -0.3440   54.2920 C.2   679  PHE679      0.2264
     95  O         14.9520   -0.6950   53.1790 O.2   679  PHE679     -0.2867
     96  CB        13.0790    1.5420   53.6250 C.3   679  PHE679      0.0534
     97  CG        11.6990    2.1330   53.4630 C.ar  679  PHE679     -0.0203
     98  CD1       10.5660    1.4690   53.9100 C.ar  679  PHE679     -0.0042
     99  CD2       11.5450    3.3590   52.8330 C.ar  679  PHE679     -0.0042
    100  CE1        9.3040    2.0280   53.7460 C.ar  679  PHE679     -0.0003
    101  CE2       10.2870    3.9230   52.6610 C.ar  679  PHE679     -0.0003
    102  CZ         9.1650    3.2590   53.1210 C.ar  679  PHE679     -0.0000
@<TRIPOS>BOND
     1   101    99   ar
     2   101   102   ar
     3    99    97   ar
     4   102   100   ar
     5    95    94    2
     6    97    96    1
     7    97    98   ar
     8    96    93    1
     9   100    98   ar
    10    94    93    1
    11    93    92    1
    12    90    89    1
    13    78    77   ar
    14    78    76   ar
    15    77    75   ar
    16    88    89    1
    17    88    85    1
    18    87    86    2
    19    89    91    1
    20    76    74   ar
    21    86    85    1
    22    85    84    1
    23    75    72   ar
    24    74    72   ar
    25    74    73   ar
    26    83    80    1
    27    82    81    2
    28    72    70   ar
    29    80    81    1
    30    80    79    1
    31    51    53   ar
    32    51    49   ar
    33    53    52   ar
    34    73    71   ar
    35    79    67   am
    36    68    67    2
    37    52    50   ar
    38    49    48    1
    39    49    50   ar
    40    70    71   ar
    41    70    69    1
    42    67    66    1
    43    48    45    1
    44    47    46    2
    45    39    37    1
    46    69    66    1
    47    46    45    1
    48    46    54   am
    49    45    44    1
    50    66    65    1
    51    57    56    2
    52    55    54    1
    53    55    56    1
    54    55    58    1
    55    37    38    1
    56    37    36    1
    57    60    62   ar
    58    60    59   ar
    59    62    64   ar
    60    35    34    2
    61    58    59    1
    62    59    61   ar
    63    36    33    1
    64    33    34    1
    65    33    32    1
    66    64    63   ar
    67    34    40   am
    68    61    63   ar
    69    10     8   ar
    70    10    11   ar
    71     8     6   ar
    72    12    11    1
    73    11     9   ar
    74    40    41    1
    75    43    42    2
    76    42    41    1
    77     6     5    1
    78     6     7   ar
    79     5     2    1
    80     9     7   ar
    81     1     2    1
    82    24    23    2
    83     4     3    2
    84     2     3    1
    85    23    22    1
    86    16    15    2
    87    13    14    1
    88    15    14    1
    89    15    21   am
    90    14    17    1
    91    20    18    1
    92    22    21    1
    93    22    25    1
    94    17    18    1
    95    18    19    1
    96    25    26    1
    97    26    27   ar
    98    26    28   ar
    99    27    29   ar
   100    28    30   ar
   101    29    31   ar
   102    30    31   ar
