@<TRIPOS>MOLECULE
tmp/5l8rE20.pdb
 111 106 0 0 0
SMALL
GASTEIGER

@<TRIPOS>ATOM
      1  N        -19.9870  -32.4700   61.9720 N.3   323  PHE323     -0.1227
      2  CA       -18.9960  -31.7390   61.1950 C.3   323  PHE323      0.1736
      3  C        -17.6860  -31.5580   61.9420 C.2   323  PHE323      0.2596
      4  O        -16.6250  -31.4840   61.3140 O.2   323  PHE323     -0.2718
      5  CB       -19.5330  -30.3580   60.8020 C.3   323  PHE323      0.0547
      6  CG       -20.7380  -30.3990   59.9070 C.ar  323  PHE323     -0.0202
      7  CD1      -20.6010  -30.2780   58.5340 C.ar  323  PHE323     -0.0042
      8  CD2      -22.0110  -30.5430   60.4380 C.ar  323  PHE323     -0.0042
      9  CE1      -21.7130  -30.3090   57.7020 C.ar  323  PHE323     -0.0003
     10  CE2      -23.1270  -30.5720   59.6150 C.ar  323  PHE323     -0.0003
     11  CZ       -22.9770  -30.4540   58.2430 C.ar  323  PHE323     -0.0000
     12  N        -17.7360  -31.4900   63.2680 N.am  324  THR324     -0.1953
     13  CA       -16.5890  -31.1060   64.0730 C.3   324  THR324      0.1897
     14  C        -16.0020  -32.2520   64.8830 C.2   324  THR324      0.2313
     15  O        -15.0860  -32.0210   65.6790 O.2   324  THR324     -0.2863
     16  CB       -16.9840  -29.9580   65.0090 C.3   324  THR324      0.1794
     17  OG1      -18.0560  -30.3840   65.8610 O.3   324  THR324     -0.2208
     18  CG2      -17.4380  -28.7500   64.2000 C.3   324  THR324      0.0378
     19  N        -11.3470  -29.6720   67.3810 N.3   416  LEU416     -0.1245
     20  CA       -11.6230  -28.4700   66.5990 C.3   416  LEU416      0.1561
     21  C        -10.3330  -27.8450   66.0820 C.2   416  LEU416      0.2260
     22  O        -10.2110  -27.5280   64.8890 O.2   416  LEU416     -0.2867
     23  CB       -12.4020  -27.4650   67.4480 C.3   416  LEU416      0.0270
     24  CG       -13.7730  -27.8930   67.9730 C.3   416  LEU416      0.0019
     25  CD1      -14.2880  -26.9220   69.0330 C.3   416  LEU416      0.0001
     26  CD2      -14.7580  -28.0080   66.8320 C.3   416  LEU416      0.0001
     27  N         -8.7680  -29.9290   63.3040 N.3   419  ARG419     -0.1231
     28  CA        -9.4670  -29.8220   62.0260 C.3   419  ARG419      0.1694
     29  C         -9.1520  -28.4950   61.3390 C.2   419  ARG419      0.2591
     30  O         -8.8540  -28.4570   60.1320 O.2   419  ARG419     -0.2718
     31  CB       -10.9720  -29.9940   62.2460 C.3   419  ARG419      0.0321
     32  CG       -11.3300  -31.3740   62.7710 C.3   419  ARG419      0.0489
     33  CD       -12.7930  -31.5210   63.1550 C.3   419  ARG419      0.2205
     34  NE       -13.0810  -32.8820   63.6030 N.pl3 419  ARG419     -0.0865
     35  CZ       -13.4180  -33.8810   62.7930 C.cat 419  ARG419      0.5346
     36  NH1      -13.5190  -33.6720   61.4880 N.pl3 419  ARG419      0.1354
     37  NH2      -13.6510  -35.0910   63.2840 N.pl3 419  ARG419      0.1354
     38  N         -9.1980  -27.3930   62.0980 N.am  420  VAL420     -0.1980
     39  CA        -8.8020  -26.0970   61.5450 C.3   420  VAL420      0.1595
     40  C         -7.4180  -26.1950   60.9150 C.2   420  VAL420      0.2287
     41  O         -7.2260  -25.8890   59.7280 O.2   420  VAL420     -0.2864
     42  CB        -8.8530  -25.0080   62.6320 C.3   420  VAL420      0.0276
     43  CG1       -8.1560  -23.7490   62.1570 C.3   420  VAL420      0.0022
     44  CG2      -10.2950  -24.7050   63.0070 C.3   420  VAL420      0.0022
     45  N         -6.0980  -28.6430   59.8190 N.3   422  ARG422     -0.1231
     46  CA        -6.1630  -29.5950   58.7250 C.3   422  ARG422      0.1694
     47  C         -6.8300  -29.0310   57.4780 C.2   422  ARG422      0.2592
     48  O         -6.8360  -29.7100   56.4450 O.2   422  ARG422     -0.2718
     49  CB        -6.8850  -30.8720   59.1800 C.3   422  ARG422      0.0321
     50  CG        -5.9840  -32.1040   59.2030 C.3   422  ARG422      0.0489
     51  CD        -6.5690  -33.2900   59.9820 C.3   422  ARG422      0.2205
     52  NE        -7.9110  -33.6750   59.5450 N.pl3 422  ARG422     -0.0865
     53  CZ        -8.9570  -33.7520   60.3610 C.cat 422  ARG422      0.5346
     54  NH1       -8.8060  -33.4860   61.6510 N.pl3 422  ARG422      0.1354
     55  NH2      -10.1450  -34.0980   59.8960 N.pl3 422  ARG422      0.1354
     56  N         -7.3870  -27.8170   57.5300 N.am  423  HIS423     -0.1976
     57  CA        -7.7830  -27.1390   56.2820 C.3   423  HIS423      0.1656
     58  C         -7.4050  -25.6550   56.3110 C.2   423  HIS423      0.2291
     59  O         -8.1000  -24.7960   55.7420 O.2   423  HIS423     -0.2864
     60  CB        -9.2700  -27.3090   56.0020 C.3   423  HIS423      0.0771
     61  CG       -10.1440  -26.6340   57.0030 C.ar  423  HIS423      0.0820
     62  ND1      -10.1320  -26.9670   58.3400 N.ar  423  HIS423     -0.2267
     63  CD2      -11.0490  -25.6380   56.8690 C.ar  423  HIS423      0.1154
     64  CE1      -10.9990  -26.2110   58.9860 C.ar  423  HIS423      0.1986
     65  NE2      -11.5620  -25.3920   58.1170 N.ar  423  HIS423     -0.2212
     66  N         -7.4670  -23.9350   52.9350 N.3   426  ALA426     -0.1231
     67  CA        -8.7770  -23.4960   52.4720 C.3   426  ALA426      0.1694
     68  C         -9.1820  -22.2070   53.1680 C.2   426  ALA426      0.2591
     69  O         -9.5750  -21.2320   52.5120 O.2   426  ALA426     -0.2718
     70  CB        -9.8210  -24.5900   52.6970 C.3   426  ALA426      0.0304
     71  N         -9.0550  -22.1680   54.5010 N.am  427  ILE427     -0.1980
     72  CA        -9.4600  -20.9700   55.2420 C.3   427  ILE427      0.1595
     73  C         -8.7430  -19.7340   54.7020 C.2   427  ILE427      0.2287
     74  O         -9.3750  -18.7280   54.3420 O.2   427  ILE427     -0.2864
     75  CB        -9.2020  -21.1510   56.7490 C.3   427  ILE427      0.0276
     76  CG1      -10.0960  -22.2550   57.3210 C.3   427  ILE427      0.0022
     77  CG2       -9.4350  -19.8370   57.4860 C.3   427  ILE427      0.0022
     78  CD1       -9.8330  -22.5540   58.7830 C.3   427  ILE427      0.0001
     79  N         -9.6620  -18.6440   51.0520 N.3   430  HIS430     -0.1226
     80  CA       -10.9560  -17.9740   50.9470 C.3   430  HIS430      0.1752
     81  C        -10.9190  -16.5700   51.5390 C.2   430  HIS430      0.2595
     82  O        -11.4690  -15.6280   50.9490 O.2   430  HIS430     -0.2718
     83  CB       -12.0330  -18.8150   51.6180 C.3   430  HIS430      0.0759
     84  CG       -12.3100  -20.0900   50.8960 C.ar  430  HIS430      0.0818
     85  ND1      -12.9640  -20.1250   49.6850 N.ar  430  HIS430     -0.2268
     86  CD2      -11.9960  -21.3710   51.1940 C.ar  430  HIS430      0.1154
     87  CE1      -13.0400  -21.3750   49.2690 C.ar  430  HIS430      0.1986
     88  NE2      -12.4700  -22.1520   50.1700 N.ar  430  HIS430     -0.2212
     89  N        -10.2840  -16.4090   52.7080 N.am  431  LEU431     -0.1980
     90  CA       -10.1290  -15.0710   53.2720 C.3   431  LEU431      0.1596
     91  C         -9.3920  -14.1550   52.3020 C.2   431  LEU431      0.2287
     92  O         -9.7870  -12.9980   52.1030 O.2   431  LEU431     -0.2864
     93  CB        -9.3980  -15.1460   54.6120 C.3   431  LEU431      0.0297
     94  CG        -9.4530  -13.9010   55.4970 C.3   431  LEU431      0.0022
     95  CD1      -10.8550  -13.3140   55.5080 C.3   431  LEU431      0.0001
     96  CD2       -9.0260  -14.2550   56.9080 C.3   431  LEU431      0.0001
     97  N        -11.8680  -13.0460   49.5880 N.3   434  VAL434     -0.1245
     98  CA       -12.8130  -12.0530   50.0990 C.3   434  VAL434      0.1561
     99  C        -12.1380  -10.6940   50.2390 C.2   434  VAL434      0.2260
    100  O        -12.7410   -9.6500   49.9650 O.2   434  VAL434     -0.2867
    101  CB       -13.4190  -12.5240   51.4340 C.3   434  VAL434      0.0252
    102  CG1      -14.2950  -11.4410   52.0400 C.3   434  VAL434      0.0019
    103  CG2      -14.2350  -13.7590   51.2210 C.3   434  VAL434      0.0019
    104  N         -4.6360  -14.0990   61.3160 N.3   542  LEU542     -0.1245
    105  CA        -5.0530  -15.4970   61.2980 C.3   542  LEU542      0.1561
    106  C         -4.0790  -16.3510   60.4980 C.2   542  LEU542      0.2260
    107  O         -3.7370  -17.4690   60.9080 O.2   542  LEU542     -0.2867
    108  CB        -6.4660  -15.6130   60.7250 C.3   542  LEU542      0.0270
    109  CG        -7.1000  -17.0050   60.6720 C.3   542  LEU542      0.0019
    110  CD1       -7.3220  -17.5560   62.0720 C.3   542  LEU542      0.0001
    111  CD2       -8.4040  -16.9570   59.9000 C.3   542  LEU542      0.0001
@<TRIPOS>BOND
     1    87    85   ar
     2    87    88   ar
     3    97    98    1
     4    85    84   ar
     5   100    99    2
     6    98    99    1
     7    98   101    1
     8    88    86   ar
     9    84    86   ar
    10    84    83    1
    11    80    79    1
    12    80    81    1
    13    80    83    1
    14    82    81    2
    15   103   101    1
    16   101   102    1
    17    81    89   am
    18    92    91    2
    19    91    90    1
    20    67    70    1
    21    67    66    1
    22    67    68    1
    23    69    68    2
    24    89    90    1
    25    68    71   am
    26    90    93    1
    27    74    73    2
    28    71    72    1
    29    93    94    1
    30    73    72    1
    31    72    75    1
    32    94    95    1
    33    94    96    1
    34    59    58    2
    35    60    57    1
    36    60    61    1
    37    57    58    1
    38    57    56    1
    39    48    47    2
    40    75    76    1
    41    75    77    1
    42    63    61   ar
    43    63    65   ar
    44    61    62   ar
    45    76    78    1
    46    47    56   am
    47    47    46    1
    48     9    11   ar
    49     9     7   ar
    50    65    64   ar
    51    11    10   ar
    52    62    64   ar
    53     7     6   ar
    54    46    49    1
    55    46    45    1
    56    49    50    1
    57    50    51    1
    58    52    51    1
    59    52    53    2
    60    10     8   ar
    61    41    40    2
    62    55    53    1
    63   111   109    1
    64     6     8   ar
    65     6     5    1
    66    30    29    2
    67    53    54    1
    68   106   107    2
    69   106   105    1
    70   109   108    1
    71   109   110    1
    72   108   105    1
    73     5     2    1
    74    40    39    1
    75     2     3    1
    76     2     1    1
    77   105   104    1
    78     4     3    2
    79    29    28    1
    80    29    38   am
    81    36    35    1
    82    39    38    1
    83    39    42    1
    84     3    12   am
    85    28    31    1
    86    28    27    1
    87    43    42    1
    88    31    32    1
    89    42    44    1
    90    32    33    1
    91    35    37    1
    92    35    34    2
    93    33    34    1
    94    12    13    1
    95    13    14    1
    96    13    16    1
    97    18    16    1
    98    14    15    2
    99    22    21    2
   100    16    17    1
   101    21    20    1
   102    20    19    1
   103    20    23    1
   104    26    24    1
   105    23    24    1
   106    24    25    1
