@<TRIPOS>MOLECULE
tmp/5l8rC06.pdb
 138 136 0 0 0
SMALL
GASTEIGER

@<TRIPOS>ATOM
      1  N         -2.4060  -15.7100  108.3410 N.3    38  PHE38      -0.1241
      2  CA        -3.7600  -15.4610  108.8340 C.3    38  PHE38       0.1605
      3  C         -4.7830  -16.5320  108.4560 C.2    38  PHE38       0.2264
      4  O         -5.9330  -16.4700  108.9030 O.2    38  PHE38      -0.2867
      5  CB        -4.2370  -14.0850  108.3570 C.3    38  PHE38       0.0534
      6  CG        -3.3960  -12.9490  108.8650 C.ar   38  PHE38      -0.0203
      7  CD1       -2.7790  -13.0310  110.1030 C.ar   38  PHE38      -0.0042
      8  CD2       -3.2100  -11.8090  108.1050 C.ar   38  PHE38      -0.0042
      9  CE1       -1.9990  -11.9960  110.5760 C.ar   38  PHE38      -0.0003
     10  CE2       -2.4290  -10.7690  108.5730 C.ar   38  PHE38      -0.0003
     11  CZ        -1.8230  -10.8630  109.8110 C.ar   38  PHE38      -0.0000
     12  N         -4.1590  -19.3890  114.2630 N.3    43  TRP43      -0.1241
     13  CA        -4.4190  -17.9540  114.2570 C.3    43  TRP43       0.1605
     14  C         -5.9110  -17.6610  114.2690 C.2    43  TRP43       0.2264
     15  O         -6.3570  -16.6960  114.9000 O.2    43  TRP43      -0.2867
     16  CB        -3.7660  -17.3030  113.0420 C.3    43  TRP43       0.0550
     17  CG        -4.0090  -15.8360  113.0000 C.ar   43  TRP43       0.0003
     18  CD1       -4.9400  -15.1750  112.2520 C.ar   43  TRP43       0.0946
     19  CD2       -3.3300  -14.8420  113.7690 C.ar   43  TRP43       0.0152
     20  NE1       -4.8730  -13.8260  112.5010 N.ar   43  TRP43      -0.2442
     21  CE2       -3.8910  -13.5970  113.4300 C.ar   43  TRP43       0.0810
     22  CE3       -2.2960  -14.8840  114.7100 C.ar   43  TRP43       0.0012
     23  CZ2       -3.4500  -12.4070  113.9940 C.ar   43  TRP43       0.0191
     24  CZ3       -1.8610  -13.7010  115.2690 C.ar   43  TRP43       0.0001
     25  CH2       -2.4360  -12.4800  114.9110 C.ar   43  TRP43       0.0015
     26  N         -7.0940  -18.3440  118.0140 N.3    46  TYR46      -0.1227
     27  CA        -6.7080  -17.2030  118.8390 C.3    46  TYR46       0.1736
     28  C         -7.5310  -15.9690  118.4840 C.2    46  TYR46       0.2596
     29  O         -7.9030  -15.1810  119.3630 O.2    46  TYR46      -0.2718
     30  CB        -5.2130  -16.9340  118.6560 C.3    46  TYR46       0.0548
     31  CG        -4.6030  -15.9360  119.6130 C.ar   46  TYR46      -0.0200
     32  CD1       -5.1620  -15.6990  120.8610 C.ar   46  TYR46      -0.0009
     33  CD2       -3.4620  -15.2270  119.2600 C.ar   46  TYR46      -0.0009
     34  CE1       -4.5990  -14.7850  121.7310 C.ar   46  TYR46       0.0417
     35  CE2       -2.8950  -14.3130  120.1210 C.ar   46  TYR46       0.0417
     36  CZ        -3.4670  -14.0970  121.3550 C.ar   46  TYR46       0.1957
     37  OH        -2.9060  -13.1900  122.2170 O.3    46  TYR46      -0.2866
     38  N         -7.8390  -15.8000  117.1960 N.am   47  GLY47      -0.1957
     39  CA        -8.6460  -14.6680  116.7750 C.3    47  GLY47       0.1869
     40  C        -10.0800  -14.7600  117.2540 C.2    47  GLY47       0.2309
     41  O        -10.6590  -13.7630  117.6910 O.2    47  GLY47      -0.2863
     42  N         -9.9420  -13.7900  120.9610 N.3    50  ILE50      -0.1231
     43  CA        -9.7540  -12.3660  121.2440 C.3    50  ILE50       0.1692
     44  C        -10.9910  -11.5670  120.8410 C.2    50  ILE50       0.2592
     45  O        -11.5250  -10.7750  121.6330 O.2    50  ILE50      -0.2718
     46  CB        -8.4860  -11.8470  120.5430 C.3    50  ILE50       0.0266
     47  CG1       -7.2430  -12.4990  121.1510 C.3    50  ILE50       0.0019
     48  CG2       -8.3980  -10.3340  120.6410 C.3    50  ILE50       0.0020
     49  CD1       -7.0900  -12.2580  122.6330 C.3    50  ILE50       0.0001
     50  N        -11.4570  -11.7560  119.6010 N.am   51  ASN51      -0.1974
     51  CA       -12.7120  -11.1470  119.1650 C.3    51  ASN51       0.1688
     52  C        -13.8410  -11.4510  120.1410 C.2    51  ASN51       0.2292
     53  O        -14.6810  -10.5890  120.4230 O.2    51  ASN51      -0.2864
     54  CB       -13.0860  -11.6420  117.7650 C.3    51  ASN51       0.1181
     55  CG       -12.1890  -11.0780  116.6760 C.2    51  ASN51       0.2629
     56  OD1      -12.4690  -10.0190  116.1110 O.2    51  ASN51      -0.2716
     57  ND2      -11.1140  -11.7940  116.3630 N.am   51  ASN51      -0.0877
     58  N        -13.1970   -9.2930  123.6040 N.3    54  PHE54      -0.1241
     59  CA       -13.5350   -7.9010  123.3170 C.3    54  PHE54       0.1605
     60  C        -15.0300   -7.7360  123.0770 C.2    54  PHE54       0.2264
     61  O        -15.6290   -6.7370  123.4920 O.2    54  PHE54      -0.2867
     62  CB       -12.7510   -7.4030  122.1010 C.3    54  PHE54       0.0534
     63  CG       -11.3520   -6.9540  122.4140 C.ar   54  PHE54      -0.0203
     64  CD1      -11.1090   -6.0440  123.4310 C.ar   54  PHE54      -0.0042
     65  CD2      -10.2790   -7.4420  121.6870 C.ar   54  PHE54      -0.0042
     66  CE1       -9.8190   -5.6300  123.7150 C.ar   54  PHE54      -0.0003
     67  CE2       -8.9880   -7.0350  121.9680 C.ar   54  PHE54      -0.0003
     68  CZ        -8.7580   -6.1260  122.9810 C.ar   54  PHE54      -0.0000
     69  N         -5.4430    6.0620  123.5920 N.3   107  GLU107     -0.1231
     70  CA        -5.8520    4.6620  123.6090 C.3   107  GLU107      0.1699
     71  C         -5.0220    3.8240  122.6470 C.2   107  GLU107      0.2592
     72  O         -4.7360    2.6570  122.9340 O.2   107  GLU107     -0.2718
     73  CB        -7.3420    4.5340  123.2800 C.3   107  GLU107      0.0402
     74  CG        -7.6740    4.6860  121.8070 C.3   107  GLU107      0.1161
     75  CD        -9.1100    4.3550  121.4910 C.2   107  GLU107      0.3649
     76  OE1       -9.7900    3.7770  122.3550 O.co2 107  GLU107     -0.2457
     77  OE2       -9.5620    4.6750  120.3780 O.co2 107  GLU107     -0.2457
     78  N         -4.6160    4.3940  121.5100 N.am  108  MET108     -0.1979
     79  CA        -3.7550    3.6530  120.5990 C.3   108  MET108      0.1605
     80  C         -2.3470    3.4990  121.1510 C.2   108  MET108      0.2287
     81  O         -1.6300    2.5790  120.7410 O.2   108  MET108     -0.2864
     82  CB        -3.7130    4.3290  119.2270 C.3   108  MET108      0.0413
     83  CG        -5.0440    4.3100  118.4930 C.3   108  MET108      0.0598
     84  SD        -5.8260    2.6840  118.4800 S.3   108  MET108     -0.1393
     85  CE        -4.8360    1.8300  117.2640 C.3   108  MET108      0.0692
     86  N         -3.1300    0.6170  124.1930 N.3   111  MET111     -0.1230
     87  CA        -3.3570   -0.5830  123.3960 C.3   111  MET111      0.1702
     88  C         -2.1400   -0.9220  122.5510 C.2   111  MET111      0.2592
     89  O         -1.9170   -2.0930  122.2290 O.2   111  MET111     -0.2718
     90  CB        -4.5840   -0.4030  122.5000 C.3   111  MET111      0.0401
     91  CG        -5.8930   -0.2160  123.2460 C.3   111  MET111      0.0596
     92  SD        -6.4230   -1.6870  124.1320 S.3   111  MET111     -0.1393
     93  CE        -6.5890   -2.8510  122.7790 C.3   111  MET111      0.0692
     94  N         -1.3520    0.0820  122.1760 N.am  112  GLY112     -0.1957
     95  CA        -0.0910   -0.1630  121.5110 C.3   112  GLY112      0.1869
     96  C          0.7900   -1.0950  122.3140 C.2   112  GLY112      0.2309
     97  O          1.1890   -2.1560  121.8220 O.2   112  GLY112     -0.2863
     98  N         -1.0750   -4.6870  123.1570 N.3   115  GLU115     -0.1231
     99  CA        -1.2530   -5.5500  121.9960 C.3   115  GLU115      0.1699
    100  C          0.0820   -5.9680  121.3940 C.2   115  GLU115      0.2592
    101  O          0.2480   -7.1270  120.9980 O.2   115  GLU115     -0.2718
    102  CB        -2.1110   -4.8420  120.9540 C.3   115  GLU115      0.0402
    103  CG        -3.5350   -4.5610  121.3990 C.3   115  GLU115      0.1161
    104  CD        -4.4000   -5.7990  121.4060 C.2   115  GLU115      0.3649
    105  OE1       -4.2480   -6.6320  120.4920 O.co2 115  GLU115     -0.2457
    106  OE2       -5.2290   -5.9410  122.3260 O.co2 115  GLU115     -0.2457
    107  N          1.0390   -5.0390  121.3000 N.am  116  HIS116     -0.1976
    108  CA         2.3560   -5.3960  120.7770 C.3   116  HIS116      0.1656
    109  C          2.9780   -6.5250  121.5900 C.2   116  HIS116      0.2291
    110  O          3.4640   -7.5180  121.0310 O.2   116  HIS116     -0.2864
    111  CB         3.2770   -4.1770  120.7690 C.3   116  HIS116      0.0771
    112  CG         3.0070   -3.2150  119.6550 C.ar  116  HIS116      0.0820
    113  ND1        2.2930   -2.0510  119.8360 N.ar  116  HIS116     -0.2267
    114  CD2        3.3690   -3.2350  118.3510 C.ar  116  HIS116      0.1154
    115  CE1        2.2220   -1.3960  118.6910 C.ar  116  HIS116      0.1986
    116  NE2        2.8650   -2.0950  117.7730 N.ar  116  HIS116     -0.2212
    117  N          1.4780   -8.6940  123.6520 N.3   118  ARG118     -0.1231
    118  CA         0.6600   -9.8780  123.3980 C.3   118  ARG118      0.1694
    119  C          1.1150  -10.6020  122.1300 C.2   118  ARG118      0.2592
    120  O          1.3520  -11.8250  122.1280 O.2   118  ARG118     -0.2718
    121  CB        -0.8050   -9.4480  123.2950 C.3   118  ARG118      0.0321
    122  CG        -1.8070  -10.5720  123.2320 C.3   118  ARG118      0.0489
    123  CD        -3.2360  -10.0500  123.3500 C.3   118  ARG118      0.2205
    124  NE        -3.6260   -9.2090  122.2220 N.pl3 118  ARG118     -0.0865
    125  CZ        -4.1100   -9.6800  121.0780 C.cat 118  ARG118      0.5346
    126  NH1       -4.2560  -10.9860  120.9080 N.pl3 118  ARG118      0.1354
    127  NH2       -4.4440   -8.8480  120.1010 N.pl3 118  ARG118      0.1354
    128  N          1.2730   -9.8430  121.0420 N.am  119  PHE119     -0.1976
    129  CA         1.7540  -10.4290  119.7970 C.3   119  PHE119      0.1639
    130  C          3.1190  -11.0630  119.9770 C.2   119  PHE119      0.2290
    131  O          3.3840  -12.1350  119.4270 O.2   119  PHE119     -0.2864
    132  CB         1.8330   -9.3830  118.6950 C.3   119  PHE119      0.0560
    133  CG         2.2390   -9.9540  117.3680 C.ar  119  PHE119     -0.0200
    134  CD1        1.3010  -10.5500  116.5430 C.ar  119  PHE119     -0.0042
    135  CD2        3.5610   -9.9160  116.9560 C.ar  119  PHE119     -0.0042
    136  CE1        1.6690  -11.0830  115.3290 C.ar  119  PHE119     -0.0003
    137  CE2        3.9370  -10.4510  115.7400 C.ar  119  PHE119     -0.0003
    138  CZ         2.9890  -11.0330  114.9250 C.ar  119  PHE119     -0.0000
@<TRIPOS>BOND
     1     8    10   ar
     2     8     6   ar
     3     1     2    1
     4     5     2    1
     5     5     6    1
     6     3     2    1
     7     3     4    2
     8    10    11   ar
     9     6     7   ar
    10    11     9   ar
    11     7     9   ar
    12    18    20   ar
    13    18    17   ar
    14    20    21   ar
    15    17    16    1
    16    17    19   ar
    17    16    13    1
    18    21    19   ar
    19    21    23   ar
    20    19    22   ar
    21    23    25   ar
    22    13    12    1
    23    13    14    1
    24    14    15    2
    25    22    24   ar
    26    25    24   ar
    27   138   136   ar
    28   138   137   ar
    29   136   134   ar
    30   137   135   ar
    31    56    55    2
    32    57    55   am
    33   134   133   ar
    34    55    54    1
    35    39    38    1
    36    39    40    1
    37   135   133   ar
    38    38    28   am
    39    40    41    2
    40    85    84    1
    41   133   132    1
    42    54    51    1
    43   116   114   ar
    44   116   115   ar
    45    26    27    1
    46   114   112   ar
    47    84    83    1
    48    28    27    1
    49    28    29    2
    50    83    82    1
    51    30    27    1
    52    30    31    1
    53   115   113   ar
    54   132   129    1
    55    51    50    1
    56    51    52    1
    57    82    79    1
    58    33    31   ar
    59    33    35   ar
    60   131   130    2
    61    50    44   am
    62    31    32   ar
    63   112   113   ar
    64   112   111    1
    65   129   130    1
    66   129   128    1
    67   127   125    1
    68    35    36   ar
    69    52    53    2
    70    77    75   ar
    71   105   104   ar
    72    46    48    1
    73    46    47    1
    74    46    43    1
    75    79    80    1
    76    79    78    1
    77    81    80    2
    78   111   108    1
    79   108   107    1
    80   108   109    1
    81    44    43    1
    82    44    45    2
    83    32    34   ar
    84   126   125    1
    85   102   103    1
    86   102    99    1
    87    42    43    1
    88   101   100    2
    89   110   109    2
    90   128   119   am
    91   125   124    2
    92    47    49    1
    93   107   100   am
    94    36    34   ar
    95    36    37    1
    96   100    99    1
    97   103   104    1
    98   104   106   ar
    99    75    74    1
   100    75    76   ar
   101    78    71   am
   102    95    94    1
   103    95    96    1
   104    65    67   ar
   105    65    63   ar
   106    74    73    1
   107    97    96    2
   108    67    68   ar
   109    99    98    1
   110    62    63    1
   111    62    59    1
   112   120   119    2
   113   119   118    1
   114    94    88   am
   115   124   123    1
   116    89    88    2
   117    63    64   ar
   118    90    91    1
   119    90    87    1
   120    88    87    1
   121    71    72    2
   122    71    70    1
   123    93    92    1
   124    68    66   ar
   125    60    59    1
   126    60    61    2
   127   122   121    1
   128   122   123    1
   129    91    92    1
   130    73    70    1
   131   121   118    1
   132    59    58    1
   133    87    86    1
   134   118   117    1
   135    64    66   ar
   136    69    70    1
