@<TRIPOS>MOLECULE
tmp/5l8rE08.pdb
 199 191 0 0 0
SMALL
GASTEIGER

@<TRIPOS>ATOM
      1  N        -17.7620   13.1370   84.5060 N.3   137  ILE137     -0.1245
      2  CA       -17.8610   12.0310   85.4550 C.3   137  ILE137      0.1561
      3  C        -18.1110   12.5640   86.8590 C.2   137  ILE137      0.2260
      4  O        -19.0510   12.1470   87.5470 O.2   137  ILE137     -0.2867
      5  CB       -16.5920   11.1610   85.4110 C.3   137  ILE137      0.0252
      6  CG1      -16.3270   10.6380   84.0000 C.3   137  ILE137      0.0019
      7  CG2      -16.7090    9.9960   86.3850 C.3   137  ILE137      0.0019
      8  CD1      -15.0360    9.8490   83.8930 C.3   137  ILE137      0.0001
      9  N        -21.5030   13.8690   87.2300 N.3   140  ALA140     -0.1231
     10  CA       -22.4490   12.7620   87.2740 C.3   140  ALA140      0.1694
     11  C        -22.3810   11.9970   88.5870 C.2   140  ALA140      0.2592
     12  O        -23.3500   11.3180   88.9420 O.2   140  ALA140     -0.2718
     13  CB       -22.2050   11.8130   86.1030 C.3   140  ALA140      0.0304
     14  N        -21.2670   12.0890   89.3090 N.am  141  SER141     -0.1952
     15  CA       -21.1080   11.4270   90.5960 C.3   141  SER141      0.1924
     16  C        -21.5370   12.3040   91.7670 C.2   141  SER141      0.2314
     17  O        -21.3680   11.9020   92.9230 O.2   141  SER141     -0.2863
     18  CB       -19.6550   10.9870   90.7880 C.3   141  SER141      0.2116
     19  OG       -19.2620   10.0600   89.7910 O.3   141  SER141     -0.2180
     20  N        -17.4250   -9.5140   91.7050 N.3   195  LEU195     -0.1231
     21  CA       -16.8060   -8.3020   91.1750 C.3   195  LEU195      0.1693
     22  C        -17.8060   -7.4610   90.3910 C.2   195  LEU195      0.2591
     23  O        -18.0850   -6.3110   90.7500 O.2   195  LEU195     -0.2718
     24  CB       -15.6110   -8.6630   90.2910 C.3   195  LEU195      0.0284
     25  CG       -14.9380   -7.4730   89.6020 C.3   195  LEU195      0.0019
     26  CD1      -14.3900   -6.5160   90.6420 C.3   195  LEU195      0.0001
     27  CD2      -13.8360   -7.9290   88.6520 C.3   195  LEU195      0.0001
     28  N        -18.3540   -8.0210   89.3100 N.am  196  LEU196     -0.1980
     29  CA       -19.2430   -7.2490   88.4480 C.3   196  LEU196      0.1596
     30  C        -20.5800   -6.9790   89.1250 C.2   196  LEU196      0.2287
     31  O        -21.0960   -5.8550   89.0680 O.2   196  LEU196     -0.2864
     32  CB       -19.4410   -7.9810   87.1220 C.3   196  LEU196      0.0297
     33  CG       -18.1470   -8.1540   86.3200 C.3   196  LEU196      0.0022
     34  CD1      -18.3700   -9.0220   85.0940 C.3   196  LEU196      0.0001
     35  CD2      -17.5690   -6.7980   85.9250 C.3   196  LEU196      0.0001
     36  N        -20.1520   -4.7970   92.3600 N.3   199  GLY199     -0.1210
     37  CA       -19.7120   -3.4940   91.8880 C.3   199  GLY199      0.1956
     38  C        -20.8530   -2.6850   91.3010 C.2   199  GLY199      0.2612
     39  O        -21.0760   -1.5310   91.6830 O.2   199  GLY199     -0.2717
     40  N        -21.5990   -3.2880   90.3710 N.am  200  SER200     -0.1952
     41  CA       -22.7320   -2.5980   89.7650 C.3   200  SER200      0.1924
     42  C        -23.7750   -2.2250   90.8110 C.2   200  SER200      0.2314
     43  O        -24.3620   -1.1380   90.7540 O.2   200  SER200     -0.2863
     44  CB       -23.3500   -3.4720   88.6750 C.3   200  SER200      0.2116
     45  OG       -24.5070   -2.8680   88.1280 O.3   200  SER200     -0.2180
     46  N        -22.4970    0.7300   92.8660 N.3   203  TRP203     -0.1241
     47  CA       -22.5980    1.9660   92.1040 C.3   203  TRP203      0.1605
     48  C        -24.0420    2.4400   92.0030 C.2   203  TRP203      0.2264
     49  O        -24.3110    3.6460   92.1020 O.2   203  TRP203     -0.2867
     50  CB       -21.9920    1.7930   90.7140 C.3   203  TRP203      0.0550
     51  CG       -21.9650    3.0850   89.9990 C.ar  203  TRP203      0.0003
     52  CD1      -22.5700    3.3850   88.8160 C.ar  203  TRP203      0.0946
     53  CD2      -21.3390    4.2930   90.4510 C.ar  203  TRP203      0.0152
     54  NE1      -22.3370    4.6990   88.4880 N.ar  203  TRP203     -0.2442
     55  CE2      -21.5860    5.2790   89.4770 C.ar  203  TRP203      0.0810
     56  CE3      -20.5790    4.6310   91.5770 C.ar  203  TRP203      0.0012
     57  CZ2      -21.1040    6.5810   89.5960 C.ar  203  TRP203      0.0191
     58  CZ3      -20.1040    5.9200   91.6950 C.ar  203  TRP203      0.0001
     59  CH2      -20.3670    6.8820   90.7100 C.ar  203  TRP203      0.0015
     60  N        -25.4600    6.0760   93.2350 N.3   207  GLN207     -0.1245
     61  CA       -26.2180    6.9160   92.3140 C.3   207  GLN207      0.1566
     62  C        -27.5780    7.2890   92.8880 C.2   207  GLN207      0.2260
     63  O        -27.9950    8.4510   92.8170 O.2   207  GLN207     -0.2867
     64  CB       -26.3740    6.2160   90.9680 C.3   207  GLN207      0.0367
     65  CG       -25.1300    6.2890   90.1040 C.3   207  GLN207      0.0905
     66  CD       -25.3420    5.6440   88.7590 C.2   207  GLN207      0.2608
     67  OE1      -26.0600    4.6540   88.6480 O.2   207  GLN207     -0.2717
     68  NE2      -24.7350    6.2110   87.7230 N.am  207  GLN207     -0.0878
     69  N        -27.6570   10.8390   79.2550 N.3   279  LEU279     -0.1245
     70  CA       -28.6900    9.8530   79.5310 C.3   279  LEU279      0.1561
     71  C        -29.3210   10.1010   80.8960 C.2   279  LEU279      0.2260
     72  O        -28.6840   10.6210   81.8170 O.2   279  LEU279     -0.2867
     73  CB       -28.1100    8.4390   79.4740 C.3   279  LEU279      0.0270
     74  CG       -27.5430    7.9830   78.1270 C.3   279  LEU279      0.0019
     75  CD1      -26.8620    6.6340   78.2610 C.3   279  LEU279      0.0001
     76  CD2      -28.6370    7.9320   77.0720 C.3   279  LEU279      0.0001
     77  N        -30.3350    9.8010   84.4810 N.3   281  LEU281     -0.1245
     78  CA       -29.7010    9.1320   85.6120 C.3   281  LEU281      0.1561
     79  C        -30.6330    8.1270   86.2750 C.2   281  LEU281      0.2260
     80  O        -30.1630    7.1430   86.8560 O.2   281  LEU281     -0.2867
     81  CB       -29.2250   10.1590   86.6340 C.3   281  LEU281      0.0270
     82  CG       -28.0990   11.0710   86.1580 C.3   281  LEU281      0.0019
     83  CD1      -27.6120   11.9250   87.3070 C.3   281  LEU281      0.0001
     84  CD2      -26.9590   10.2580   85.5680 C.3   281  LEU281      0.0001
     85  N        -30.0970    5.1570   84.4010 N.3   284  ILE284     -0.1245
     86  CA       -28.7670    4.6000   84.6340 C.3   284  ILE284      0.1561
     87  C        -28.7170    3.8360   85.9530 C.2   284  ILE284      0.2260
     88  O        -28.1470    2.7420   86.0240 O.2   284  ILE284     -0.2867
     89  CB       -27.7060    5.7140   84.5770 C.3   284  ILE284      0.0252
     90  CG1      -27.6100    6.2840   83.1580 C.3   284  ILE284      0.0019
     91  CG2      -26.3570    5.1890   85.0330 C.3   284  ILE284      0.0019
     92  CD1      -26.4470    7.2360   82.9490 C.3   284  ILE284      0.0001
     93  N        -30.4980    0.7800   85.4810 N.3   287  HIS287     -0.1226
     94  CA       -29.6380   -0.0780   84.6740 C.3   287  HIS287      0.1752
     95  C        -28.6390   -0.8400   85.5360 C.2   287  HIS287      0.2596
     96  O        -28.5390   -2.0680   85.4470 O.2   287  HIS287     -0.2718
     97  CB       -28.9090    0.7710   83.6380 C.3   287  HIS287      0.0759
     98  CG       -27.7110    0.1040   83.0450 C.ar  287  HIS287      0.0818
     99  ND1      -27.8090   -0.9220   82.1330 N.ar  287  HIS287     -0.2268
    100  CD2      -26.3870    0.3180   83.2310 C.ar  287  HIS287      0.1154
    101  CE1      -26.5980   -1.3060   81.7740 C.ar  287  HIS287      0.1986
    102  NE2      -25.7180   -0.5730   82.4300 N.ar  287  HIS287     -0.2212
    103  N        -27.8770   -0.1210   86.3660 N.am  288  HIS288     -0.1975
    104  CA       -26.8980   -0.7790   87.2250 C.3   288  HIS288      0.1656
    105  C        -27.5550   -1.7800   88.1630 C.2   288  HIS288      0.2291
    106  O        -26.9500   -2.8070   88.4950 O.2   288  HIS288     -0.2864
    107  CB       -26.1150    0.2560   88.0270 C.3   288  HIS288      0.0771
    108  CG       -25.2780    1.1610   87.1830 C.ar  288  HIS288      0.0820
    109  ND1      -24.2020    0.7110   86.4500 N.ar  288  HIS288     -0.2267
    110  CD2      -25.3590    2.4920   86.9550 C.ar  288  HIS288      0.1154
    111  CE1      -23.6580    1.7280   85.8070 C.ar  288  HIS288      0.1986
    112  NE2      -24.3390    2.8200   86.0980 N.ar  288  HIS288     -0.2212
    113  N        -28.3270   -4.9170   85.9020 N.3   291  ILE291     -0.1245
    114  CA       -27.0460   -5.5730   85.6460 C.3   291  ILE291      0.1561
    115  C        -26.5650   -6.3130   86.8870 C.2   291  ILE291      0.2260
    116  O        -26.0960   -7.4580   86.8060 O.2   291  ILE291     -0.2867
    117  CB       -26.0090   -4.5380   85.1700 C.3   291  ILE291      0.0252
    118  CG1      -26.4400   -3.9350   83.8380 C.3   291  ILE291      0.0019
    119  CG2      -24.6280   -5.1590   85.0500 C.3   291  ILE291      0.0019
    120  CD1      -26.6700   -4.9600   82.7660 C.3   291  ILE291      0.0001
    121  N        -28.4280   -9.5110   87.1730 N.3   294  LEU294     -0.1231
    122  CA       -28.0430  -10.4670   86.1370 C.3   294  LEU294      0.1693
    123  C        -26.7140  -11.1380   86.4620 C.2   294  LEU294      0.2592
    124  O        -26.5760  -12.3590   86.3120 O.2   294  LEU294     -0.2718
    125  CB       -27.9720   -9.7740   84.7750 C.3   294  LEU294      0.0284
    126  CG       -27.7220  -10.7010   83.5810 C.3   294  LEU294      0.0019
    127  CD1      -28.8140  -11.7560   83.5000 C.3   294  LEU294      0.0001
    128  CD2      -27.6360   -9.9160   82.2810 C.3   294  LEU294      0.0001
    129  N        -25.7270  -10.3620   86.9190 N.am  295  PHE295     -0.1976
    130  CA       -24.4180  -10.9410   87.2080 C.3   295  PHE295      0.1639
    131  C        -24.4360  -11.7560   88.4940 C.2   295  PHE295      0.2290
    132  O        -23.7880  -12.8090   88.5770 O.2   295  PHE295     -0.2864
    133  CB       -23.3620   -9.8430   87.2790 C.3   295  PHE295      0.0560
    134  CG       -22.8040   -9.4660   85.9450 C.ar  295  PHE295     -0.0200
    135  CD1      -22.0070  -10.3520   85.2390 C.ar  295  PHE295     -0.0042
    136  CD2      -23.0760   -8.2300   85.3930 C.ar  295  PHE295     -0.0042
    137  CE1      -21.4940  -10.0120   84.0060 C.ar  295  PHE295     -0.0003
    138  CE2      -22.5630   -7.8800   84.1620 C.ar  295  PHE295     -0.0003
    139  CZ       -21.7680   -8.7720   83.4680 C.ar  295  PHE295     -0.0000
    140  N        -14.6840   -5.2750   73.0710 N.3   353  LEU353     -0.1245
    141  CA       -15.4800   -4.5250   74.0340 C.3   353  LEU353      0.1561
    142  C        -15.1560   -3.0380   73.9790 C.2   353  LEU353      0.2260
    143  O        -16.0610   -2.2020   73.9120 O.2   353  LEU353     -0.2867
    144  CB       -15.2450   -5.0650   75.4410 C.3   353  LEU353      0.0270
    145  CG       -16.0790   -4.3870   76.5280 C.3   353  LEU353      0.0019
    146  CD1      -17.5600   -4.6020   76.2550 C.3   353  LEU353      0.0001
    147  CD2      -15.6990   -4.9050   77.9120 C.3   353  LEU353      0.0001
    148  N        -16.8310   -1.4500   71.1170 N.3   356  ILE356     -0.1231
    149  CA       -18.2670   -1.3140   71.3540 C.3   356  ILE356      0.1692
    150  C        -18.5500   -0.1510   72.3010 C.2   356  ILE356      0.2591
    151  O        -19.5160    0.6040   72.1160 O.2   356  ILE356     -0.2718
    152  CB       -18.8370   -2.6420   71.8830 C.3   356  ILE356      0.0266
    153  CG1      -18.7010   -3.7220   70.8110 C.3   356  ILE356      0.0019
    154  CG2      -20.2910   -2.4810   72.3070 C.3   356  ILE356      0.0020
    155  CD1      -19.0260   -5.0960   71.3020 C.3   356  ILE356      0.0001
    156  N        -17.7080    0.0120   73.3250 N.am  357  VAL357     -0.1980
    157  CA       -17.8170    1.1570   74.2260 C.3   357  VAL357      0.1595
    158  C        -17.6990    2.4530   73.4400 C.2   357  VAL357      0.2287
    159  O        -18.4890    3.3880   73.6240 O.2   357  VAL357     -0.2864
    160  CB       -16.7460    1.0780   75.3300 C.3   357  VAL357      0.0276
    161  CG1      -16.7710    2.3310   76.1880 C.3   357  VAL357      0.0022
    162  CG2      -16.9430   -0.1570   76.1850 C.3   357  VAL357      0.0022
    163  N        -21.0180    3.0980   71.7680 N.3   360  HIS360     -0.1226
    164  CA       -22.1730    3.3270   72.6270 C.3   360  HIS360      0.1752
    165  C        -22.0670    4.6340   73.4010 C.2   360  HIS360      0.2595
    166  O        -23.0970    5.2300   73.7390 O.2   360  HIS360     -0.2718
    167  CB       -22.3550    2.1480   73.5780 C.3   360  HIS360      0.0759
    168  CG       -22.7980    0.8940   72.8950 C.ar  360  HIS360      0.0818
    169  ND1      -23.1740   -0.2390   73.5850 N.ar  360  HIS360     -0.2268
    170  CD2      -22.9280    0.5960   71.5810 C.ar  360  HIS360      0.1154
    171  CE1      -23.5180   -1.1800   72.7250 C.ar  360  HIS360      0.1986
    172  NE2      -23.3740   -0.7010   71.5030 N.ar  360  HIS360     -0.2212
    173  N        -20.8490    5.1090   73.6770 N.am  361  MET361     -0.1979
    174  CA       -20.7180    6.3440   74.4430 C.3   361  MET361      0.1605
    175  C        -21.0260    7.5840   73.6120 C.2   361  MET361      0.2287
    176  O        -21.5260    8.5720   74.1610 O.2   361  MET361     -0.2864
    177  CB       -19.3240    6.4440   75.0600 C.3   361  MET361      0.0413
    178  CG       -19.0670    5.3770   76.1150 C.3   361  MET361      0.0598
    179  SD       -17.6140    5.6830   77.1380 S.3   361  MET361     -0.1393
    180  CE       -18.1480    7.1290   78.0470 C.3   361  MET361      0.0692
    181  N        -23.4150    9.2130   78.2030 N.3   366  PRO366     -0.2102
    182  CA       -23.8550    8.8180   79.5470 C.3   366  PRO366      0.1504
    183  C        -23.6580    9.8870   80.6120 C.2   366  PRO366      0.2575
    184  O        -24.2660    9.8110   81.6840 O.2   366  PRO366     -0.2718
    185  CB       -22.9900    7.5880   79.8310 C.3   366  PRO366      0.0282
    186  CG       -21.7190    7.8720   79.0990 C.3   366  PRO366      0.0208
    187  CD       -22.1130    8.6200   77.8510 C.3   366  PRO366      0.0893
    188  N        -22.8180   10.8800   80.3430 N.am  367  TYR367     -0.1977
    189  CA       -22.5760   11.8780   81.3720 C.3   367  TYR367      0.1639
    190  C        -23.2030   13.2190   80.9960 C.2   367  TYR367      0.2290
    191  O        -23.3590   13.5310   79.8100 O.2   367  TYR367     -0.2864
    192  CB       -21.0750   12.0750   81.6130 C.3   367  TYR367      0.0560
    193  CG       -20.3410   10.8160   82.0220 C.ar  367  TYR367     -0.0198
    194  CD1      -20.3620   10.3720   83.3380 C.ar  367  TYR367     -0.0009
    195  CD2      -19.6170   10.0790   81.0920 C.ar  367  TYR367     -0.0009
    196  CE1      -19.6890    9.2280   83.7140 C.ar  367  TYR367      0.0417
    197  CE2      -18.9440    8.9350   81.4590 C.ar  367  TYR367      0.0417
    198  CZ       -18.9810    8.5130   82.7690 C.ar  367  TYR367      0.1957
    199  OH       -18.3060    7.3700   83.1330 O.3   367  TYR367     -0.2866
@<TRIPOS>BOND
     1   153   155    1
     2   153   152    1
     3   148   149    1
     4   149   152    1
     5   149   150    1
     6   172   170   ar
     7   172   171   ar
     8   170   168   ar
     9   163   164    1
    10   152   154    1
    11   151   150    2
    12   150   156   am
    13   164   165    1
    14   164   167    1
    15   171   169   ar
    16   168   167    1
    17   168   169   ar
    18   140   141    1
    19   156   157    1
    20   165   173   am
    21   165   166    2
    22   158   159    2
    23   158   157    1
    24   175   176    2
    25   175   174    1
    26   173   174    1
    27   143   142    2
    28   142   141    1
    29   141   144    1
    30   157   160    1
    31   174   177    1
    32   177   178    1
    33   160   162    1
    34   160   161    1
    35   144   145    1
    36   178   179    1
    37   146   145    1
    38   145   147    1
    39    76    74    1
    40   179   180    1
    41   187   181    1
    42   187   186    1
    43    74    75    1
    44    74    73    1
    45   181   182    1
    46   186   185    1
    47    69    70    1
    48    73    70    1
    49    70    71    1
    50   182   185    1
    51   182   183    1
    52   191   190    2
    53   188   183   am
    54   188   189    1
    55   183   184    2
    56    71    72    2
    57   190   189    1
    58   195   197   ar
    59   195   193   ar
    60   189   192    1
    61   197   198   ar
    62   192   193    1
    63   101    99   ar
    64   101   102   ar
    65   193   194   ar
    66    99    98   ar
    67   128   126    1
    68   102   100   ar
    69   120   118    1
    70   198   199    1
    71   198   196   ar
    72    92    90    1
    73    98   100   ar
    74    98    97    1
    75    90    89    1
    76   194   196   ar
    77   139   137   ar
    78   139   138   ar
    79   127   126    1
    80   126   125    1
    81    97    94    1
    82   118   117    1
    83     8     6    1
    84     6     5    1
    85   137   135   ar
    86   138   136   ar
    87    85    86    1
    88    77    78    1
    89     1     2    1
    90    89    86    1
    91    89    91    1
    92    86    87    1
    93    94    93    1
    94    94    95    1
    95   125   122    1
    96   119   117    1
    97    34    33    1
    98   117   114    1
    99   135   134   ar
   100   136   134   ar
   101     5     2    1
   102     5     7    1
   103    96    95    2
   104     2     3    1
   105    95   103   am
   106    84    82    1
   107    78    79    1
   108    78    81    1
   109   114   113    1
   110   114   115    1
   111   111   112   ar
   112   111   109   ar
   113    35    33    1
   114   134   133    1
   115    87    88    2
   116   112   110   ar
   117    13    10    1
   118   122   123    1
   119   122   121    1
   120    82    81    1
   121    82    83    1
   122    79    80    2
   123   124   123    2
   124    33    32    1
   125   103   104    1
   126   109   108   ar
   127   123   129   am
   128   116   115    2
   129     3     4    2
   130   129   130    1
   131   110   108   ar
   132    32    29    1
   133   108   107    1
   134   130   133    1
   135   130   131    1
   136   104   107    1
   137   104   105    1
   138     9    10    1
   139    10    11    1
   140    68    66   am
   141    45    44    1
   142   105   106    2
   143    29    30    1
   144    29    28    1
   145    54    52   ar
   146    54    55   ar
   147   131   132    2
   148    11    12    2
   149    11    14   am
   150    67    66    2
   151    27    25    1
   152    44    41    1
   153    66    65    1
   154    52    51   ar
   155    31    30    2
   156    14    15    1
   157    28    22   am
   158    55    57   ar
   159    55    53   ar
   160    57    59   ar
   161    25    24    1
   162    25    26    1
   163    41    40    1
   164    41    42    1
   165    19    18    1
   166    51    53   ar
   167    51    50    1
   168    65    64    1
   169    24    21    1
   170    40    38   am
   171    22    23    2
   172    22    21    1
   173    53    56   ar
   174    15    18    1
   175    15    16    1
   176    59    58   ar
   177    50    47    1
   178    43    42    2
   179    64    61    1
   180    21    20    1
   181    38    39    2
   182    38    37    1
   183    56    58   ar
   184    16    17    2
   185    37    36    1
   186    48    49    2
   187    48    47    1
   188    47    46    1
   189    61    62    1
   190    61    60    1
   191    63    62    2
