@<TRIPOS>MOLECULE
tmp/5l8rD11.pdb
 106 101 0 0 0
SMALL
GASTEIGER

@<TRIPOS>ATOM
      1  N         58.3010   12.7340  105.1120 N.3     1  LYS1       -0.1231
      2  CA        57.5520   13.9670  105.3230 C.3     1  LYS1        0.1693
      3  C         58.0820   15.0910  104.4370 C.2     1  LYS1        0.2592
      4  O         59.0560   15.7620  104.7850 O.2     1  LYS1       -0.2718
      5  CB        57.6090   14.3790  106.7950 C.3     1  LYS1        0.0285
      6  CG        56.8650   15.6670  107.1190 C.3     1  LYS1        0.0035
      7  CD        56.8480   15.9260  108.6200 C.3     1  LYS1        0.0206
      8  CE        56.1700   17.2460  108.9590 C.3     1  LYS1        0.1093
      9  NZ        56.9910   18.4230  108.5570 N.3     1  LYS1       -0.1314
     10  N         57.4380   15.2900  103.2870 N.am    2  LYS2       -0.1966
     11  CA        57.8110   16.3470  102.3560 C.3     2  LYS2        0.1728
     12  C         56.7860   17.4740  102.3160 C.2     2  LYS2        0.2617
     13  O         56.9100   18.3820  101.4870 O.2     2  LYS2       -0.2715
     14  CB        58.0180   15.7700  100.9520 C.3     2  LYS2        0.0311
     15  CG        56.7760   15.1560  100.3310 C.3     2  LYS2        0.0038
     16  CD        57.1020   14.4630   99.0170 C.3     2  LYS2        0.0206
     17  CE        55.8400   13.9550   98.3270 C.3     2  LYS2        0.1093
     18  NZ        54.9210   15.0690   97.9750 N.3     2  LYS2       -0.1314
     19  N         55.7840   17.4440  103.1920 N.am    3  GLY3       -0.1940
     20  CA        54.7560   18.4660  103.1920 C.3     3  GLY3        0.2014
     21  C         53.5380   18.0620  102.3880 C.2     3  GLY3        0.2639
     22  O         53.6590   17.6060  101.2470 O.2     3  GLY3       -0.2714
     23  N         52.3540   18.2310  102.9700 N.am    4  GLU4       -0.1963
     24  CA        51.1080   17.7590  102.3790 C.3     4  GLU4        0.1733
     25  C         50.1600   18.9310  102.1850 C.2     4  GLU4        0.2616
     26  O         49.7750   19.5890  103.1580 O.2     4  GLU4       -0.2715
     27  CB        50.4540   16.7000  103.2650 C.3     4  GLU4        0.0429
     28  CG        51.4080   15.6350  103.7550 C.3     4  GLU4        0.1163
     29  CD        50.8240   14.8210  104.8890 C.2     4  GLU4        0.3649
     30  OE1       50.2660   15.4250  105.8310 O.co2   4  GLU4       -0.2457
     31  OE2       50.9160   13.5770  104.8340 O.co2   4  GLU4       -0.2457
     32  N         49.7760   19.1840  100.9350 N.am    5  TRP5       -0.1974
     33  CA        48.7480   20.1870  100.6910 C.3     5  TRP5        0.1640
     34  C         47.4080   19.7400  101.2650 C.2     5  TRP5        0.2290
     35  O         46.6430   20.5530  101.7810 O.2     5  TRP5       -0.2864
     36  CB        48.6380   20.4740   99.1970 C.3     5  TRP5        0.0576
     37  CG        48.0240   19.3670   98.4350 C.ar    5  TRP5        0.0006
     38  CD1       48.6600   18.2870   97.9030 C.ar    5  TRP5        0.0946
     39  CD2       46.6370   19.2170   98.1210 C.ar    5  TRP5        0.0152
     40  NE1       47.7520   17.4730   97.2670 N.ar    5  TRP5       -0.2442
     41  CE2       46.5020   18.0230   97.3890 C.ar    5  TRP5        0.0810
     42  CE3       45.4940   19.9790   98.3850 C.ar    5  TRP5        0.0012
     43  CZ2       45.2720   17.5740   96.9160 C.ar    5  TRP5        0.0191
     44  CZ3       44.2720   19.5300   97.9160 C.ar    5  TRP5        0.0001
     45  CH2       44.1710   18.3380   97.1920 C.ar    5  TRP5        0.0015
     46  N         59.3930   22.6500   96.0750 N.3    21  GLY21      -0.1225
     47  CA        57.9800   22.9730   96.0710 C.3    21  GLY21       0.1811
     48  C         57.0550   21.7860   95.9560 C.2    21  GLY21       0.2280
     49  O         55.8630   21.9700   95.6910 O.2    21  GLY21      -0.2866
     50  N         54.6910   19.5850   97.3110 N.3    23  ASN23      -0.1240
     51  CA        53.7660   19.3300   98.4070 C.3    23  ASN23       0.1653
     52  C         52.7590   18.2410   98.0520 C.2    23  ASN23       0.2266
     53  O         51.7100   18.1340   98.6960 O.2    23  ASN23      -0.2867
     54  CB        53.0450   20.6160   98.8140 C.3    23  ASN23       0.1155
     55  CG        53.9590   21.5960   99.5250 C.2    23  ASN23       0.2627
     56  OD1       54.2400   21.4490  100.7140 O.2    23  ASN23      -0.2716
     57  ND2       54.4210   22.6080   98.8000 N.am   23  ASN23      -0.0877
     58  N         63.1690   26.6390   96.6750 N.3   151  GLU151     -0.1245
     59  CA        61.8540   26.5170   97.2960 C.3   151  GLU151      0.1567
     60  C         61.2470   27.8860   97.5870 C.2   151  GLU151      0.2260
     61  O         60.0310   28.0710   97.4590 O.2   151  GLU151     -0.2867
     62  CB        61.9510   25.6840   98.5730 C.3   151  GLU151      0.0388
     63  CG        62.2840   24.2200   98.3280 C.3   151  GLU151      0.1160
     64  CD        62.2800   23.3960   99.6020 C.2   151  GLU151      0.3649
     65  OE1       62.2410   23.9900  100.7010 O.co2 151  GLU151     -0.2457
     66  OE2       62.3150   22.1520   99.5050 O.co2 151  GLU151     -0.2457
     67  N         60.0610   29.3290   94.2590 N.3   154  ILE154     -0.1231
     68  CA        58.7950   28.7430   93.8370 C.3   154  ILE154      0.1692
     69  C         57.6530   29.2300   94.7220 C.2   154  ILE154      0.2591
     70  O         56.5390   29.4660   94.2420 O.2   154  ILE154     -0.2718
     71  CB        58.9040   27.2070   93.8250 C.3   154  ILE154      0.0266
     72  CG1       60.0330   26.7690   92.8900 C.3   154  ILE154      0.0019
     73  CG2       57.5970   26.5760   93.3760 C.3   154  ILE154      0.0020
     74  CD1       60.1710   25.2740   92.7580 C.3   154  ILE154      0.0001
     75  N         57.9080   29.4030   96.0200 N.am  155  ALA155     -0.1980
     76  CA        56.8580   29.8590   96.9290 C.3   155  ALA155      0.1597
     77  C         56.4170   31.2800   96.5950 C.2   155  ALA155      0.2287
     78  O         55.2160   31.5600   96.4700 O.2   155  ALA155     -0.2864
     79  CB        57.3460   29.7700   98.3740 C.3   155  ALA155      0.0319
     80  N         54.4770   31.2470   93.3390 N.3   158  ARG158     -0.1231
     81  CA        53.0920   30.8000   93.4330 C.3   158  ARG158      0.1694
     82  C         52.2220   31.8610   94.0960 C.2   158  ARG158      0.2591
     83  O         51.1140   32.1590   93.6210 O.2   158  ARG158     -0.2718
     84  CB        53.0250   29.4740   94.1930 C.3   158  ARG158      0.0321
     85  CG        53.7210   28.3110   93.4970 C.3   158  ARG158      0.0489
     86  CD        53.9570   27.1450   94.4460 C.3   158  ARG158      0.2205
     87  NE        54.4600   25.9690   93.7410 N.pl3 158  ARG158     -0.0865
     88  CZ        54.7300   24.8020   94.3200 C.cat 158  ARG158      0.5346
     89  NH1       54.5440   24.6440   95.6240 N.pl3 158  ARG158      0.1354
     90  NH2       55.1860   23.7880   93.5930 N.pl3 158  ARG158      0.1354
     91  N         52.7230   32.4570   95.1810 N.am  159  LEU159     -0.1980
     92  CA        51.9980   33.5480   95.8210 C.3   159  LEU159      0.1596
     93  C         51.8130   34.7220   94.8720 C.2   159  LEU159      0.2287
     94  O         50.7930   35.4170   94.9360 O.2   159  LEU159     -0.2864
     95  CB        52.7290   33.9850   97.0900 C.3   159  LEU159      0.0297
     96  CG        52.0490   35.0440   97.9590 C.3   159  LEU159      0.0022
     97  CD1       50.6260   34.6290   98.3100 C.3   159  LEU159      0.0001
     98  CD2       52.8670   35.2920   99.2210 C.3   159  LEU159      0.0001
     99  N         49.0200   33.7350   92.1520 N.3   162  LEU162     -0.1245
    100  CA        47.7380   33.9910   92.8020 C.3   162  LEU162      0.1561
    101  C         47.4860   35.4850   92.9450 C.2   162  LEU162      0.2260
    102  O         46.3770   35.9660   92.6770 O.2   162  LEU162     -0.2867
    103  CB        47.6950   33.3150   94.1690 C.3   162  LEU162      0.0270
    104  CG        47.6480   31.7950   94.1150 C.3   162  LEU162      0.0019
    105  CD1       47.2130   31.2440   95.4550 C.3   162  LEU162      0.0001
    106  CD2       46.6980   31.3570   93.0140 C.3   162  LEU162      0.0001
@<TRIPOS>BOND
     1    99   100    1
     2   102   101    2
     3    74    72    1
     4   100   101    1
     5   100   103    1
     6    72    71    1
     7   106   104    1
     8    80    81    1
     9    73    71    1
    10    81    82    1
    11    81    84    1
    12    85    84    1
    13    85    86    1
    14    90    88    1
    15    83    82    2
    16    87    88    2
    17    87    86    1
    18    71    68    1
    19    68    67    1
    20    68    69    1
    21    82    91   am
    22   104   103    1
    23   104   105    1
    24    70    69    2
    25    88    89    1
    26    69    75   am
    27    93    94    2
    28    93    92    1
    29    91    92    1
    30    49    48    2
    31    92    95    1
    32    48    47    1
    33    75    76    1
    34    47    46    1
    35    78    77    2
    36    77    76    1
    37    58    59    1
    38    43    45   ar
    39    43    41   ar
    40    76    79    1
    41    95    96    1
    42    45    44   ar
    43    40    41   ar
    44    40    38   ar
    45    59    60    1
    46    59    62    1
    47    50    51    1
    48    41    39   ar
    49    61    60    2
    50    38    37   ar
    51    44    42   ar
    52    96    97    1
    53    96    98    1
    54    18    17    1
    55    52    51    1
    56    52    53    2
    57    39    42   ar
    58    39    37   ar
    59    17    16    1
    60    63    62    1
    61    63    64    1
    62    51    54    1
    63    37    36    1
    64    57    55   am
    65    54    55    1
    66    16    15    1
    67    36    33    1
    68    66    64   ar
    69    55    56    2
    70    64    65   ar
    71    15    14    1
    72    33    32    1
    73    33    34    1
    74    32    25   am
    75    14    11    1
    76    22    21    2
    77    34    35    2
    78    13    12    2
    79    25    24    1
    80    25    26    2
    81    12    11    1
    82    12    19   am
    83    11    10    1
    84    24    23    1
    85    24    27    1
    86    21    23   am
    87    21    20    1
    88    20    19    1
    89    27    28    1
    90    10     3   am
    91    28    29    1
    92     3     4    2
    93     3     2    1
    94    31    29   ar
    95    29    30   ar
    96     1     2    1
    97     2     5    1
    98     5     6    1
    99     6     7    1
   100     9     8    1
   101     7     8    1
