@<TRIPOS>MOLECULE
tmp/5l8rJ09.pdb
 82 76 0 0 0
SMALL
GASTEIGER

@<TRIPOS>ATOM
      1  N         36.5750   13.3030   79.6900 N.3   100  VAL100     -0.1231
      2  CA        36.2710   12.5590   80.9080 C.3   100  VAL100      0.1692
      3  C         35.8150   11.1470   80.5650 C.2   100  VAL100      0.2592
      4  O         36.2860   10.1660   81.1570 O.2   100  VAL100     -0.2718
      5  CB        35.2270   13.3170   81.7480 C.3   100  VAL100      0.0266
      6  CG1       34.6970   12.4480   82.8580 C.3   100  VAL100      0.0020
      7  CG2       35.8470   14.5670   82.3370 C.3   100  VAL100      0.0020
      8  N         34.9080   11.0190   79.5900 N.am  101  GLY101     -0.1957
      9  CA        34.4620    9.6960   79.1780 C.3   101  GLY101      0.1869
     10  C         35.6000    8.8290   78.6730 C.2   101  GLY101      0.2309
     11  O         35.6780    7.6370   78.9920 O.2   101  GLY101     -0.2863
     12  N         37.5210    7.5730   81.6100 N.3   104  TYR104     -0.1227
     13  CA        36.8420    6.4550   82.2510 C.3   104  TYR104      0.1736
     14  C         37.0760    5.1620   81.4800 C.2   104  TYR104      0.2595
     15  O         37.4340    4.1290   82.0670 O.2   104  TYR104     -0.2718
     16  CB        35.3520    6.7710   82.3580 C.3   104  TYR104      0.0548
     17  CG        34.5300    5.7610   83.1120 C.ar  104  TYR104     -0.0200
     18  CD1       34.3190    5.8900   84.4760 C.ar  104  TYR104     -0.0009
     19  CD2       33.9440    4.6880   82.4570 C.ar  104  TYR104     -0.0009
     20  CE1       33.5550    4.9720   85.1730 C.ar  104  TYR104      0.0417
     21  CE2       33.1790    3.7650   83.1460 C.ar  104  TYR104      0.0417
     22  CZ        32.9880    3.9150   84.5030 C.ar  104  TYR104      0.1957
     23  OH        32.2280    3.0040   85.1960 O.3   104  TYR104     -0.2866
     24  N         36.8990    5.2070   80.1560 N.am  105  LEU105     -0.1980
     25  CA        37.0920    4.0090   79.3420 C.3   105  LEU105      0.1596
     26  C         38.5200    3.4850   79.4400 C.2   105  LEU105      0.2287
     27  O         38.7360    2.2700   79.5070 O.2   105  LEU105     -0.2864
     28  CB        36.7270    4.2940   77.8890 C.3   105  LEU105      0.0297
     29  CG        35.2220    4.3730   77.6460 C.3   105  LEU105      0.0022
     30  CD1       34.9390    4.5120   76.1710 C.3   105  LEU105      0.0001
     31  CD2       34.5270    3.1440   78.2170 C.3   105  LEU105      0.0001
     32  N         30.7050   -0.6190   82.2350 N.3   118  GLU118     -0.1231
     33  CA        30.0510    0.2220   81.2440 C.3   118  GLU118      0.1699
     34  C         28.5370    0.2440   81.4270 C.2   118  GLU118      0.2592
     35  O         27.8940    1.2420   81.0880 O.2   118  GLU118     -0.2718
     36  CB        30.4360   -0.2440   79.8390 C.3   118  GLU118      0.0402
     37  CG        31.8970    0.0340   79.5300 C.3   118  GLU118      0.1161
     38  CD        32.3320   -0.4410   78.1580 C.2   118  GLU118      0.3649
     39  OE1       31.5040   -1.0290   77.4270 O.co2 118  GLU118     -0.2457
     40  OE2       33.5180   -0.2230   77.8170 O.co2 118  GLU118     -0.2457
     41  N         27.9570   -0.8240   81.9740 N.am  119  ILE119     -0.1980
     42  CA        26.5230   -0.8650   82.2440 C.3   119  ILE119      0.1595
     43  C         26.1900   -0.5290   83.6940 C.2   119  ILE119      0.2287
     44  O         25.0520   -0.1210   83.9760 O.2   119  ILE119     -0.2864
     45  CB        25.9230   -2.2400   81.8790 C.3   119  ILE119      0.0276
     46  CG1       26.6300   -3.3540   82.6630 C.3   119  ILE119      0.0022
     47  CG2       26.0060   -2.4700   80.3770 C.3   119  ILE119      0.0022
     48  CD1       25.8380   -4.6420   82.7480 C.3   119  ILE119      0.0001
     49  N         27.8550    1.9440   86.4310 N.3   121  ILE121     -0.1245
     50  CA        28.9080    2.9500   86.5040 C.3   121  ILE121      0.1561
     51  C         29.6650    2.8230   87.8180 C.2   121  ILE121      0.2260
     52  O         29.0630    2.7040   88.8930 O.2   121  ILE121     -0.2867
     53  CB        28.3160    4.3580   86.3480 C.3   121  ILE121      0.0252
     54  CG1       27.4340    4.4340   85.1010 C.3   121  ILE121      0.0019
     55  CG2       29.4300    5.3920   86.2810 C.3   121  ILE121      0.0019
     56  CD1       28.2000    4.2730   83.8110 C.3   121  ILE121      0.0001
     57  N         30.8280    4.8190   90.1220 N.3   123  VAL123     -0.1245
     58  CA        30.6490    6.2300   90.4800 C.3   123  VAL123      0.1561
     59  C         31.8410    6.8040   91.2270 C.2   123  VAL123      0.2260
     60  O         32.1990    7.9620   90.9710 O.2   123  VAL123     -0.2867
     61  CB        29.3190    6.4160   91.2300 C.3   123  VAL123      0.0252
     62  CG1       29.1330    7.8700   91.6040 C.3   123  VAL123      0.0019
     63  CG2       28.1670    5.9430   90.3660 C.3   123  VAL123      0.0019
     64  N         34.2740    7.6410   88.5340 N.3   126  ALA126     -0.1231
     65  CA        33.7440    8.7510   87.7520 C.3   126  ALA126      0.1694
     66  C         33.9350   10.0790   88.4780 C.2   126  ALA126      0.2592
     67  O         34.3470   11.0730   87.8690 O.2   126  ALA126     -0.2718
     68  CB        32.2660    8.5110   87.4440 C.3   126  ALA126      0.0304
     69  N         33.6450   10.1120   89.7820 N.am  127  THR127     -0.1953
     70  CA        33.8210   11.3380   90.5540 C.3   127  THR127      0.1897
     71  C         35.2880   11.7310   90.6240 C.2   127  THR127      0.2313
     72  O         35.6240   12.9200   90.5890 O.2   127  THR127     -0.2863
     73  CB        33.2540   11.1680   91.9630 C.3   127  THR127      0.1794
     74  OG1       33.8710   10.0420   92.5960 O.3   127  THR127     -0.2208
     75  CG2       31.7490   10.9610   91.9150 C.3   127  THR127      0.0378
     76  N         35.9160   13.3430   86.9550 N.3   130  VAL130     -0.1245
     77  CA        35.1140   14.3790   86.3000 C.3   130  VAL130      0.1561
     78  C         35.8880   15.6860   86.2020 C.2   130  VAL130      0.2260
     79  O         35.7820   16.4140   85.2080 O.2   130  VAL130     -0.2867
     80  CB        33.7670   14.5830   87.0210 C.3   130  VAL130      0.0252
     81  CG1       32.7940   13.4630   86.6630 C.3   130  VAL130      0.0019
     82  CG2       33.9690   14.6920   88.5230 C.3   130  VAL130      0.0019
@<TRIPOS>BOND
     1    30    29    1
     2    39    38   ar
     3    29    28    1
     4    29    31    1
     5    40    38   ar
     6    28    25    1
     7    38    37    1
     8    10    11    2
     9    10     9    1
    10     9     8    1
    11    25    26    1
    12    25    24    1
    13    26    27    2
    14    37    36    1
    15     8     3   am
    16     1     2    1
    17    36    33    1
    18    24    14   am
    19    47    45    1
    20     3     2    1
    21     3     4    2
    22     2     5    1
    23    35    34    2
    24    33    34    1
    25    33    32    1
    26    34    41   am
    27    14    15    2
    28    14    13    1
    29    12    13    1
    30     5     7    1
    31     5     6    1
    32    45    42    1
    33    45    46    1
    34    41    42    1
    35    42    43    1
    36    13    16    1
    37    16    17    1
    38    19    17   ar
    39    19    21   ar
    40    46    48    1
    41    17    18   ar
    42    21    22   ar
    43    43    44    2
    44    56    54    1
    45    18    20   ar
    46    22    20   ar
    47    22    23    1
    48    54    53    1
    49    79    78    2
    50    78    77    1
    51    55    53    1
    52    77    76    1
    53    77    80    1
    54    53    50    1
    55    49    50    1
    56    50    51    1
    57    81    80    1
    58    80    82    1
    59    68    65    1
    60    65    66    1
    61    65    64    1
    62    51    52    2
    63    67    66    2
    64    66    69   am
    65    69    70    1
    66    57    58    1
    67    63    61    1
    68    58    59    1
    69    58    61    1
    70    70    71    1
    71    70    73    1
    72    72    71    2
    73    60    59    2
    74    61    62    1
    75    75    73    1
    76    73    74    1
