@<TRIPOS>MOLECULE
tmp/5l8rE22.pdb
 112 107 0 0 0
SMALL
GASTEIGER

@<TRIPOS>ATOM
      1  N        -11.5900   -4.2800   45.7100 N.3   440  PHE440     -0.1227
      2  CA       -12.1470   -3.7480   44.4700 C.3   440  PHE440      0.1736
      3  C        -13.4900   -3.0720   44.7090 C.2   440  PHE440      0.2595
      4  O        -13.6810   -1.9070   44.3450 O.2   440  PHE440     -0.2718
      5  CB       -12.2820   -4.8570   43.4280 C.3   440  PHE440      0.0547
      6  CG       -10.9740   -5.2900   42.8400 C.ar  440  PHE440     -0.0202
      7  CD1       -9.9310   -4.3930   42.7080 C.ar  440  PHE440     -0.0042
      8  CD2      -10.7820   -6.5970   42.4300 C.ar  440  PHE440     -0.0042
      9  CE1       -8.7260   -4.7880   42.1680 C.ar  440  PHE440     -0.0003
     10  CE2       -9.5750   -7.0030   41.8940 C.ar  440  PHE440     -0.0003
     11  CZ        -8.5470   -6.1000   41.7620 C.ar  440  PHE440     -0.0000
     12  N        -14.4280   -3.7740   45.3380 N.am  441  HIS441     -0.1975
     13  CA       -15.8080   -3.3040   45.3990 C.3   441  HIS441      0.1656
     14  C        -16.0830   -2.3840   46.5760 C.2   441  HIS441      0.2291
     15  O        -17.2490   -2.1210   46.8830 O.2   441  HIS441     -0.2864
     16  CB       -16.7580   -4.4960   45.4140 C.3   441  HIS441      0.0771
     17  CG       -16.7090   -5.2840   44.1500 C.ar  441  HIS441      0.0820
     18  ND1      -15.6270   -6.0650   43.8050 N.ar  441  HIS441     -0.2267
     19  CD2      -17.5760   -5.3600   43.1140 C.ar  441  HIS441      0.1154
     20  CE1      -15.8440   -6.6140   42.6250 C.ar  441  HIS441      0.1986
     21  NE2      -17.0170   -6.1990   42.1840 N.ar  441  HIS441     -0.2212
     22  N        -12.1820    0.5320   44.9280 N.3   444  GLY444     -0.1210
     23  CA       -12.2730    0.7410   43.4950 C.3   444  GLY444      0.1956
     24  C        -13.4600    1.5940   43.0970 C.2   444  GLY444      0.2611
     25  O        -13.4400    2.2410   42.0470 O.2   444  GLY444     -0.2717
     26  N        -14.5070    1.6120   43.9260 N.am  445  LEU445     -0.1979
     27  CA       -15.6270    2.5130   43.6750 C.3   445  LEU445      0.1596
     28  C        -15.2180    3.9640   43.8960 C.2   445  LEU445      0.2287
     29  O        -15.6220    4.8570   43.1380 O.2   445  LEU445     -0.2864
     30  CB       -16.8080    2.1380   44.5670 C.3   445  LEU445      0.0297
     31  CG       -17.2320    0.6750   44.4310 C.3   445  LEU445      0.0022
     32  CD1      -18.4720    0.3930   45.2470 C.3   445  LEU445      0.0001
     33  CD2      -17.4640    0.3510   42.9750 C.3   445  LEU445      0.0001
     34  N        -12.1600    5.0660   43.4080 N.3   447  ILE447     -0.1231
     35  CA       -11.3570    5.4160   42.2370 C.3   447  ILE447      0.1692
     36  C        -12.2580    5.6850   41.0390 C.2   447  ILE447      0.2592
     37  O        -12.0110    6.6060   40.2470 O.2   447  ILE447     -0.2718
     38  CB       -10.3240    4.3170   41.9420 C.3   447  ILE447      0.0266
     39  CG1       -9.4140    4.1210   43.1540 C.3   447  ILE447      0.0019
     40  CG2       -9.4990    4.6850   40.7250 C.3   447  ILE447      0.0020
     41  CD1       -8.7350    5.3830   43.6090 C.3   447  ILE447      0.0001
     42  N        -13.3270    4.8980   40.8980 N.am  448  HIS448     -0.1976
     43  CA       -14.3200    5.1630   39.8620 C.3   448  HIS448      0.1656
     44  C        -14.8680    6.5790   39.9740 C.2   448  HIS448      0.2291
     45  O        -14.9690    7.2960   38.9700 O.2   448  HIS448     -0.2864
     46  CB       -15.4520    4.1420   39.9580 C.3   448  HIS448      0.0771
     47  CG       -16.5620    4.3740   38.9820 C.ar  448  HIS448      0.0820
     48  ND1      -16.4170    4.1620   37.6300 N.ar  448  HIS448     -0.2267
     49  CD2      -17.8320    4.8030   39.1600 C.ar  448  HIS448      0.1154
     50  CE1      -17.5540    4.4350   37.0170 C.ar  448  HIS448      0.1986
     51  NE2      -18.4280    4.8310   37.9230 N.ar  448  HIS448     -0.2212
     52  N        -12.2520    9.2900   39.0430 N.3   451  THR451     -0.1203
     53  CA       -12.0160    9.3480   37.6060 C.3   451  THR451      0.1994
     54  C        -13.2000    9.9690   36.8740 C.2   451  THR451      0.2617
     55  O        -13.0100   10.7740   35.9550 O.2   451  THR451     -0.2717
     56  CB       -11.7140    7.9500   37.0750 C.3   451  THR451      0.1784
     57  OG1      -10.7010    7.3600   37.8930 O.3   451  THR451     -0.2211
     58  CG2      -11.2090    8.0160   35.6450 C.3   451  THR451      0.0376
     59  N        -14.4290    9.6230   37.2690 N.am  452  MET452     -0.1979
     60  CA       -15.5900   10.2260   36.6190 C.3   452  MET452      0.1605
     61  C        -15.6790   11.7210   36.9150 C.2   452  MET452      0.2287
     62  O        -16.0070   12.5180   36.0270 O.2   452  MET452     -0.2864
     63  CB       -16.8700    9.5090   37.0510 C.3   452  MET452      0.0413
     64  CG       -16.9470    8.0270   36.6640 C.3   452  MET452      0.0598
     65  SD       -17.0460    7.6920   34.8870 S.3   452  MET452     -0.1393
     66  CE       -15.3190    7.4900   34.4520 C.3   452  MET452      0.0692
     67  N        -13.1170   13.6390   34.8550 N.3   455  LEU455     -0.1245
     68  CA       -13.4800   13.6800   33.4420 C.3   455  LEU455      0.1561
     69  C        -14.7260   14.5110   33.1610 C.2   455  LEU455      0.2260
     70  O        -15.1350   14.6010   31.9990 O.2   455  LEU455     -0.2867
     71  CB       -13.6850   12.2590   32.9130 C.3   455  LEU455      0.0270
     72  CG       -12.4270   11.3840   32.8830 C.3   455  LEU455      0.0019
     73  CD1      -12.7850    9.9110   32.6780 C.3   455  LEU455      0.0001
     74  CD2      -11.4550   11.8660   31.8120 C.3   455  LEU455      0.0001
     75  N        -17.9440   14.0000   34.5260 N.3   457  ARG457     -0.1245
     76  CA       -19.0730   13.0790   34.3830 C.3   457  ARG457      0.1563
     77  C        -19.6290   12.7240   35.7570 C.2   457  ARG457      0.2260
     78  O        -19.6900   11.5500   36.1340 O.2   457  ARG457     -0.2867
     79  CB       -18.6470   11.8180   33.6310 C.3   457  ARG457      0.0307
     80  CG       -18.1370   12.0490   32.2220 C.3   457  ARG457      0.0489
     81  CD       -17.3930   10.8310   31.7010 C.3   457  ARG457      0.2205
     82  NE       -18.1950    9.6130   31.7790 N.pl3 457  ARG457     -0.0865
     83  CZ       -17.7500    8.4060   31.4430 C.cat 457  ARG457      0.5346
     84  NH1      -16.5080    8.2530   31.0070 N.pl3 457  ARG457      0.1354
     85  NH2      -18.5460    7.3490   31.5450 N.pl3 457  ARG457      0.1354
     86  N        -22.0420    9.8910   36.1500 N.3   460  ASP460     -0.1239
     87  CA       -21.5370    8.5290   36.0470 C.3   460  ASP460      0.1674
     88  C        -20.8060    8.0770   37.3060 C.2   460  ASP460      0.2266
     89  O        -20.1400    7.0390   37.2840 O.2   460  ASP460     -0.2867
     90  CB       -20.6190    8.3960   34.8290 C.3   460  ASP460      0.1410
     91  CG       -21.3860    8.3970   33.5210 C.2   460  ASP460      0.3668
     92  OD1      -22.5170    7.8700   33.5040 O.co2 460  ASP460     -0.2456
     93  OD2      -20.8600    8.9180   32.5110 O.co2 460  ASP460     -0.2456
     94  N        -20.7240    7.1590   41.6500 N.3   462  PHE462     -0.1241
     95  CA       -21.5470    6.4640   42.6370 C.3   462  PHE462      0.1605
     96  C        -21.9310    7.4890   43.6970 C.2   462  PHE462      0.2264
     97  O        -21.1270    7.8250   44.5690 O.2   462  PHE462     -0.2867
     98  CB       -20.8030    5.2770   43.2410 C.3   462  PHE462      0.0534
     99  CG       -20.7000    4.0950   42.3190 C.ar  462  PHE462     -0.0203
    100  CD1      -21.8310    3.3710   41.9710 C.ar  462  PHE462     -0.0042
    101  CD2      -19.4740    3.7020   41.8060 C.ar  462  PHE462     -0.0042
    102  CE1      -21.7420    2.2800   41.1210 C.ar  462  PHE462     -0.0003
    103  CE2      -19.3800    2.6090   40.9570 C.ar  462  PHE462     -0.0003
    104  CZ       -20.5150    1.9010   40.6130 C.ar  462  PHE462     -0.0000
    105  N        -25.6320    7.2510   40.8210 N.3   467  ILE467     -0.1245
    106  CA       -25.8510    5.8100   40.9300 C.3   467  ILE467      0.1561
    107  C        -25.8750    5.4840   42.4180 C.2   467  ILE467      0.2260
    108  O        -24.8220    5.3370   43.0520 O.2   467  ILE467     -0.2867
    109  CB       -24.7770    5.0000   40.1980 C.3   467  ILE467      0.0252
    110  CG1      -24.7310    5.3920   38.7180 C.3   467  ILE467      0.0019
    111  CG2      -25.0310    3.5160   40.3560 C.3   467  ILE467      0.0019
    112  CD1      -23.7170    4.6110   37.9110 C.3   467  ILE467      0.0001
@<TRIPOS>BOND
     1    84    83    1
     2    83    85    1
     3    83    82    2
     4    81    82    1
     5    81    80    1
     6    74    72    1
     7    70    69    2
     8    80    79    1
     9    93    91   ar
    10    73    72    1
    11    72    71    1
    12    71    68    1
    13    69    68    1
    14    68    67    1
    15    92    91   ar
    16    91    90    1
    17    79    76    1
    18    76    75    1
    19    76    77    1
    20    66    65    1
    21    90    87    1
    22    65    64    1
    23    58    56    1
    24    77    78    2
    25    55    54    2
    26    62    61    2
    27    87    86    1
    28    87    88    1
    29    60    61    1
    30    60    63    1
    31    60    59    1
    32    64    63    1
    33    54    59   am
    34    54    53    1
    35    50    48   ar
    36    50    51   ar
    37    56    53    1
    38    56    57    1
    39    89    88    2
    40    53    52    1
    41    48    47   ar
    42   112   110    1
    43    51    49   ar
    44   110   109    1
    45    45    44    2
    46    47    49   ar
    47    47    46    1
    48    43    46    1
    49    43    44    1
    50    43    42    1
    51   109   111    1
    52   109   106    1
    53    37    36    2
    54   104   103   ar
    55   104   102   ar
    56    40    38    1
    57   105   106    1
    58    42    36   am
    59   106   107    1
    60   103   101   ar
    61    36    35    1
    62   102   100   ar
    63    94    95    1
    64    11    10   ar
    65    11     9   ar
    66   101    99   ar
    67    10     8   ar
    68    38    35    1
    69    38    39    1
    70   100    99   ar
    71    25    24    2
    72     9     7   ar
    73    21    20   ar
    74    21    19   ar
    75    35    34    1
    76    99    98    1
    77   107   108    2
    78     8     6   ar
    79    20    18   ar
    80    95    98    1
    81    95    96    1
    82     7     6   ar
    83     6     5    1
    84    33    31    1
    85    24    23    1
    86    24    26   am
    87    19    17   ar
    88    29    28    2
    89    39    41    1
    90     5     2    1
    91    23    22    1
    92    27    28    1
    93    27    26    1
    94    27    30    1
    95    96    97    2
    96    18    17   ar
    97    17    16    1
    98     4     3    2
    99    31    30    1
   100    31    32    1
   101     2     3    1
   102     2     1    1
   103     3    12   am
   104    12    13    1
   105    13    16    1
   106    13    14    1
   107    14    15    2
