@<TRIPOS>MOLECULE
tmp/5l8rO02.pdb
 73 70 0 0 0
SMALL
GASTEIGER

@<TRIPOS>ATOM
      1  N        -32.5420  -31.0030   90.8590 N.3    26  PRO26      -0.2102
      2  CA       -31.1210  -31.2230   91.1620 C.3    26  PRO26       0.1504
      3  C        -30.7200  -30.7110   92.5370 C.2    26  PRO26       0.2576
      4  O        -30.3190  -29.5520   92.6850 O.2    26  PRO26      -0.2718
      5  CB       -30.4020  -30.4550   90.0450 C.3    26  PRO26       0.0282
      6  CG       -31.3940  -30.3970   88.9300 C.3    26  PRO26       0.0208
      7  CD       -32.7330  -30.2670   89.5980 C.3    26  PRO26       0.0893
      8  N        -30.8250  -31.5710   93.5480 N.am   27  SER27      -0.1953
      9  CA       -30.3780  -31.2220   94.8870 C.3    27  SER27       0.1924
     10  C        -28.8510  -31.2220   94.9460 C.2    27  SER27       0.2314
     11  O        -28.1600  -31.4990   93.9610 O.2    27  SER27      -0.2863
     12  CB       -30.9680  -32.1890   95.9110 C.3    27  SER27       0.2116
     13  OG       -30.4780  -31.9160   97.2130 O.3    27  SER27      -0.2180
     14  N        -27.8510  -34.6290   94.2210 N.3    30  ARG30      -0.1231
     15  CA       -28.4190  -35.1640   92.9850 C.3    30  ARG30       0.1694
     16  C        -27.9590  -34.2910   91.8250 C.2    30  ARG30       0.2592
     17  O        -28.4580  -33.1750   91.6500 O.2    30  ARG30      -0.2718
     18  CB       -29.9470  -35.2210   93.0560 C.3    30  ARG30       0.0321
     19  CG       -30.4860  -36.4640   93.7200 C.3    30  ARG30       0.0489
     20  CD       -32.0120  -36.5630   93.5520 C.3    30  ARG30       0.2205
     21  NE       -32.7170  -35.3680   94.0320 N.pl3  30  ARG30      -0.0865
     22  CZ       -33.1940  -35.2080   95.2620 C.cat  30  ARG30       0.5346
     23  NH1      -33.0600  -36.1650   96.1650 N.pl3  30  ARG30       0.1354
     24  NH2      -33.7910  -34.0740   95.5960 N.pl3  30  ARG30       0.1354
     25  N        -27.0140  -34.7970   91.0350 N.am   31  LYS31      -0.1966
     26  CA       -26.5020  -34.0750   89.8780 C.3    31  LYS31       0.1728
     27  C        -27.2780  -34.4660   88.6260 C.2    31  LYS31       0.2616
     28  O        -27.6130  -35.6370   88.4290 O.2    31  LYS31      -0.2715
     29  CB       -25.0110  -34.3580   89.6820 C.3    31  LYS31       0.0311
     30  CG       -24.0460  -33.9980   90.8070 C.3    31  LYS31       0.0038
     31  CD       -24.1100  -32.5180   90.9250 C.3    31  LYS31       0.0206
     32  CE       -23.2730  -32.3190   92.2140 C.3    31  LYS31       0.1093
     33  NZ       -23.8450  -31.1700   92.9320 N.3    31  LYS31      -0.1314
     34  N        -27.5560  -33.4800   87.7800 N.am   32  ALA32      -0.1963
     35  CA       -28.3660  -33.6780   86.5880 C.3    32  ALA32       0.1728
     36  C        -27.5000  -33.6590   85.3330 C.2    32  ALA32       0.2617
     37  O        -26.3990  -33.1020   85.3150 O.2    32  ALA32      -0.2715
     38  CB       -29.4580  -32.6080   86.4900 C.3    32  ALA32       0.0334
     39  N        -28.0230  -34.2800   84.2730 N.am   33  THR33      -0.1937
     40  CA       -27.3140  -34.4030   83.0020 C.3    33  THR33       0.2028
     41  C        -28.1040  -33.8020   81.8460 C.2    33  THR33       0.2642
     42  O        -27.6100  -32.8870   81.1790 O.2    33  THR33      -0.2714
     43  CB       -26.9910  -35.8780   82.7190 C.3    33  THR33       0.1808
     44  OG1      -28.2090  -36.6170   82.5670 O.3    33  THR33      -0.2208
     45  CG2      -26.1800  -36.4790   83.8580 C.3    33  THR33       0.0379
     46  N        -29.3120  -34.2930   81.5810 N.am   34  ALA34      -0.1977
     47  CA       -30.1400  -33.7690   80.4980 C.3    34  ALA34       0.1597
     48  C        -31.6220  -34.0070   80.7770 C.2    34  ALA34       0.2287
     49  O        -32.1930  -33.4250   81.6990 O.2    34  ALA34      -0.2864
     50  CB       -29.7420  -34.4010   79.1710 C.3    34  ALA34       0.0319
     51  N        -34.5270  -19.8860   94.2000 N.3    61  VAL61      -0.1245
     52  CA       -35.2360  -20.1930   92.9600 C.3    61  VAL61       0.1561
     53  C        -36.7290  -19.9490   93.1270 C.2    61  VAL61       0.2260
     54  O        -37.3880  -19.4020   92.2330 O.2    61  VAL61      -0.2867
     55  CB       -34.9420  -21.6370   92.5160 C.3    61  VAL61       0.0252
     56  CG1      -35.7600  -21.9950   91.2820 C.3    61  VAL61       0.0019
     57  CG2      -33.4660  -21.8030   92.2390 C.3    61  VAL61       0.0019
     58  N        -37.0800  -16.2960   92.6940 N.3    64  ILE64      -0.1231
     59  CA       -36.9830  -15.8500   91.3080 C.3    64  ILE64       0.1692
     60  C        -38.2930  -16.1250   90.5820 C.2    64  ILE64       0.2591
     61  O        -38.8760  -15.2330   89.9490 O.2    64  ILE64      -0.2718
     62  CB       -35.7910  -16.5290   90.6090 C.3    64  ILE64       0.0266
     63  CG1      -34.4730  -16.1020   91.2620 C.3    64  ILE64       0.0019
     64  CG2      -35.7820  -16.2090   89.1210 C.3    64  ILE64       0.0020
     65  CD1      -33.2660  -16.8800   90.7810 C.3    64  ILE64       0.0001
     66  N        -38.7850  -17.3630   90.6860 N.am   65  ILE65      -0.1980
     67  CA       -40.0900  -17.7030   90.1270 C.3    65  ILE65       0.1595
     68  C        -41.1780  -16.8400   90.7510 C.2    65  ILE65       0.2287
     69  O        -42.0710  -16.3480   90.0550 O.2    65  ILE65      -0.2864
     70  CB       -40.3840  -19.2020   90.3220 C.3    65  ILE65       0.0276
     71  CG1      -39.3200  -20.0610   89.6380 C.3    65  ILE65       0.0022
     72  CG2      -41.7650  -19.5500   89.7880 C.3    65  ILE65       0.0022
     73  CD1      -39.5130  -21.5520   89.8560 C.3    65  ILE65       0.0001
@<TRIPOS>BOND
     1    50    47    1
     2    47    48    1
     3    47    46    1
     4    48    49    2
     5    42    41    2
     6    46    41   am
     7    41    40    1
     8    44    43    1
     9    43    40    1
    10    43    45    1
    11    40    39    1
    12    39    36   am
    13    37    36    2
    14    36    35    1
    15    38    35    1
    16    35    34    1
    17    34    27   am
    18    28    27    2
    19    27    26    1
    20     6     7    1
    21     6     5    1
    22    64    62    1
    23     7     1    1
    24    71    73    1
    25    71    70    1
    26    29    26    1
    27    29    30    1
    28    72    70    1
    29    26    25    1
    30    61    60    2
    31     5     2    1
    32    69    68    2
    33    67    70    1
    34    67    66    1
    35    67    68    1
    36    60    66   am
    37    60    59    1
    38    62    63    1
    39    62    59    1
    40    65    63    1
    41    30    31    1
    42     1     2    1
    43    31    32    1
    44    25    16   am
    45     2     3    1
    46    56    55    1
    47    59    58    1
    48    17    16    2
    49    16    15    1
    50    32    33    1
    51    54    53    2
    52    57    55    1
    53    55    52    1
    54     3     4    2
    55     3     8   am
    56    52    53    1
    57    52    51    1
    58    15    18    1
    59    15    14    1
    60    18    19    1
    61     8     9    1
    62    20    19    1
    63    20    21    1
    64    11    10    2
    65    21    22    2
    66     9    10    1
    67     9    12    1
    68    22    24    1
    69    22    23    1
    70    12    13    1
