@<TRIPOS>MOLECULE
tmp/5l8rB13.pdb
 81 80 0 0 0
SMALL
GASTEIGER

@<TRIPOS>ATOM
      1  N         31.6450   29.4350  106.6670 N.3   100  LEU100     -0.1231
      2  CA        32.0550   28.3810  105.7470 C.3   100  LEU100      0.1693
      3  C         33.5660   28.2110  105.7240 C.2   100  LEU100      0.2591
      4  O         34.0570   27.0990  105.4960 O.2   100  LEU100     -0.2718
      5  CB        31.5430   28.6730  104.3360 C.3   100  LEU100      0.0284
      6  CG        30.0370   28.5650  104.0990 C.3   100  LEU100      0.0019
      7  CD1       29.7260   28.6070  102.6100 C.3   100  LEU100      0.0001
      8  CD2       29.4890   27.2980  104.7320 C.3   100  LEU100      0.0001
      9  N         34.3170   29.2890  105.9540 N.am  101  VAL101     -0.1980
     10  CA        35.7730   29.1820  105.9550 C.3   101  VAL101      0.1595
     11  C         36.2520   28.4540  107.2050 C.2   101  VAL101      0.2287
     12  O         36.9250   27.4190  107.1220 O.2   101  VAL101     -0.2864
     13  CB        36.4220   30.5690  105.8250 C.3   101  VAL101      0.0276
     14  CG1       37.9020   30.4860  106.1480 C.3   101  VAL101      0.0022
     15  CG2       36.2140   31.1060  104.4190 C.3   101  VAL101      0.0022
     16  N         34.6790   25.1880  107.5930 N.3   104  GLY104     -0.1210
     17  CA        35.2690   24.3780  106.5400 C.3   104  GLY104      0.1956
     18  C         36.6130   23.7970  106.9360 C.2   104  GLY104      0.2611
     19  O         36.9350   22.6590  106.5870 O.2   104  GLY104     -0.2717
     20  N         37.4190   24.5730  107.6660 N.am  105  TRP105     -0.1976
     21  CA        38.6810   24.0520  108.1830 C.3   105  TRP105      0.1640
     22  C         38.4350   22.9060  109.1540 C.2   105  TRP105      0.2290
     23  O         38.9670   21.7980  108.9810 O.2   105  TRP105     -0.2864
     24  CB        39.4680   25.1700  108.8650 C.3   105  TRP105      0.0576
     25  CG        40.8010   24.7360  109.3840 C.ar  105  TRP105      0.0006
     26  CD1       41.0810   24.2230  110.6220 C.ar  105  TRP105      0.0946
     27  CD2       42.0440   24.7860  108.6820 C.ar  105  TRP105      0.0152
     28  NE1       42.4240   23.9490  110.7280 N.ar  105  TRP105     -0.2442
     29  CE2       43.0360   24.2860  109.5500 C.ar  105  TRP105      0.0810
     30  CE3       42.4150   25.2060  107.4010 C.ar  105  TRP105      0.0012
     31  CZ2       44.3700   24.1940  109.1760 C.ar  105  TRP105      0.0191
     32  CZ3       43.7360   25.1150  107.0340 C.ar  105  TRP105      0.0001
     33  CH2       44.6970   24.6100  107.9160 C.ar  105  TRP105      0.0015
     34  N         36.9840   19.9320  107.5290 N.3   108  GLY108     -0.1210
     35  CA        37.9600   19.3310  106.6340 C.3   108  GLY108      0.1956
     36  C         38.9370   18.4310  107.3650 C.2   108  GLY108      0.2611
     37  O         39.2580   17.3320  106.8970 O.2   108  GLY108     -0.2717
     38  N         39.4160   18.8740  108.5290 N.am  109  ARG109     -0.1979
     39  CA        40.3320   18.0280  109.2860 C.3   109  ARG109      0.1597
     40  C         39.6130   16.8160  109.8740 C.2   109  ARG109      0.2287
     41  O         40.1520   15.7000  109.8540 O.2   109  ARG109     -0.2864
     42  CB        41.0340   18.8480  110.3710 C.3   109  ARG109      0.0334
     43  CG        42.0330   19.8440  109.7960 C.3   109  ARG109      0.0492
     44  CD        42.9190   20.4460  110.8570 C.3   109  ARG109      0.2205
     45  NE        43.8460   19.4740  111.4340 N.pl3 109  ARG109     -0.0865
     46  CZ        45.1160   19.3310  111.0620 C.cat 109  ARG109      0.5346
     47  NH1       45.6240   20.0940  110.1050 N.pl3 109  ARG109      0.1354
     48  NH2       45.8840   18.4230  111.6500 N.pl3 109  ARG109      0.1354
     49  N         37.1920   15.3880  108.4790 N.3   111  TRP111     -0.1227
     50  CA        37.0660   14.5820  107.2700 C.3   111  TRP111      0.1737
     51  C         38.3170   13.7440  107.0340 C.2   111  TRP111      0.2595
     52  O         38.2400   12.5180  106.8510 O.2   111  TRP111     -0.2718
     53  CB        36.7980   15.5410  106.1110 C.3   111  TRP111      0.0564
     54  CG        36.6610   14.9890  104.7430 C.ar  111  TRP111      0.0003
     55  CD1       37.4250   15.3100  103.6670 C.ar  111  TRP111      0.0946
     56  CD2       35.6690   14.0740  104.2720 C.ar  111  TRP111      0.0152
     57  NE1       36.9890   14.6380  102.5560 N.ar  111  TRP111     -0.2442
     58  CE2       35.9110   13.8690  102.9020 C.ar  111  TRP111      0.0810
     59  CE3       34.6170   13.3870  104.8780 C.ar  111  TRP111      0.0012
     60  CZ2       35.1360   13.0150  102.1290 C.ar  111  TRP111      0.0191
     61  CZ3       33.8480   12.5530  104.1090 C.ar  111  TRP111      0.0001
     62  CH2       34.1110   12.3690  102.7520 C.ar  111  TRP111      0.0015
     63  N         39.4870   14.3920  107.0480 N.am  112  ALA112     -0.1980
     64  CA        40.7400   13.6580  106.9110 C.3   112  ALA112      0.1597
     65  C         40.8940   12.6050  107.9980 C.2   112  ALA112      0.2287
     66  O         41.5190   11.5630  107.7670 O.2   112  ALA112     -0.2864
     67  CB        41.9250   14.6240  106.9350 C.3   112  ALA112      0.0319
     68  N         45.7320   13.3130  111.3940 N.3   120  VAL120     -0.1245
     69  CA        45.3480   14.7090  111.5260 C.3   120  VAL120      0.1561
     70  C         45.5490   15.2280  112.9490 C.2   120  VAL120      0.2260
     71  O         45.1100   16.3330  113.2740 O.2   120  VAL120     -0.2867
     72  CB        43.8930   14.9040  111.0510 C.3   120  VAL120      0.0252
     73  CG1       42.9150   14.4860  112.1340 C.3   120  VAL120      0.0019
     74  CG2       43.6400   16.3170  110.5590 C.3   120  VAL120      0.0019
     75  N         49.6220   21.7550  112.7250 N.3   124  PRO124     -0.2116
     76  CA        50.5270   22.0230  111.5990 C.3   124  PRO124      0.1372
     77  C         51.4620   23.1970  111.8220 C.2   124  PRO124      0.2244
     78  O         52.2840   23.4800  110.9440 O.2   124  PRO124     -0.2868
     79  CB        49.5610   22.3060  110.4440 C.3   124  PRO124      0.0268
     80  CG        48.3510   22.8430  111.1110 C.3   124  PRO124      0.0207
     81  CD        48.2280   22.0850  112.3970 C.3   124  PRO124      0.0892
@<TRIPOS>BOND
     1    60    62   ar
     2    60    58   ar
     3    57    58   ar
     4    57    55   ar
     5     7     6    1
     6    62    61   ar
     7    58    56   ar
     8    55    54   ar
     9     6     5    1
    10     6     8    1
    11    61    59   ar
    12    56    54   ar
    13    56    59   ar
    14     5     2    1
    15    15    13    1
    16    54    53    1
    17     4     3    2
    18     3     2    1
    19     3     9   am
    20     2     1    1
    21    13    10    1
    22    13    14    1
    23     9    10    1
    24    10    11    1
    25    53    50    1
    26    17    18    1
    27    17    16    1
    28    19    18    2
    29    35    36    1
    30    35    34    1
    31    52    51    2
    32    37    36    2
    33    64    67    1
    34    64    63    1
    35    64    65    1
    36    18    20   am
    37    32    30   ar
    38    32    33   ar
    39    51    63   am
    40    51    50    1
    41    12    11    2
    42    50    49    1
    43    36    38   am
    44    30    27   ar
    45    20    21    1
    46    66    65    2
    47    33    31   ar
    48    21    24    1
    49    21    22    1
    50    38    39    1
    51    27    25   ar
    52    27    29   ar
    53    24    25    1
    54    23    22    2
    55    31    29   ar
    56    39    40    1
    57    39    42    1
    58    25    26   ar
    59    29    28   ar
    60    43    42    1
    61    43    44    1
    62    41    40    2
    63    47    46    1
    64    79    80    1
    65    79    76    1
    66    74    72    1
    67    26    28   ar
    68    44    45    1
    69    78    77    2
    70    72    69    1
    71    72    73    1
    72    46    45    2
    73    46    48    1
    74    80    81    1
    75    68    69    1
    76    69    70    1
    77    76    77    1
    78    76    75    1
    79    81    75    1
    80    70    71    2
