@<TRIPOS>MOLECULE
tmp/5l8rE58.pdb
 135 127 0 0 0
SMALL
GASTEIGER

@<TRIPOS>ATOM
      1  N          1.0630   -5.0070   90.3890 N.3    69  GLY69      -0.1225
      2  CA         1.8290   -3.8320   89.9960 C.3    69  GLY69       0.1811
      3  C          1.0520   -2.9240   89.0610 C.2    69  GLY69       0.2280
      4  O          1.0000   -1.7000   89.2500 O.2    69  GLY69      -0.2866
      5  N         -1.6170   -1.0570   90.9700 N.3    72  SER72      -0.1202
      6  CA        -0.9800    0.0120   91.7320 C.3    72  SER72       0.2020
      7  C         -0.7440    1.2360   90.8550 C.2    72  SER72       0.2618
      8  O         -1.0690    2.3670   91.2400 O.2    72  SER72      -0.2717
      9  CB         0.3350   -0.4890   92.3300 C.3    72  SER72       0.2103
     10  OG         0.9640    0.5190   93.1000 O.3    72  SER72      -0.2182
     11  N         -0.1970    1.0230   89.6540 N.am   73  ILE73      -0.1979
     12  CA         0.0500    2.1440   88.7510 C.3    73  ILE73       0.1595
     13  C         -1.2560    2.8260   88.3600 C.2    73  ILE73       0.2287
     14  O         -1.3300    4.0610   88.2880 O.2    73  ILE73      -0.2864
     15  CB         0.8370    1.6670   87.5190 C.3    73  ILE73       0.0276
     16  CG1        2.2970    1.4310   87.9050 C.3    73  ILE73       0.0022
     17  CG2        0.7020    2.6650   86.3670 C.3    73  ILE73       0.0022
     18  CD1        2.9950    0.4430   87.0260 C.3    73  ILE73       0.0001
     19  N         -2.4070    4.9860   91.2060 N.3    76  LEU76      -0.1245
     20  CA        -1.5730    6.1830   91.2880 C.3    76  LEU76       0.1561
     21  C         -1.9580    7.1880   90.2080 C.2    76  LEU76       0.2260
     22  O         -1.9440    8.4050   90.4350 O.2    76  LEU76      -0.2867
     23  CB        -0.1000    5.7860   91.1700 C.3    76  LEU76       0.0270
     24  CG         0.9890    6.8510   91.3050 C.3    76  LEU76       0.0019
     25  CD1        0.8610    7.5750   92.6220 C.3    76  LEU76       0.0001
     26  CD2        2.3590    6.2130   91.1940 C.3    76  LEU76       0.0001
     27  N         -4.7270   20.9790   83.8870 N.3   106  GLN106     -0.1231
     28  CA        -3.2740   21.0390   83.9010 C.3   106  GLN106      0.1698
     29  C         -2.8230   22.4760   83.7020 C.2   106  GLN106      0.2592
     30  O         -3.3110   23.1680   82.8030 O.2   106  GLN106     -0.2718
     31  CB        -2.6660   20.1430   82.8200 C.3   106  GLN106      0.0381
     32  CG        -1.1470   20.1310   82.8260 C.3   106  GLN106      0.0905
     33  CD        -0.5930   19.4470   81.6060 C.2   106  GLN106      0.2608
     34  OE1       -1.3510   18.9390   80.7900 O.2   106  GLN106     -0.2717
     35  NE2        0.7280   19.4350   81.4650 N.am  106  GLN106     -0.0878
     36  N         -1.8890   22.9120   84.5390 N.am  107  VAL107     -0.1966
     37  CA        -1.2950   24.2390   84.4630 C.3   107  VAL107      0.1727
     38  C          0.2100   24.0730   84.3170 C.2   107  VAL107      0.2616
     39  O          0.8060   23.2090   84.9670 O.2   107  VAL107     -0.2715
     40  CB        -1.6390   25.0770   85.7100 C.3   107  VAL107      0.0290
     41  CG1       -0.9720   26.4350   85.6340 C.3   107  VAL107      0.0023
     42  CG2       -3.1400   25.2300   85.8280 C.3   107  VAL107      0.0023
     43  N          0.8220   24.8840   83.4650 N.am  108  VAL108     -0.1963
     44  CA         2.2540   24.7640   83.2170 C.3   108  VAL108      0.1727
     45  C          2.9940   25.8840   83.9350 C.2   108  VAL108      0.2616
     46  O          2.4500   26.9650   84.1900 O.2   108  VAL108     -0.2715
     47  CB         2.5670   24.7570   81.7040 C.3   108  VAL108      0.0290
     48  CG1        1.6510   23.7890   80.9890 C.3   108  VAL108      0.0023
     49  CG2        2.4500   26.1450   81.1100 C.3   108  VAL108      0.0023
     50  N          4.2540   25.6100   84.2810 N.am  109  TRP109     -0.1974
     51  CA         5.1160   26.5830   84.9300 C.3   109  TRP109      0.1640
     52  C          5.6350   27.6000   83.9170 C.2   109  TRP109      0.2290
     53  O          5.8290   27.2760   82.7420 O.2   109  TRP109     -0.2864
     54  CB         6.2970   25.8890   85.6030 C.3   109  TRP109      0.0576
     55  CG         5.9450   25.1510   86.8620 C.ar  109  TRP109      0.0006
     56  CD1        5.0080   25.5080   87.7910 C.ar  109  TRP109      0.0946
     57  CD2        6.5250   23.9230   87.3280 C.ar  109  TRP109      0.0152
     58  NE1        4.9720   24.5790   88.8050 N.ar  109  TRP109     -0.2442
     59  CE2        5.8920   23.5970   88.5440 C.ar  109  TRP109      0.0810
     60  CE3        7.5170   23.0700   86.8330 C.ar  109  TRP109      0.0012
     61  CZ2        6.2180   22.4550   89.2710 C.ar  109  TRP109      0.0191
     62  CZ3        7.8400   21.9370   87.5570 C.ar  109  TRP109      0.0001
     63  CH2        7.1930   21.6410   88.7640 C.ar  109  TRP109      0.0015
     64  N          8.5450   28.9630   82.5900 N.3   111  ILE111     -0.1231
     65  CA        10.0000   28.8680   82.5530 C.3   111  ILE111      0.1692
     66  C         10.5500   29.4620   81.2630 C.2   111  ILE111      0.2591
     67  O         11.2600   30.4750   81.2840 O.2   111  ILE111     -0.2718
     68  CB        10.4790   27.4120   82.7310 C.3   111  ILE111      0.0266
     69  CG1       11.9440   27.2680   82.2950 C.3   111  ILE111      0.0019
     70  CG2        9.5590   26.4310   82.0160 C.3   111  ILE111      0.0020
     71  CD1       12.9160   28.1450   83.0790 C.3   111  ILE111      0.0001
     72  N         10.2290   28.8420   80.1330 N.am  112  VAL112     -0.1980
     73  CA        10.9890   29.0420   78.9120 C.3   112  VAL112      0.1595
     74  C         10.1510   29.7000   77.8200 C.2   112  VAL112      0.2287
     75  O         10.5820   29.7850   76.6670 O.2   112  VAL112     -0.2864
     76  CB        11.6000   27.7020   78.4460 C.3   112  VAL112      0.0276
     77  CG1       10.6100   26.8850   77.6090 C.3   112  VAL112      0.0022
     78  CG2       12.9320   27.9130   77.7580 C.3   112  VAL112      0.0022
     79  N          6.7530   28.7230   77.7810 N.3   114  GLN114     -0.1245
     80  CA         5.6720   27.7610   77.6320 C.3   114  GLN114      0.1566
     81  C          4.3800   28.1960   78.3040 C.2   114  GLN114      0.2260
     82  O          3.3530   27.5360   78.1030 O.2   114  GLN114     -0.2867
     83  CB         6.1030   26.4210   78.2090 C.3   114  GLN114      0.0367
     84  CG         6.0540   26.3960   79.7180 C.3   114  GLN114      0.0905
     85  CD         6.7580   25.1930   80.2940 C.2   114  GLN114      0.2608
     86  OE1        7.8450   24.8340   79.8510 O.2   114  GLN114     -0.2717
     87  NE2        6.1430   24.5610   81.2860 N.am  114  GLN114     -0.0878
     88  N          0.8360   28.1810   76.7910 N.3   117  LEU117     -0.1245
     89  CA        -0.0620   27.0340   76.7700 C.3   117  LEU117      0.1561
     90  C         -1.1290   27.1170   77.8520 C.2   117  LEU117      0.2260
     91  O         -2.1190   26.3830   77.7860 O.2   117  LEU117     -0.2867
     92  CB         0.7380   25.7430   76.9090 C.3   117  LEU117      0.0270
     93  CG         1.7980   25.5540   75.8240 C.3   117  LEU117      0.0019
     94  CD1        2.5240   24.2250   76.0110 C.3   117  LEU117      0.0001
     95  CD2        1.1740   25.6600   74.4360 C.3   117  LEU117      0.0001
     96  N         -4.4660   24.3180   80.3210 N.3   128  ILE128     -0.1245
     97  CA        -4.6250   23.4200   79.1830 C.3   128  ILE128      0.1561
     98  C         -6.0010   22.7740   79.2530 C.2   128  ILE128      0.2260
     99  O         -6.3630   22.1770   80.2750 O.2   128  ILE128     -0.2867
    100  CB        -3.5230   22.3470   79.1710 C.3   128  ILE128      0.0252
    101  CG1       -2.1820   22.9570   78.7570 C.3   128  ILE128      0.0019
    102  CG2       -3.9130   21.1750   78.2660 C.3   128  ILE128      0.0019
    103  CD1       -1.0380   21.9850   78.8220 C.3   128  ILE128      0.0001
    104  N          0.1510   -2.5000   95.5000 N.3   164  LEU164     -0.1245
    105  CA         1.5870   -2.7650   95.4670 C.3   164  LEU164      0.1561
    106  C          1.9880   -3.7210   96.5850 C.2   164  LEU164      0.2260
    107  O          2.7090   -4.7100   96.3600 O.2   164  LEU164     -0.2867
    108  CB         2.3530   -1.4460   95.5760 C.3   164  LEU164      0.0270
    109  CG         3.8520   -1.4840   95.2940 C.3   164  LEU164      0.0019
    110  CD1        4.1060   -1.9580   93.8740 C.3   164  LEU164      0.0001
    111  CD2        4.4560   -0.1180   95.5150 C.3   164  LEU164      0.0001
    112  N          1.0740   23.9030   71.0550 N.3   659  ALA659     -0.1245
    113  CA         1.6420   22.5990   71.3740 C.3   659  ALA659      0.1562
    114  C          1.1350   21.5380   70.4060 C.2   659  ALA659      0.2260
    115  O          1.8820   20.6360   70.0170 O.2   659  ALA659     -0.2867
    116  CB         1.3190   22.2220   72.8190 C.3   659  ALA659      0.0290
    117  N          3.2020   21.8850   67.2680 N.3   662  LEU662     -0.1231
    118  CA         4.5020   21.2540   67.4720 C.3   662  LEU662      0.1693
    119  C          4.4020   19.7310   67.4270 C.2   662  LEU662      0.2592
    120  O          5.2570   19.0640   66.8340 O.2   662  LEU662     -0.2718
    121  CB         5.1010   21.7170   68.7990 C.3   662  LEU662      0.0284
    122  CG         5.4420   23.2030   68.9480 C.3   662  LEU662      0.0019
    123  CD1        5.9130   23.5050   70.3640 C.3   662  LEU662      0.0001
    124  CD2        6.4900   23.6380   67.9410 C.3   662  LEU662      0.0001
    125  N          3.3600   19.1600   68.0400 N.am  663  PHE663     -0.1976
    126  CA         3.2160   17.7070   68.0300 C.3   663  PHE663      0.1639
    127  C          2.8060   17.1940   66.6590 C.2   663  PHE663      0.2290
    128  O          3.1690   16.0760   66.2850 O.2   663  PHE663     -0.2864
    129  CB         2.2100   17.2590   69.0910 C.3   663  PHE663      0.0560
    130  CG         2.8360   16.9310   70.4180 C.ar  663  PHE663     -0.0200
    131  CD1        4.2070   16.9200   70.5690 C.ar  663  PHE663     -0.0042
    132  CD2        2.0520   16.6230   71.5070 C.ar  663  PHE663     -0.0042
    133  CE1        4.7790   16.6110   71.7880 C.ar  663  PHE663     -0.0003
    134  CE2        2.6150   16.3120   72.7250 C.ar  663  PHE663     -0.0003
    135  CZ         3.9800   16.3060   72.8660 C.ar  663  PHE663     -0.0000
@<TRIPOS>BOND
     1   128   127    2
     2   127   126    1
     3   120   119    2
     4   117   118    1
     5   119   118    1
     6   119   125   am
     7   118   121    1
     8   124   122    1
     9   126   125    1
    10   126   129    1
    11   121   122    1
    12   122   123    1
    13   129   130    1
    14   115   114    2
    15   114   113    1
    16   130   131   ar
    17   130   132   ar
    18   131   133   ar
    19   112   113    1
    20   113   116    1
    21   132   134   ar
    22   133   135   ar
    23   134   135   ar
    24    95    93    1
    25    93    94    1
    26    93    92    1
    27    75    74    2
    28    89    88    1
    29    89    92    1
    30    89    90    1
    31    77    76    1
    32    80    79    1
    33    80    83    1
    34    80    81    1
    35    78    76    1
    36    91    90    2
    37    74    73    1
    38    82    81    2
    39    83    84    1
    40   102   100    1
    41    76    73    1
    42   101   103    1
    43   101   100    1
    44    73    72    1
    45   100    97    1
    46    97    98    1
    47    97    96    1
    48    98    99    2
    49    84    85    1
    50    86    85    2
    51    72    66   am
    52    85    87   am
    53    34    33    2
    54    48    47    1
    55    49    47    1
    56    66    67    2
    57    66    65    1
    58    35    33   am
    59    33    32    1
    60    47    44    1
    61    70    68    1
    62    69    68    1
    63    69    71    1
    64    65    64    1
    65    65    68    1
    66    53    52    2
    67    30    29    2
    68    31    32    1
    69    31    28    1
    70    44    43    1
    71    44    45    1
    72    43    38   am
    73    29    28    1
    74    29    36   am
    75    27    28    1
    76    52    51    1
    77    45    46    2
    78    45    50   am
    79    50    51    1
    80    38    37    1
    81    38    39    2
    82    37    36    1
    83    37    40    1
    84    51    54    1
    85    54    55    1
    86    41    40    1
    87    40    42    1
    88    17    15    1
    89    60    57   ar
    90    60    62   ar
    91    55    57   ar
    92    55    56   ar
    93    18    16    1
    94    57    59   ar
    95    15    16    1
    96    15    12    1
    97    62    63   ar
    98    56    58   ar
    99    14    13    2
   100    13    12    1
   101    59    58   ar
   102    59    61   ar
   103    12    11    1
   104    63    61   ar
   105     3     4    2
   106     3     2    1
   107    11     7   am
   108     2     1    1
   109    21    22    2
   110    21    20    1
   111     7     8    2
   112     7     6    1
   113     5     6    1
   114    23    20    1
   115    23    24    1
   116    26    24    1
   117    19    20    1
   118    24    25    1
   119     6     9    1
   120     9    10    1
   121   110   109    1
   122   109   111    1
   123   109   108    1
   124   105   104    1
   125   105   108    1
   126   105   106    1
   127   107   106    2
