@<TRIPOS>MOLECULE
tmp/5l8rO06.pdb
 75 71 0 0 0
SMALL
GASTEIGER

@<TRIPOS>ATOM
      1  N        -42.9220  -24.6240   96.5800 N.3    15  LEU15      -0.1231
      2  CA       -42.9360  -25.6070   95.5000 C.3    15  LEU15       0.1693
      3  C        -41.5200  -25.9880   95.0850 C.2    15  LEU15       0.2591
      4  O        -41.2380  -27.1650   94.8250 O.2    15  LEU15      -0.2718
      5  CB       -43.7230  -25.0690   94.3030 C.3    15  LEU15       0.0284
      6  CG       -45.1310  -25.6270   94.0760 C.3    15  LEU15       0.0019
      7  CD1      -46.0550  -25.3170   95.2460 C.3    15  LEU15       0.0001
      8  CD2      -45.7160  -25.0980   92.7740 C.3    15  LEU15       0.0001
      9  N        -40.6140  -25.0080   95.0200 N.am   16  MET16      -0.1979
     10  CA       -39.2240  -25.3260   94.7070 C.3    16  MET16       0.1605
     11  C        -38.5330  -26.0070   95.8860 C.2    16  MET16       0.2287
     12  O        -37.7230  -26.9220   95.6960 O.2    16  MET16      -0.2864
     13  CB       -38.4800  -24.0580   94.2900 C.3    16  MET16       0.0413
     14  CG       -37.0440  -24.2940   93.8780 C.3    16  MET16       0.0598
     15  SD       -36.8220  -25.8020   92.9230 S.3    16  MET16      -0.1393
     16  CE       -35.0610  -25.7550   92.6130 C.3    16  MET16       0.0692
     17  N        -40.0380  -27.9770   97.9230 N.3    18  PHE18      -0.1227
     18  CA       -40.5190  -29.3510   97.8530 C.3    18  PHE18       0.1736
     19  C        -39.8380  -30.1140   96.7270 C.2    18  PHE18       0.2595
     20  O        -39.5210  -31.3000   96.8760 O.2    18  PHE18      -0.2718
     21  CB       -42.0360  -29.3620   97.6720 C.3    18  PHE18       0.0547
     22  CG       -42.6140  -30.7340   97.4760 C.ar   18  PHE18      -0.0202
     23  CD1      -42.8250  -31.5720   98.5570 C.ar   18  PHE18      -0.0042
     24  CD2      -42.9540  -31.1820   96.2100 C.ar   18  PHE18      -0.0042
     25  CE1      -43.3600  -32.8330   98.3780 C.ar   18  PHE18      -0.0003
     26  CE2      -43.4880  -32.4420   96.0260 C.ar   18  PHE18      -0.0003
     27  CZ       -43.6910  -33.2680   97.1110 C.ar   18  PHE18      -0.0000
     28  N        -39.6080  -29.4500   95.5920 N.am   19  ALA19      -0.1980
     29  CA       -38.9100  -30.0870   94.4810 C.3    19  ALA19       0.1597
     30  C        -37.5180  -30.5450   94.9030 C.2    19  ALA19       0.2287
     31  O        -37.2060  -31.7400   94.8770 O.2    19  ALA19      -0.2864
     32  CB       -38.8330  -29.1260   93.2940 C.3    19  ALA19       0.0319
     33  N        -36.9520  -34.9650   92.0920 N.3    24  LEU24      -0.1231
     34  CA       -37.4090  -34.2540   90.8980 C.3    24  LEU24       0.1693
     35  C        -36.9130  -32.8070   90.8880 C.2    24  LEU24       0.2592
     36  O        -37.6360  -31.8880   90.5000 O.2    24  LEU24      -0.2718
     37  CB       -38.9330  -34.3140   90.7580 C.3    24  LEU24       0.0284
     38  CG       -39.5290  -35.6720   90.3890 C.3    24  LEU24       0.0019
     39  CD1      -41.0350  -35.5690   90.4400 C.3    24  LEU24       0.0001
     40  CD2      -39.1100  -36.1190   89.0120 C.3    24  LEU24       0.0001
     41  N        -35.6670  -32.6110   91.3230 N.am   25  ALA25      -0.1966
     42  CA       -34.9450  -31.3460   91.2430 C.3    25  ALA25       0.1713
     43  C        -33.4840  -31.5930   91.5970 C.2    25  ALA25       0.2458
     44  O        -33.1910  -32.3400   92.5390 O.2    25  ALA25      -0.2730
     45  CB       -35.5480  -30.2920   92.1720 C.3    25  ALA25       0.0333
     46  N        -32.5420  -31.0030   90.8590 N.am   26  PRO26      -0.2727
     47  CA       -31.1210  -31.2230   91.1620 C.3    26  PRO26       0.1402
     48  C        -30.7200  -30.7110   92.5370 C.2    26  PRO26       0.2269
     49  O        -30.3190  -29.5520   92.6850 O.2    26  PRO26      -0.2865
     50  CB       -30.4020  -30.4550   90.0450 C.3    26  PRO26       0.0296
     51  CG       -31.3940  -30.3970   88.9300 C.3    26  PRO26       0.0237
     52  CD       -32.7330  -30.2670   89.5980 C.3    26  PRO26       0.0939
     53  N        -31.0590  -36.9050   86.6230 N.3    35  LEU35      -0.1245
     54  CA       -30.7330  -36.7020   88.0300 C.3    35  LEU35       0.1561
     55  C        -29.9240  -37.8650   88.6000 C.2    35  LEU35       0.2260
     56  O        -30.4720  -38.7490   89.2580 O.2    35  LEU35      -0.2867
     57  CB       -32.0080  -36.5060   88.8550 C.3    35  LEU35       0.0270
     58  CG       -32.8340  -35.2540   88.5600 C.3    35  LEU35       0.0019
     59  CD1      -34.0640  -35.2000   89.4520 C.3    35  LEU35       0.0001
     60  CD2      -31.9870  -34.0030   88.7310 C.3    35  LEU35       0.0001
     61  N        -34.5270  -19.8860   94.2000 N.3    61  VAL61      -0.1245
     62  CA       -35.2360  -20.1930   92.9600 C.3    61  VAL61       0.1561
     63  C        -36.7290  -19.9490   93.1270 C.2    61  VAL61       0.2260
     64  O        -37.3880  -19.4020   92.2330 O.2    61  VAL61      -0.2867
     65  CB       -34.9420  -21.6370   92.5160 C.3    61  VAL61       0.0252
     66  CG1      -35.7600  -21.9950   91.2820 C.3    61  VAL61       0.0019
     67  CG2      -33.4660  -21.8030   92.2390 C.3    61  VAL61       0.0019
     68  N        -38.7850  -17.3630   90.6860 N.3    65  ILE65      -0.1245
     69  CA       -40.0900  -17.7030   90.1270 C.3    65  ILE65       0.1561
     70  C        -41.1780  -16.8400   90.7510 C.2    65  ILE65       0.2260
     71  O        -42.0710  -16.3480   90.0550 O.2    65  ILE65      -0.2867
     72  CB       -40.3840  -19.2020   90.3220 C.3    65  ILE65       0.0252
     73  CG1      -39.3200  -20.0610   89.6380 C.3    65  ILE65       0.0019
     74  CG2      -41.7650  -19.5500   89.7880 C.3    65  ILE65       0.0019
     75  CD1      -39.5130  -21.5520   89.8560 C.3    65  ILE65       0.0001
@<TRIPOS>BOND
     1    53    54    1
     2    54    55    1
     3    54    57    1
     4    58    60    1
     5    58    57    1
     6    58    59    1
     7    55    56    2
     8    51    52    1
     9    51    50    1
    10    40    38    1
    11    52    46    1
    12    73    75    1
    13    73    72    1
    14    74    72    1
    15    50    47    1
    16    71    70    2
    17    69    72    1
    18    69    68    1
    19    69    70    1
    20    38    39    1
    21    38    37    1
    22    36    35    2
    23    37    34    1
    24    46    47    1
    25    46    43   am
    26    35    34    1
    27    35    41   am
    28    34    33    1
    29    47    48    1
    30    42    41    1
    31    42    43    1
    32    42    45    1
    33    66    65    1
    34    43    44    2
    35    64    63    2
    36    67    65    1
    37    65    62    1
    38    48    49    2
    39    16    15    1
    40     8     6    1
    41    15    14    1
    42    62    63    1
    43    62    61    1
    44    32    29    1
    45    14    13    1
    46     6     5    1
    47     6     7    1
    48    13    10    1
    49     5     2    1
    50    29    30    1
    51    29    28    1
    52    10     9    1
    53    10    11    1
    54     4     3    2
    55    31    30    2
    56     9     3   am
    57     3     2    1
    58     2     1    1
    59    28    19   am
    60    12    11    2
    61    26    24   ar
    62    26    27   ar
    63    24    22   ar
    64    19    20    2
    65    19    18    1
    66    27    25   ar
    67    22    21    1
    68    22    23   ar
    69    21    18    1
    70    18    17    1
    71    25    23   ar
