@<TRIPOS>MOLECULE
tmp/5l8rE15.pdb
 135 125 0 0 0
SMALL
GASTEIGER

@<TRIPOS>ATOM
      1  N        -12.4620   -5.8800   71.4870 N.3   352  SER352     -0.1217
      2  CA       -13.7810   -5.7790   70.8690 C.3   352  SER352      0.1889
      3  C        -14.7410   -5.0050   71.7630 C.2   352  SER352      0.2288
      4  O        -15.5170   -4.1590   71.2870 O.2   352  SER352     -0.2866
      5  CB       -14.3310   -7.1770   70.5780 C.3   352  SER352      0.2089
      6  OG       -13.5050   -7.8860   69.6690 O.3   352  SER352     -0.2183
      7  N        -14.0630   -1.2430   71.6140 N.3   355  ILE355     -0.1231
      8  CA       -14.6360   -0.6380   70.4120 C.3   355  ILE355      0.1692
      9  C        -16.1440   -0.4410   70.5750 C.2   355  ILE355      0.2591
     10  O        -16.6940    0.6250   70.2430 O.2   355  ILE355     -0.2718
     11  CB       -14.2820   -1.5010   69.1860 C.3   355  ILE355      0.0266
     12  CG1      -12.7660   -1.4440   68.9440 C.3   355  ILE355      0.0019
     13  CG2      -15.0690   -1.0710   67.9570 C.3   355  ILE355      0.0020
     14  CD1      -12.2340   -2.4970   68.0110 C.3   355  ILE355      0.0001
     15  N        -16.8310   -1.4500   71.1170 N.am  356  ILE356     -0.1980
     16  CA       -18.2670   -1.3140   71.3540 C.3   356  ILE356      0.1595
     17  C        -18.5500   -0.1510   72.3010 C.2   356  ILE356      0.2287
     18  O        -19.5160    0.6040   72.1160 O.2   356  ILE356     -0.2864
     19  CB       -18.8370   -2.6420   71.8830 C.3   356  ILE356      0.0276
     20  CG1      -18.7010   -3.7220   70.8110 C.3   356  ILE356      0.0022
     21  CG2      -20.2910   -2.4810   72.3070 C.3   356  ILE356      0.0022
     22  CD1      -19.0260   -5.0960   71.3020 C.3   356  ILE356      0.0001
     23  N        -18.4830    3.1250   70.3880 N.3   359  HIS359     -0.1226
     24  CA       -19.7440    3.4530   69.7160 C.3   359  HIS359      0.1752
     25  C        -20.8150    3.8890   70.7140 C.2   359  HIS359      0.2596
     26  O        -21.4650    4.9320   70.5400 O.2   359  HIS359     -0.2718
     27  CB       -20.2430    2.2610   68.9000 C.3   359  HIS359      0.0759
     28  CG       -19.5890    2.1260   67.5620 C.ar  359  HIS359      0.0818
     29  ND1      -18.3110    1.6320   67.4040 N.ar  359  HIS359     -0.2268
     30  CD2      -20.0380    2.4170   66.3190 C.ar  359  HIS359      0.1154
     31  CE1      -18.0000    1.6270   66.1200 C.ar  359  HIS359      0.1986
     32  NE2      -19.0310    2.0970   65.4400 N.ar  359  HIS359     -0.2212
     33  N        -21.0180    3.0980   71.7680 N.am  360  HIS360     -0.1975
     34  CA       -22.1730    3.3270   72.6270 C.3   360  HIS360      0.1656
     35  C        -22.0670    4.6340   73.4010 C.2   360  HIS360      0.2291
     36  O        -23.0970    5.2300   73.7390 O.2   360  HIS360     -0.2864
     37  CB       -22.3550    2.1480   73.5780 C.3   360  HIS360      0.0771
     38  CG       -22.7980    0.8940   72.8950 C.ar  360  HIS360      0.0820
     39  ND1      -23.1740   -0.2390   73.5850 N.ar  360  HIS360     -0.2267
     40  CD2      -22.9280    0.5960   71.5810 C.ar  360  HIS360      0.1154
     41  CE1      -23.5180   -1.1800   72.7250 C.ar  360  HIS360      0.1986
     42  NE2      -23.3740   -0.7010   71.5030 N.ar  360  HIS360     -0.2212
     43  N        -11.1280    3.4540   70.2640 N.3   385  MET385     -0.1245
     44  CA       -10.8400    2.7160   69.0390 C.3   385  MET385      0.1570
     45  C         -9.3910    2.2400   69.0190 C.2   385  MET385      0.2261
     46  O         -9.1130    1.0660   68.7310 O.2   385  MET385     -0.2867
     47  CB       -11.1420    3.5780   67.8160 C.3   385  MET385      0.0387
     48  CG       -12.6010    3.9570   67.6910 C.3   385  MET385      0.0595
     49  SD       -13.6490    2.4970   67.6400 S.3   385  MET385     -0.1393
     50  CE       -13.3110    1.9270   66.0070 C.3   385  MET385      0.0692
     51  N         -8.1750   -1.7480   68.9240 N.3   389  GLY389     -0.1225
     52  CA        -7.4000   -2.3270   67.8330 C.3   389  GLY389      0.1811
     53  C         -6.0810   -2.9170   68.2980 C.2   389  GLY389      0.2280
     54  O         -5.7250   -4.0530   67.9420 O.2   389  GLY389     -0.2866
     55  N         -6.5980   -6.1990   70.0490 N.3   392  ILE392     -0.1231
     56  CA        -6.9250   -7.3200   69.1700 C.3   392  ILE392      0.1692
     57  C         -5.6730   -7.8580   68.4820 C.2   392  ILE392      0.2591
     58  O         -5.4600   -9.0820   68.4100 O.2   392  ILE392     -0.2718
     59  CB        -8.0040   -6.9070   68.1580 C.3   392  ILE392      0.0266
     60  CG1       -9.2700   -6.4840   68.9040 C.3   392  ILE392      0.0019
     61  CG2       -8.2980   -8.0550   67.2110 C.3   392  ILE392      0.0020
     62  CD1      -10.4230   -6.0660   68.0050 C.3   392  ILE392      0.0001
     63  N         -4.8180   -6.9660   67.9700 N.am  393  VAL393     -0.1980
     64  CA        -3.5590   -7.4450   67.4000 C.3   393  VAL393      0.1595
     65  C         -2.7760   -8.2400   68.4420 C.2   393  VAL393      0.2287
     66  O         -2.1350   -9.2540   68.1250 O.2   393  VAL393     -0.2864
     67  CB        -2.7350   -6.2710   66.8370 C.3   393  VAL393      0.0276
     68  CG1       -1.4180   -6.7810   66.2810 C.3   393  VAL393      0.0022
     69  CG2       -3.5070   -5.5580   65.7590 C.3   393  VAL393      0.0022
     70  N        -10.8120   -4.4210   57.9360 N.3   534  ILE534     -0.1245
     71  CA       -10.8820   -5.4270   58.9930 C.3   534  ILE534      0.1561
     72  C        -10.5550   -6.8070   58.4370 C.2   534  ILE534      0.2260
     73  O         -9.7830   -7.5660   59.0340 O.2   534  ILE534     -0.2867
     74  CB       -12.2620   -5.4050   59.6730 C.3   534  ILE534      0.0252
     75  CG1      -12.4960   -4.0570   60.3580 C.3   534  ILE534      0.0019
     76  CG2      -12.3700   -6.5430   60.6800 C.3   534  ILE534      0.0019
     77  CD1      -13.8620   -3.9200   60.9820 C.3   534  ILE534      0.0001
     78  N         -6.7950   -7.1830   57.9480 N.3   537  THR537     -0.1203
     79  CA        -6.1280   -7.3730   59.2360 C.3   537  THR537      0.1994
     80  C         -6.3060   -8.8050   59.7330 C.2   537  THR537      0.2617
     81  O         -5.3350   -9.4790   60.1160 O.2   537  THR537     -0.2717
     82  CB        -6.6700   -6.3730   60.2630 C.3   537  THR537      0.1784
     83  OG1       -6.7690   -5.0740   59.6620 O.3   537  THR537     -0.2211
     84  CG2       -5.7470   -6.2860   61.4680 C.3   537  THR537      0.0376
     85  N         -7.5510   -9.2920   59.7100 N.am  538  VAL538     -0.1979
     86  CA        -7.8370  -10.6640   60.1160 C.3   538  VAL538      0.1595
     87  C         -7.0470  -11.6470   59.2650 C.2   538  VAL538      0.2287
     88  O         -6.5330  -12.6500   59.7700 O.2   538  VAL538     -0.2864
     89  CB        -9.3500  -10.9450   60.0410 C.3   538  VAL538      0.0276
     90  CG1       -9.6350  -12.3950   60.4040 C.3   538  VAL538      0.0022
     91  CG2      -10.1100  -10.0090   60.9590 C.3   538  VAL538      0.0022
     92  N         -3.3180  -11.6960   60.4630 N.3   541  LEU541     -0.1231
     93  CA        -3.1140  -12.2480   61.7990 C.3   541  LEU541      0.1693
     94  C         -3.4680  -13.7360   61.8510 C.2   541  LEU541      0.2591
     95  O         -2.6890  -14.5580   62.3570 O.2   541  LEU541     -0.2718
     96  CB        -3.9300  -11.4370   62.8070 C.3   541  LEU541      0.0284
     97  CG        -3.5940   -9.9410   62.7950 C.3   541  LEU541      0.0019
     98  CD1       -4.4390   -9.1720   63.8020 C.3   541  LEU541      0.0001
     99  CD2       -2.1010   -9.7030   63.0400 C.3   541  LEU541      0.0001
    100  N         -4.6360  -14.0990   61.3160 N.am  542  LEU542     -0.1980
    101  CA        -5.0530  -15.4970   61.2980 C.3   542  LEU542      0.1596
    102  C         -4.0790  -16.3510   60.4980 C.2   542  LEU542      0.2287
    103  O         -3.7370  -17.4690   60.9080 O.2   542  LEU542     -0.2864
    104  CB        -6.4660  -15.6130   60.7250 C.3   542  LEU542      0.0297
    105  CG        -7.1000  -17.0050   60.6720 C.3   542  LEU542      0.0022
    106  CD1       -7.3220  -17.5560   62.0720 C.3   542  LEU542      0.0001
    107  CD2       -8.4040  -16.9570   59.9000 C.3   542  LEU542      0.0001
    108  N         -4.0470   -2.6380   61.2440 N.3   590  MET590     -0.1245
    109  CA        -4.8910   -2.0950   62.3010 C.3   590  MET590      0.1570
    110  C         -4.8100   -0.5740   62.3130 C.2   590  MET590      0.2261
    111  O         -5.8300    0.1080   62.4830 O.2   590  MET590     -0.2867
    112  CB        -4.4950   -2.6820   63.6560 C.3   590  MET590      0.0387
    113  CG        -5.3090   -2.1510   64.8350 C.3   590  MET590      0.0595
    114  SD        -4.5080   -0.8140   65.7470 S.3   590  MET590     -0.1393
    115  CE        -2.7850   -1.0730   65.3120 C.3   590  MET590      0.0692
    116  N         -6.9610    0.6110   59.2530 N.3   593  ALA593     -0.1231
    117  CA        -8.3880    0.4560   59.5150 C.3   593  ALA593      0.1694
    118  C         -8.8850    1.4880   60.5180 C.2   593  ALA593      0.2591
    119  O         -9.8480    2.2190   60.2500 O.2   593  ALA593     -0.2718
    120  CB        -8.6730   -0.9570   60.0190 C.3   593  ALA593      0.0304
    121  N         -8.2300    1.5690   61.6790 N.am  594  ILE594     -0.1980
    122  CA        -8.6810    2.4810   62.7250 C.3   594  ILE594      0.1595
    123  C         -8.5520    3.9360   62.2790 C.2   594  ILE594      0.2287
    124  O         -9.3940    4.7770   62.6210 O.2   594  ILE594     -0.2864
    125  CB        -7.9090    2.1950   64.0240 C.3   594  ILE594      0.0276
    126  CG1       -8.1640    0.7520   64.4700 C.3   594  ILE594      0.0022
    127  CG2       -8.2930    3.1730   65.1290 C.3   594  ILE594      0.0022
    128  CD1       -9.6340    0.3690   64.5000 C.3   594  ILE594      0.0001
    129  N        -11.4420    4.6920   60.2520 N.3   597  VAL597     -0.1245
    130  CA       -12.6380    4.7230   61.0890 C.3   597  VAL597      0.1561
    131  C        -12.7720    6.0780   61.7710 C.2   597  VAL597      0.2260
    132  O        -13.8360    6.7070   61.7230 O.2   597  VAL597     -0.2867
    133  CB       -12.6300    3.5770   62.1190 C.3   597  VAL597      0.0252
    134  CG1      -13.8000    3.7330   63.0670 C.3   597  VAL597      0.0019
    135  CG2      -12.7150    2.2300   61.4300 C.3   597  VAL597      0.0019
@<TRIPOS>BOND
     1    70    71    1
     2    78    79    1
     3    72    71    1
     4    72    73    2
     5    71    74    1
     6    79    80    1
     7    79    82    1
     8   116   117    1
     9    87    88    2
    10    87    86    1
    11   117   120    1
    12   117   118    1
    13    83    82    1
    14    74    75    1
    15    74    76    1
    16    85    80   am
    17    85    86    1
    18    80    81    2
    19   107   105    1
    20    89    86    1
    21    89    90    1
    22    89    91    1
    23   119   118    2
    24   129   130    1
    25    82    84    1
    26    75    77    1
    27    92    93    1
    28   102   103    2
    29   102   101    1
    30   118   121   am
    31   105   104    1
    32   105   106    1
    33   104   101    1
    34   130   131    1
    35   130   133    1
    36   108   109    1
    37   101   100    1
    38   100    94   am
    39   135   133    1
    40   121   122    1
    41   132   131    2
    42    93    94    1
    43    93    96    1
    44    94    95    2
    45   133   134    1
    46   123   124    2
    47   123   122    1
    48   109   110    1
    49   109   112    1
    50   110   111    2
    51   122   125    1
    52    97    96    1
    53    97    99    1
    54    97    98    1
    55   112   113    1
    56   125   126    1
    57   125   127    1
    58   126   128    1
    59   113   114    1
    60   115   114    1
    61    32    31   ar
    62    32    30   ar
    63    69    67    1
    64    50    49    1
    65    31    29   ar
    66    68    67    1
    67    30    28   ar
    68    67    64    1
    69    61    59    1
    70    64    63    1
    71    64    65    1
    72    29    28   ar
    73    28    27    1
    74    49    48    1
    75    48    47    1
    76    47    44    1
    77    52    53    1
    78    52    51    1
    79    54    53    2
    80    13    11    1
    81    63    57   am
    82    62    60    1
    83    14    12    1
    84    66    65    2
    85    59    60    1
    86    59    56    1
    87    58    57    2
    88    57    56    1
    89    46    45    2
    90    27    24    1
    91    12    11    1
    92    45    44    1
    93    44    43    1
    94    56    55    1
    95    11     8    1
    96     6     5    1
    97    24    23    1
    98    24    25    1
    99    10     9    2
   100     8     9    1
   101     8     7    1
   102    26    25    2
   103     9    15   am
   104     5     2    1
   105    25    33   am
   106    20    22    1
   107    20    19    1
   108     2     1    1
   109     2     3    1
   110    15    16    1
   111     4     3    2
   112    16    19    1
   113    16    17    1
   114    42    40   ar
   115    42    41   ar
   116    40    38   ar
   117    33    34    1
   118    19    21    1
   119    18    17    2
   120    34    35    1
   121    34    37    1
   122    41    39   ar
   123    38    37    1
   124    38    39   ar
   125    35    36    2
