@<TRIPOS>MOLECULE
tmp/5l8rE55.pdb
 92 88 0 0 0
SMALL
GASTEIGER

@<TRIPOS>ATOM
      1  N          9.4690   -9.4810   80.5310 N.3    47  HIS47      -0.1241
      2  CA         8.1510   -9.9560   80.9250 C.3    47  HIS47       0.1621
      3  C          7.7960  -11.2940   80.3060 C.2    47  HIS47       0.2264
      4  O          6.6790  -11.7760   80.5120 O.2    47  HIS47      -0.2867
      5  CB         7.0790   -8.9360   80.5500 C.3    47  HIS47       0.0745
      6  CG         7.1560   -7.6650   81.3280 C.ar   47  HIS47       0.0817
      7  ND1        6.3680   -6.5700   81.0400 N.ar   47  HIS47      -0.2268
      8  CD2        7.9170   -7.3150   82.3900 C.ar   47  HIS47       0.1154
      9  CE1        6.6450   -5.5990   81.8910 C.ar   47  HIS47       0.1986
     10  NE2        7.5810   -6.0260   82.7190 N.ar   47  HIS47      -0.2212
     11  N          0.4150   -3.5180   88.0500 N.3    70  GLN70      -0.1245
     12  CA        -0.4000   -2.7370   87.1270 C.3    70  GLN70       0.1566
     13  C         -1.4840   -1.9640   87.8660 C.2    70  GLN70       0.2260
     14  O         -1.6540   -0.7580   87.6500 O.2    70  GLN70      -0.2867
     15  CB        -1.0280   -3.6440   86.0740 C.3    70  GLN70       0.0367
     16  CG        -2.0780   -2.9280   85.2570 C.3    70  GLN70       0.0905
     17  CD        -1.4770   -1.9770   84.2450 C.2    70  GLN70       0.2608
     18  OE1       -0.9960   -2.3980   83.1980 O.2    70  GLN70      -0.2717
     19  NE2       -1.4950   -0.6900   84.5570 N.am   70  GLN70      -0.0878
     20  N         -0.1970    1.0230   89.6540 N.3    73  ILE73      -0.1231
     21  CA         0.0500    2.1440   88.7510 C.3    73  ILE73       0.1692
     22  C         -1.2560    2.8260   88.3600 C.2    73  ILE73       0.2591
     23  O         -1.3300    4.0610   88.2880 O.2    73  ILE73      -0.2718
     24  CB         0.8370    1.6670   87.5190 C.3    73  ILE73       0.0266
     25  CG1        2.2970    1.4310   87.9050 C.3    73  ILE73       0.0019
     26  CG2        0.7020    2.6650   86.3670 C.3    73  ILE73       0.0020
     27  CD1        2.9950    0.4430   87.0260 C.3    73  ILE73       0.0001
     28  N         -2.3110    2.0430   88.1200 N.am   74  ILE74      -0.1980
     29  CA        -3.5880    2.6370   87.7270 C.3    74  ILE74       0.1595
     30  C         -4.1520    3.4950   88.8550 C.2    74  ILE74       0.2287
     31  O         -4.6750    4.5900   88.6170 O.2    74  ILE74      -0.2864
     32  CB        -4.5830    1.5460   87.2920 C.3    74  ILE74       0.0276
     33  CG1       -4.0050    0.7280   86.1400 C.3    74  ILE74       0.0022
     34  CG2       -5.8970    2.1740   86.8560 C.3    74  ILE74       0.0022
     35  CD1       -4.9620   -0.3030   85.5880 C.3    74  ILE74       0.0001
     36  N         -2.3290    6.6860   89.0320 N.3    77  TRP77      -0.1241
     37  CA        -2.7360    7.5370   87.9200 C.3    77  TRP77       0.1605
     38  C         -4.0810    8.2090   88.1970 C.2    77  TRP77       0.2264
     39  O         -4.2490    9.4120   87.9450 O.2    77  TRP77      -0.2867
     40  CB        -2.7640    6.6720   86.6560 C.3    77  TRP77       0.0550
     41  CG        -3.2710    7.2920   85.4100 C.ar   77  TRP77       0.0003
     42  CD1       -2.6200    8.1840   84.6080 C.ar   77  TRP77       0.0946
     43  CD2       -4.5230    7.0190   84.7770 C.ar   77  TRP77       0.0152
     44  NE1       -3.4070    8.5060   83.5280 N.ar   77  TRP77      -0.2442
     45  CE2       -4.5800    7.8030   83.6120 C.ar   77  TRP77       0.0810
     46  CE3       -5.6110    6.2030   85.0960 C.ar   77  TRP77       0.0012
     47  CZ2       -5.6760    7.7850   82.7610 C.ar   77  TRP77       0.0191
     48  CZ3       -6.7000    6.1910   84.2530 C.ar   77  TRP77       0.0001
     49  CH2       -6.7250    6.9740   83.0990 C.ar   77  TRP77       0.0015
     50  N         -7.7240  -10.7400   75.3350 N.3   347  LEU347     -0.1245
     51  CA        -7.3680   -9.5800   74.5260 C.3   347  LEU347      0.1561
     52  C         -8.3820   -9.3720   73.4100 C.2   347  LEU347      0.2260
     53  O         -8.8330   -8.2440   73.1700 O.2   347  LEU347     -0.2867
     54  CB        -5.9570   -9.7390   73.9530 C.3   347  LEU347      0.0270
     55  CG        -4.8070   -9.4160   74.9080 C.3   347  LEU347      0.0019
     56  CD1       -3.4710   -9.7460   74.2690 C.3   347  LEU347      0.0001
     57  CD2       -4.8560   -7.9640   75.3350 C.3   347  LEU347      0.0001
     58  N        -11.6740   -8.1530   75.1200 N.3   350  LEU350     -0.1245
     59  CA       -11.5420   -6.8600   75.7810 C.3   350  LEU350      0.1561
     60  C        -11.3780   -5.7390   74.7630 C.2   350  LEU350      0.2260
     61  O        -11.9300   -4.6460   74.9430 O.2   350  LEU350     -0.2867
     62  CB       -10.3640   -6.8830   76.7510 C.3   350  LEU350      0.0270
     63  CG       -10.1880   -5.6440   77.6320 C.3   350  LEU350      0.0019
     64  CD1      -11.4150   -5.4390   78.5090 C.3   350  LEU350      0.0001
     65  CD2       -8.9240   -5.7520   78.4750 C.3   350  LEU350      0.0001
     66  N         -7.2670    1.7630   71.5590 N.3   387  ILE387     -0.1245
     67  CA        -7.0670    0.7200   72.5620 C.3   387  ILE387      0.1561
     68  C         -7.5950   -0.6170   72.0480 C.2   387  ILE387      0.2260
     69  O         -6.8880   -1.6340   72.0670 O.2   387  ILE387     -0.2867
     70  CB        -7.7260    1.1230   73.8920 C.3   387  ILE387      0.0252
     71  CG1       -7.2620    2.5210   74.3110 C.3   387  ILE387      0.0019
     72  CG2       -7.3810    0.1290   74.9760 C.3   387  ILE387      0.0019
     73  CD1       -5.7620    2.6390   74.5460 C.3   387  ILE387      0.0001
     74  N         -5.3420   -2.1580   69.1160 N.3   390  PHE390     -0.1227
     75  CA        -4.0990   -2.6840   69.6760 C.3   390  PHE390      0.1736
     76  C         -4.3390   -3.9980   70.4130 C.2   390  PHE390      0.2595
     77  O         -3.6420   -4.9950   70.1750 O.2   390  PHE390     -0.2718
     78  CB        -3.4580   -1.6500   70.6000 C.3   390  PHE390      0.0547
     79  CG        -2.5540   -0.7010   69.8870 C.ar  390  PHE390     -0.0202
     80  CD1       -1.2230   -1.0300   69.6660 C.ar  390  PHE390     -0.0042
     81  CD2       -3.0330    0.5140   69.4170 C.ar  390  PHE390     -0.0042
     82  CE1       -0.3830   -0.1560   68.9980 C.ar  390  PHE390     -0.0003
     83  CE2       -2.2070    1.3850   68.7500 C.ar  390  PHE390     -0.0003
     84  CZ        -0.8770    1.0540   68.5380 C.ar  390  PHE390     -0.0000
     85  N         -5.3430   -4.0230   71.2940 N.am  391  LEU391     -0.1980
     86  CA        -5.6160   -5.2290   72.0700 C.3   391  LEU391      0.1596
     87  C         -5.9000   -6.4230   71.1660 C.2   391  LEU391      0.2287
     88  O         -5.4740   -7.5490   71.4590 O.2   391  LEU391     -0.2864
     89  CB        -6.7810   -4.9820   73.0310 C.3   391  LEU391      0.0297
     90  CG        -6.5290   -3.9360   74.1260 C.3   391  LEU391      0.0022
     91  CD1       -7.7180   -3.8400   75.0770 C.3   391  LEU391      0.0001
     92  CD2       -5.2330   -4.2050   74.8930 C.3   391  LEU391      0.0001
@<TRIPOS>BOND
     1    84    83   ar
     2    84    82   ar
     3    83    81   ar
     4    82    80   ar
     5    74    75    1
     6    81    79   ar
     7    80    79   ar
     8    75    76    1
     9    75    78    1
    10    79    78    1
    11    77    76    2
    12    76    85   am
    13    87    88    2
    14    87    86    1
    15    85    86    1
    16    66    67    1
    17    68    69    2
    18    68    67    1
    19    86    89    1
    20    67    70    1
    21    89    90    1
    22    53    52    2
    23    52    51    1
    24    70    71    1
    25    70    72    1
    26    54    51    1
    27    54    55    1
    28    90    92    1
    29    90    91    1
    30    56    55    1
    31    71    73    1
    32    51    50    1
    33    60    61    2
    34    60    59    1
    35    55    57    1
    36    58    59    1
    37    59    62    1
    38    62    63    1
    39    63    65    1
    40    63    64    1
    41     3     4    2
    42     3     2    1
    43     1     2    1
    44     5     2    1
    45     5     6    1
    46     7     6   ar
    47     7     9   ar
    48     6     8   ar
    49     9    10   ar
    50     8    10   ar
    51    47    49   ar
    52    47    45   ar
    53    49    48   ar
    54    18    17    2
    55    44    45   ar
    56    44    42   ar
    57    45    43   ar
    58    17    19   am
    59    17    16    1
    60    48    46   ar
    61    42    41   ar
    62    43    46   ar
    63    43    41   ar
    64    16    15    1
    65    41    40    1
    66    35    33    1
    67    15    12    1
    68    33    32    1
    69    26    24    1
    70    40    37    1
    71    34    32    1
    72    27    25    1
    73    12    13    1
    74    12    11    1
    75    32    29    1
    76    24    25    1
    77    24    21    1
    78    14    13    2
    79    29    28    1
    80    29    30    1
    81    37    38    1
    82    37    36    1
    83    39    38    2
    84    28    22   am
    85    23    22    2
    86    22    21    1
    87    31    30    2
    88    21    20    1
