@<TRIPOS>MOLECULE
tmp/5l8rC16.pdb
 165 160 0 0 0
SMALL
GASTEIGER

@<TRIPOS>ATOM
      1  N        -13.6420  -12.1480  123.4740 N.3    53  ARG53      -0.1231
      2  CA       -13.4820  -11.4390  124.7400 C.3    53  ARG53       0.1694
      3  C        -13.8200   -9.9550  124.5890 C.2    53  ARG53       0.2592
      4  O        -14.6450   -9.4040  125.3440 O.2    53  ARG53      -0.2718
      5  CB       -12.0530  -11.6340  125.2550 C.3    53  ARG53       0.0321
      6  CG       -11.6580  -13.0900  125.5120 C.3    53  ARG53       0.0489
      7  CD       -10.1630  -13.2350  125.8010 C.3    53  ARG53       0.2205
      8  NE        -9.8030  -14.6070  126.1590 N.pl3  53  ARG53      -0.0865
      9  CZ        -8.5580  -15.0330  126.3640 C.cat  53  ARG53       0.5346
     10  NH1       -7.5360  -14.1970  126.2420 N.pl3  53  ARG53       0.1354
     11  NH2       -8.3360  -16.3000  126.6850 N.pl3  53  ARG53       0.1354
     12  N        -13.1970   -9.2930  123.6040 N.am   54  PHE54      -0.1976
     13  CA       -13.5350   -7.9010  123.3170 C.3    54  PHE54       0.1639
     14  C        -15.0300   -7.7360  123.0770 C.2    54  PHE54       0.2290
     15  O        -15.6290   -6.7370  123.4920 O.2    54  PHE54      -0.2864
     16  CB       -12.7510   -7.4030  122.1010 C.3    54  PHE54       0.0560
     17  CG       -11.3520   -6.9540  122.4140 C.ar   54  PHE54      -0.0200
     18  CD1      -11.1090   -6.0440  123.4310 C.ar   54  PHE54      -0.0042
     19  CD2      -10.2790   -7.4420  121.6870 C.ar   54  PHE54      -0.0042
     20  CE1       -9.8190   -5.6300  123.7150 C.ar   54  PHE54      -0.0003
     21  CE2       -8.9880   -7.0350  121.9680 C.ar   54  PHE54      -0.0003
     22  CZ        -8.7580   -6.1260  122.9810 C.ar   54  PHE54      -0.0000
     23  N        -17.4150   -9.5470  124.3810 N.3    56  MET56      -0.1230
     24  CA       -18.0870   -9.5760  125.6760 C.3    56  MET56       0.1702
     25  C        -18.0890   -8.1890  126.2990 C.2    56  MET56       0.2592
     26  O        -19.1510   -7.6400  126.6430 O.2    56  MET56      -0.2718
     27  CB       -17.4060  -10.5810  126.6040 C.3    56  MET56       0.0401
     28  CG       -17.3660  -12.0030  126.0770 C.3    56  MET56       0.0596
     29  SD       -16.6300  -13.1340  127.2700 S.3    56  MET56      -0.1393
     30  CE       -16.1410  -14.4980  126.2240 C.3    56  MET56       0.0692
     31  N        -16.8970   -7.5920  126.4190 N.am   57  LEU57      -0.1980
     32  CA       -16.7950   -6.2500  126.9870 C.3    57  LEU57       0.1596
     33  C        -17.7030   -5.2640  126.2610 C.2    57  LEU57       0.2287
     34  O        -18.4170   -4.4760  126.8920 O.2    57  LEU57      -0.2864
     35  CB       -15.3470   -5.7730  126.9320 C.3    57  LEU57       0.0297
     36  CG       -14.3420   -6.6450  127.6770 C.3    57  LEU57       0.0022
     37  CD1      -12.9500   -6.0790  127.4970 C.3    57  LEU57       0.0001
     38  CD2      -14.7130   -6.7140  129.1410 C.3    57  LEU57       0.0001
     39  N          1.9560  -18.8770  129.4210 N.3   143  SER143     -0.1217
     40  CA         1.8140  -20.2880  129.7430 C.3   143  SER143      0.1889
     41  C          2.2930  -21.1910  128.6200 C.2   143  SER143      0.2288
     42  O          2.0630  -22.4030  128.6740 O.2   143  SER143     -0.2866
     43  CB         0.3540  -20.6150  130.0590 C.3   143  SER143      0.2089
     44  OG        -0.4440  -20.5050  128.8910 O.3   143  SER143     -0.2183
     45  N         -3.3770  -17.7480  123.5910 N.3   147  ALA147     -0.1231
     46  CA        -4.7400  -17.3900  123.9690 C.3   147  ALA147      0.1694
     47  C         -4.9560  -17.5190  125.4690 C.2   147  ALA147      0.2592
     48  O         -5.8080  -16.8260  126.0380 O.2   147  ALA147     -0.2718
     49  CB        -5.7440  -18.2610  123.2130 C.3   147  ALA147      0.0304
     50  N         -4.1930  -18.3860  126.1260 N.am  148  TYR148     -0.1963
     51  CA        -4.3630  -18.6640  127.5490 C.3   148  TYR148      0.1756
     52  C         -3.0300  -18.5400  128.2760 C.2   148  TYR148      0.2461
     53  O         -2.4860  -19.5300  128.7790 O.2   148  TYR148     -0.2730
     54  CB        -4.9830  -20.0470  127.7560 C.3   148  TYR148      0.0574
     55  CG        -6.3120  -20.2190  127.0510 C.ar  148  TYR148     -0.0198
     56  CD1       -7.5020  -19.8310  127.6560 C.ar  148  TYR148     -0.0009
     57  CD2       -6.3740  -20.7650  125.7750 C.ar  148  TYR148     -0.0009
     58  CE1       -8.7180  -19.9860  127.0080 C.ar  148  TYR148      0.0417
     59  CE2       -7.5810  -20.9240  125.1220 C.ar  148  TYR148      0.0417
     60  CZ        -8.7490  -20.5350  125.7420 C.ar  148  TYR148      0.1957
     61  OH        -9.9510  -20.6960  125.0890 O.3   148  TYR148     -0.2866
     62  N         -2.4840  -17.3220  128.3740 N.am  149  PRO149     -0.2716
     63  CA        -1.1870  -17.1660  129.0480 C.3   149  PRO149      0.1536
     64  C         -1.2770  -17.3160  130.5560 C.2   149  PRO149      0.2599
     65  O         -0.3010  -17.7440  131.1850 O.2   149  PRO149     -0.2715
     66  CB        -0.7550  -15.7520  128.6440 C.3   149  PRO149      0.0310
     67  CG        -2.0430  -15.0210  128.4940 C.3   149  PRO149      0.0237
     68  CD        -3.0500  -16.0220  127.9670 C.3   149  PRO149      0.0939
     69  N         -2.4160  -16.9790  131.1510 N.am  150  GLY150     -0.1955
     70  CA        -2.5640  -17.1450  132.5850 C.3   150  GLY150      0.1869
     71  C         -1.5460  -16.3240  133.3450 C.2   150  GLY150      0.2309
     72  O         -1.3890  -15.1190  133.1230 O.2   150  GLY150     -0.2863
     73  N         -3.0670  -12.4670  134.4510 N.3   154  PHE154     -0.1227
     74  CA        -4.2110  -12.8130  133.6270 C.3   154  PHE154      0.1736
     75  C         -5.0300  -13.9630  134.1900 C.2   154  PHE154      0.2595
     76  O         -6.2030  -14.1030  133.8290 O.2   154  PHE154     -0.2718
     77  CB        -3.7280  -13.1320  132.2120 C.3   154  PHE154      0.0547
     78  CG        -2.8720  -12.0500  131.6260 C.ar  154  PHE154     -0.0202
     79  CD1       -3.4330  -10.8430  131.2460 C.ar  154  PHE154     -0.0042
     80  CD2       -1.5060  -12.2250  131.4820 C.ar  154  PHE154     -0.0042
     81  CE1       -2.6520   -9.8360  130.7210 C.ar  154  PHE154     -0.0003
     82  CE2       -0.7180  -11.2210  130.9540 C.ar  154  PHE154     -0.0003
     83  CZ        -1.2920  -10.0240  130.5740 C.ar  154  PHE154     -0.0000
     84  N         -4.4520  -14.7730  135.0740 N.am  155  ASN155     -0.1974
     85  CA        -5.1880  -15.8200  135.7850 C.3   155  ASN155      0.1688
     86  C         -4.7320  -15.8400  137.2390 C.2   155  ASN155      0.2292
     87  O         -4.1050  -16.8020  137.6990 O.2   155  ASN155     -0.2864
     88  CB        -4.9820  -17.1800  135.1150 C.3   155  ASN155      0.1181
     89  CG        -5.9740  -18.2210  135.5870 C.2   155  ASN155      0.2629
     90  OD1       -7.1000  -17.8980  135.9600 O.2   155  ASN155     -0.2716
     91  ND2       -5.5590  -19.4830  135.5710 N.am  155  ASN155     -0.0877
     92  N         -6.6200  -15.9490  140.0720 N.3   157  LEU157     -0.1231
     93  CA        -7.3860  -16.8930  140.8740 C.3   157  LEU157      0.1693
     94  C         -7.2160  -18.3350  140.4140 C.2   157  LEU157      0.2593
     95  O         -7.6580  -19.2470  141.1210 O.2   157  LEU157     -0.2718
     96  CB        -8.8650  -16.5080  140.8530 C.3   157  LEU157      0.0284
     97  CG        -9.1700  -15.0810  141.3140 C.3   157  LEU157      0.0019
     98  CD1      -10.6680  -14.8300  141.3390 C.3   157  LEU157      0.0001
     99  CD2       -8.5530  -14.8140  142.6790 C.3   157  LEU157      0.0001
    100  N         -6.5920  -18.5570  139.2590 N.am  158  GLY158     -0.1942
    101  CA        -6.2910  -19.8910  138.7800 C.3   158  GLY158      0.2014
    102  C         -7.4770  -20.8280  138.7080 C.2   158  GLY158      0.2638
    103  O         -7.4120  -21.9450  139.2300 O.2   158  GLY158     -0.2714
    104  N         -8.5680  -20.3950  138.0800 N.am  159  PHE159     -0.1973
    105  CA        -9.6890  -21.2990  137.8730 C.3   159  PHE159      0.1639
    106  C         -9.2980  -22.3880  136.8830 C.2   159  PHE159      0.2290
    107  O         -8.4320  -22.1970  136.0250 O.2   159  PHE159     -0.2864
    108  CB       -10.9220  -20.5620  137.3490 C.3   159  PHE159      0.0560
    109  CG       -11.4840  -19.5360  138.2900 C.ar  159  PHE159     -0.0200
    110  CD1      -11.0940  -19.4860  139.6160 C.ar  159  PHE159     -0.0042
    111  CD2      -12.4250  -18.6250  137.8390 C.ar  159  PHE159     -0.0042
    112  CE1      -11.6260  -18.5390  140.4710 C.ar  159  PHE159     -0.0003
    113  CE2      -12.9570  -17.6780  138.6860 C.ar  159  PHE159     -0.0003
    114  CZ       -12.5590  -17.6350  140.0040 C.ar  159  PHE159     -0.0000
    115  N        -10.6850  -26.4420  133.5030 N.3   166  LEU166     -0.1245
    116  CA       -10.1430  -25.4370  132.5940 C.3   166  LEU166      0.1561
    117  C        -10.6810  -25.6270  131.1820 C.2   166  LEU166      0.2260
    118  O        -10.9370  -24.6490  130.4710 O.2   166  LEU166     -0.2867
    119  CB        -8.6160  -25.4860  132.5930 C.3   166  LEU166      0.0270
    120  CG        -7.9320  -24.5090  131.6330 C.3   166  LEU166      0.0019
    121  CD1       -8.2580  -23.0800  132.0130 C.3   166  LEU166      0.0001
    122  CD2       -6.4290  -24.7240  131.6050 C.3   166  LEU166      0.0001
    123  N        -14.3440  -24.4730  131.2540 N.3   169  LEU169     -0.1231
    124  CA       -14.3340  -23.0180  131.2660 C.3   169  LEU169      0.1693
    125  C        -13.8480  -22.4360  129.9430 C.2   169  LEU169      0.2591
    126  O        -14.1630  -21.2820  129.6390 O.2   169  LEU169     -0.2718
    127  CB       -13.4530  -22.5050  132.4080 C.3   169  LEU169      0.0284
    128  CG       -13.7640  -22.7940  133.8730 C.3   169  LEU169      0.0019
    129  CD1      -12.6150  -22.3430  134.7510 C.3   169  LEU169      0.0001
    130  CD2      -15.0100  -22.0920  134.2730 C.3   169  LEU169      0.0001
    131  N        -13.0600  -23.1910  129.1710 N.am  170  LYS170     -0.1980
    132  CA       -12.6460  -22.7360  127.8470 C.3   170  LYS170      0.1596
    133  C        -13.7830  -22.8840  126.8470 C.2   170  LYS170      0.2287
    134  O        -14.0290  -21.9850  126.0390 O.2   170  LYS170     -0.2864
    135  CB       -11.4180  -23.5150  127.3680 C.3   170  LYS170      0.0298
    136  CG       -10.0960  -23.0340  127.9340 C.3   170  LYS170      0.0038
    137  CD        -8.9270  -23.7900  127.3310 C.3   170  LYS170      0.0206
    138  CE        -7.6190  -23.4130  128.0070 C.3   170  LYS170      0.1093
    139  NZ        -6.4480  -24.0570  127.3500 N.3   170  LYS170     -0.1314
    140  N        -16.7470  -22.7150  127.7510 N.3   172  LYS172     -0.1231
    141  CA       -17.6240  -21.6440  128.2040 C.3   172  LYS172      0.1693
    142  C        -17.1750  -20.2960  127.6560 C.2   172  LYS172      0.2591
    143  O        -17.9940  -19.5180  127.1650 O.2   172  LYS172     -0.2718
    144  CB       -17.6650  -21.6260  129.7330 C.3   172  LYS172      0.0285
    145  CG       -18.3530  -22.8390  130.3380 C.3   172  LYS172      0.0035
    146  CD       -18.1180  -22.9600  131.8230 C.3   172  LYS172      0.0206
    147  CE       -18.8290  -24.1750  132.3950 C.3   172  LYS172      0.1093
    148  NZ       -18.6630  -24.2720  133.8740 N.3   172  LYS172     -0.1314
    149  N        -15.8770  -20.0010  127.7300 N.am  173  GLU173     -0.1979
    150  CA       -15.3770  -18.7430  127.1860 C.3   173  GLU173      0.1602
    151  C        -15.6390  -18.6540  125.6910 C.2   173  GLU173      0.2287
    152  O        -15.9620  -17.5800  125.1670 O.2   173  GLU173     -0.2864
    153  CB       -13.8830  -18.6040  127.4730 C.3   173  GLU173      0.0415
    154  CG       -13.3000  -17.2600  127.0940 C.3   173  GLU173      0.1163
    155  CD       -11.8590  -17.1110  127.5310 C.2   173  GLU173      0.3649
    156  OE1      -11.3330  -18.0380  128.1800 O.co2 173  GLU173     -0.2457
    157  OE2      -11.2520  -16.0630  127.2300 O.co2 173  GLU173     -0.2457
    158  N        -19.5180  -18.1950  125.2050 N.3   176  ASN176     -0.1240
    159  CA       -19.7770  -16.8360  125.6720 C.3   176  ASN176      0.1653
    160  C        -19.3410  -15.8090  124.6350 C.2   176  ASN176      0.2266
    161  O        -20.0700  -14.8510  124.3500 O.2   176  ASN176     -0.2867
    162  CB       -19.0480  -16.5850  126.9970 C.3   176  ASN176      0.1155
    163  CG       -19.7670  -17.1830  128.1980 C.2   176  ASN176      0.2627
    164  OD1      -19.2040  -17.9920  128.9380 O.2   176  ASN176     -0.2716
    165  ND2      -21.0060  -16.7650  128.4110 N.am  176  ASN176     -0.0877
@<TRIPOS>BOND
     1    19    21   ar
     2    19    17   ar
     3    21    22   ar
     4    16    17    1
     5    16    13    1
     6    17    18   ar
     7    22    20   ar
     8    14    13    1
     9    14    15    2
    10    49    46    1
    11    13    12    1
    12    18    20   ar
    13     1     2    1
    14    45    46    1
    15    12     3   am
    16    46    47    1
    17   161   160    2
    18    23    24    1
    19     3     2    1
    20     3     4    2
    21   160   159    1
    22     2     5    1
    23    61    60    1
    24    59    60   ar
    25    59    57   ar
    26   152   151    2
    27   158   159    1
    28     5     6    1
    29    47    48    2
    30    47    50   am
    31     6     7    1
    32   159   162    1
    33    24    25    1
    34    24    27    1
    35   151   150    1
    36    60    58   ar
    37    57    55   ar
    38     7     8    1
    39   134   133    2
    40    28    27    1
    41    28    29    1
    42    50    51    1
    43     8     9    2
    44    30    29    1
    45    10     9    1
    46    33    34    2
    47    33    32    1
    48    25    31   am
    49    25    26    2
    50     9    11    1
    51    31    32    1
    52   133   132    1
    53    35    32    1
    54    35    36    1
    55   162   163    1
    56    58    56   ar
    57    55    56   ar
    58    55    54    1
    59   154   153    1
    60   154   155    1
    61   143   142    2
    62   150   153    1
    63   150   149    1
    64   157   155   ar
    65   137   136    1
    66   137   138    1
    67   139   138    1
    68   135   132    1
    69   135   136    1
    70    37    36    1
    71   155   156   ar
    72    51    54    1
    73    51    52    1
    74   142   149   am
    75   142   141    1
    76    36    38    1
    77   140   141    1
    78   132   131    1
    79    68    62    1
    80    68    67    1
    81   163   165   am
    82   163   164    2
    83   141   144    1
    84    52    62   am
    85    52    53    2
    86    62    63    1
    87    67    66    1
    88    41    42    2
    89    41    40    1
    90    66    63    1
    91    44    43    1
    92    63    64    1
    93   131   125   am
    94    39    40    1
    95   126   125    2
    96   144   145    1
    97    40    43    1
    98   125   124    1
    99   145   146    1
   100   118   117    2
   101    64    69   am
   102    64    65    2
   103    83    81   ar
   104    83    82   ar
   105    81    79   ar
   106    82    80   ar
   107    69    70    1
   108   117   116    1
   109    79    78   ar
   110   123   124    1
   111   124   127    1
   112    80    78   ar
   113   122   120    1
   114    78    77    1
   115   120   121    1
   116   120   119    1
   117   146   147    1
   118    77    74    1
   119   147   148    1
   120   127   128    1
   121    70    71    1
   122   119   116    1
   123   116   115    1
   124    72    71    2
   125    74    75    1
   126    74    73    1
   127    76    75    2
   128   128   130    1
   129   128   129    1
   130    75    84   am
   131    84    85    1
   132    88    89    1
   133    88    85    1
   134    91    89   am
   135    89    90    2
   136    85    86    1
   137   107   106    2
   138   106   105    1
   139    86    87    2
   140   108   105    1
   141   108   109    1
   142   111   109   ar
   143   111   113   ar
   144   105   104    1
   145   104   102   am
   146   109   110   ar
   147   113   114   ar
   148   102   101    1
   149   102   103    2
   150   101   100    1
   151   100    94   am
   152   110   112   ar
   153   114   112   ar
   154    92    93    1
   155    94    93    1
   156    94    95    2
   157    96    93    1
   158    96    97    1
   159    97    98    1
   160    97    99    1
