@<TRIPOS>MOLECULE
tmp/5l8rO03.pdb
 75 70 0 0 0
SMALL
GASTEIGER

@<TRIPOS>ATOM
      1  N        -40.6140  -25.0080   95.0200 N.3    16  MET16      -0.1245
      2  CA       -39.2240  -25.3260   94.7070 C.3    16  MET16       0.1570
      3  C        -38.5330  -26.0070   95.8860 C.2    16  MET16       0.2261
      4  O        -37.7230  -26.9220   95.6960 O.2    16  MET16      -0.2867
      5  CB       -38.4800  -24.0580   94.2900 C.3    16  MET16       0.0387
      6  CG       -37.0440  -24.2940   93.8780 C.3    16  MET16       0.0595
      7  SD       -36.8220  -25.8020   92.9230 S.3    16  MET16      -0.1393
      8  CE       -35.0610  -25.7550   92.6130 C.3    16  MET16       0.0692
      9  N        -35.6670  -32.6110   91.3230 N.3    25  ALA25      -0.1231
     10  CA       -34.9450  -31.3460   91.2430 C.3    25  ALA25       0.1679
     11  C        -33.4840  -31.5930   91.5970 C.2    25  ALA25       0.2434
     12  O        -33.1910  -32.3400   92.5390 O.2    25  ALA25      -0.2733
     13  CB       -35.5480  -30.2920   92.1720 C.3    25  ALA25       0.0304
     14  N        -32.5420  -31.0030   90.8590 N.am   26  PRO26      -0.2718
     15  CA       -31.1210  -31.2230   91.1620 C.3    26  PRO26       0.1535
     16  C        -30.7200  -30.7110   92.5370 C.2    26  PRO26       0.2599
     17  O        -30.3190  -29.5520   92.6850 O.2    26  PRO26      -0.2715
     18  CB       -30.4020  -30.4550   90.0450 C.3    26  PRO26       0.0310
     19  CG       -31.3940  -30.3970   88.9300 C.3    26  PRO26       0.0237
     20  CD       -32.7330  -30.2670   89.5980 C.3    26  PRO26       0.0939
     21  N        -30.8250  -31.5710   93.5480 N.am   27  SER27      -0.1950
     22  CA       -30.3780  -31.2220   94.8870 C.3    27  SER27       0.1924
     23  C        -28.8510  -31.2220   94.9460 C.2    27  SER27       0.2314
     24  O        -28.1600  -31.4990   93.9610 O.2    27  SER27      -0.2863
     25  CB       -30.9680  -32.1890   95.9110 C.3    27  SER27       0.2116
     26  OG       -30.4780  -31.9160   97.2130 O.3    27  SER27      -0.2180
     27  N        -28.6130  -26.7480   99.1430 N.3    54  ASP54      -0.1239
     28  CA       -29.7940  -26.9070   98.3060 C.3    54  ASP54       0.1674
     29  C        -31.0250  -26.2500   98.9180 C.2    54  ASP54       0.2266
     30  O        -31.9550  -25.9000   98.1850 O.2    54  ASP54      -0.2867
     31  CB       -30.0720  -28.3860   98.0500 C.3    54  ASP54       0.1410
     32  CG       -31.0310  -28.5990   96.8980 C.2    54  ASP54       0.3668
     33  OD1      -30.7820  -28.0440   95.8060 O.co2  54  ASP54      -0.2456
     34  OD2      -32.0360  -29.3160   97.0810 O.co2  54  ASP54      -0.2456
     35  N        -30.9030  -23.2410  100.5190 N.3    56  LEU56      -0.1231
     36  CA       -30.7200  -21.8790  100.0260 C.3    56  LEU56       0.1693
     37  C        -31.0230  -21.7870   98.5360 C.2    56  LEU56       0.2592
     38  O        -31.7050  -20.8540   98.0890 O.2    56  LEU56      -0.2718
     39  CB       -29.2930  -21.4110  100.3110 C.3    56  LEU56       0.0284
     40  CG       -28.8330  -21.4740  101.7690 C.3    56  LEU56       0.0019
     41  CD1      -27.3450  -21.1790  101.8760 C.3    56  LEU56       0.0001
     42  CD2      -29.6380  -20.5100  102.6240 C.3    56  LEU56       0.0001
     43  N        -30.5310  -22.7520   97.7540 N.am   57  ALA57      -0.1966
     44  CA       -30.7690  -22.7400   96.3130 C.3    57  ALA57       0.1728
     45  C        -32.2610  -22.7710   95.9980 C.2    57  ALA57       0.2616
     46  O        -32.7700  -21.9070   95.2760 O.2    57  ALA57      -0.2715
     47  CB       -30.0540  -23.9190   95.6550 C.3    57  ALA57       0.0334
     48  N        -32.9810  -23.7560   96.5430 N.am   58  CYS58      -0.1968
     49  CA       -34.4050  -23.8880   96.2480 C.3    58  CYS58       0.1712
     50  C        -35.2040  -22.6970   96.7580 C.2    58  CYS58       0.2296
     51  O        -36.2060  -22.3110   96.1420 O.2    58  CYS58      -0.2864
     52  CB       -34.9460  -25.1880   96.8410 C.3    58  CYS58       0.0983
     53  SG       -34.2030  -26.6720   96.1370 S.3    58  CYS58      -0.0798
     54  N        -34.0370  -19.4970   96.9150 N.3    60  VAL60      -0.1231
     55  CA       -33.7820  -18.3940   95.9900 C.3    60  VAL60       0.1692
     56  C        -34.4850  -18.6330   94.6590 C.2    60  VAL60       0.2591
     57  O        -34.9930  -17.6950   94.0360 O.2    60  VAL60      -0.2718
     58  CB       -32.2680  -18.1800   95.8010 C.3    60  VAL60       0.0266
     59  CG1      -32.0090  -17.1250   94.7380 C.3    60  VAL60       0.0020
     60  CG2      -31.6270  -17.7620   97.1080 C.3    60  VAL60       0.0020
     61  N        -34.5270  -19.8860   94.2000 N.am   61  VAL61      -0.1980
     62  CA       -35.2360  -20.1930   92.9600 C.3    61  VAL61       0.1595
     63  C        -36.7290  -19.9490   93.1270 C.2    61  VAL61       0.2287
     64  O        -37.3880  -19.4020   92.2330 O.2    61  VAL61      -0.2864
     65  CB       -34.9420  -21.6370   92.5160 C.3    61  VAL61       0.0276
     66  CG1      -35.7600  -21.9950   91.2820 C.3    61  VAL61       0.0022
     67  CG2      -33.4660  -21.8030   92.2390 C.3    61  VAL61       0.0022
     68  N        -37.0800  -16.2960   92.6940 N.3    64  ILE64      -0.1245
     69  CA       -36.9830  -15.8500   91.3080 C.3    64  ILE64       0.1561
     70  C        -38.2930  -16.1250   90.5820 C.2    64  ILE64       0.2260
     71  O        -38.8760  -15.2330   89.9490 O.2    64  ILE64      -0.2867
     72  CB       -35.7910  -16.5290   90.6090 C.3    64  ILE64       0.0252
     73  CG1      -34.4730  -16.1020   91.2620 C.3    64  ILE64       0.0019
     74  CG2      -35.7820  -16.2090   89.1210 C.3    64  ILE64       0.0019
     75  CD1      -33.2660  -16.8800   90.7810 C.3    64  ILE64       0.0001
@<TRIPOS>BOND
     1    19    20    1
     2    19    18    1
     3    74    72    1
     4    20    14    1
     5    71    70    2
     6    18    15    1
     7    70    69    1
     8    72    73    1
     9    72    69    1
    10    75    73    1
    11    14    15    1
    12    14    11   am
    13    15    16    1
    14    10     9    1
    15    10    11    1
    16    10    13    1
    17    66    65    1
    18    69    68    1
    19    11    12    2
    20    64    63    2
    21    67    65    1
    22    65    62    1
    23    16    17    2
    24    16    21   am
    25     8     7    1
    26     7     6    1
    27    62    63    1
    28    62    61    1
    29    21    22    1
    30     6     5    1
    31    24    23    2
    32    57    56    2
    33    61    56   am
    34     5     2    1
    35    56    55    1
    36     2     1    1
    37     2     3    1
    38    59    58    1
    39    22    23    1
    40    22    25    1
    41    46    45    2
    42    47    44    1
    43     4     3    2
    44    58    55    1
    45    58    60    1
    46    33    32   ar
    47    25    26    1
    48    55    54    1
    49    45    44    1
    50    45    48   am
    51    53    52    1
    52    51    50    2
    53    49    48    1
    54    49    50    1
    55    49    52    1
    56    44    43    1
    57    32    34   ar
    58    32    31    1
    59    43    37   am
    60    31    28    1
    61    38    37    2
    62    30    29    2
    63    28    29    1
    64    28    27    1
    65    37    36    1
    66    36    39    1
    67    36    35    1
    68    39    40    1
    69    40    41    1
    70    40    42    1
