@<TRIPOS>MOLECULE
tmp/5l8rK10.pdb
 117 115 0 0 0
SMALL
GASTEIGER

@<TRIPOS>ATOM
      1  N         57.2540   32.3000   10.6730 N.3    12  GLY12      -0.1225
      2  CA        58.6730   32.0910   10.4340 C.3    12  GLY12       0.1811
      3  C         59.4570   31.9000   11.7180 C.2    12  GLY12       0.2280
      4  O         60.3450   31.0460   11.7940 O.2    12  GLY12      -0.2866
      5  N         58.4390   28.3050   13.1560 N.3    15  LEU15      -0.1231
      6  CA        59.1930   27.2840   12.4330 C.3    15  LEU15       0.1693
      7  C         60.6690   27.3300   12.8050 C.2    15  LEU15       0.2592
      8  O         61.3140   26.2850   12.9580 O.2    15  LEU15      -0.2718
      9  CB        59.0180   27.4700   10.9240 C.3    15  LEU15       0.0284
     10  CG        57.6250   27.2650   10.3260 C.3    15  LEU15       0.0019
     11  CD1       57.6090   27.6870    8.8680 C.3    15  LEU15       0.0001
     12  CD2       57.1740   25.8180   10.4720 C.3    15  LEU15       0.0001
     13  N         61.2150   28.5370   12.9680 N.am   16  PHE16      -0.1976
     14  CA        62.6290   28.6780   13.2940 C.3    16  PHE16       0.1639
     15  C         62.9440   28.0830   14.6610 C.2    16  PHE16       0.2290
     16  O         63.8930   27.3040   14.8080 O.2    16  PHE16      -0.2864
     17  CB        63.0300   30.1520   13.2420 C.3    16  PHE16       0.0560
     18  CG        64.4500   30.4050   13.6560 C.ar   16  PHE16      -0.0200
     19  CD1       65.4870   30.2510   12.7510 C.ar   16  PHE16      -0.0042
     20  CD2       64.7490   30.7980   14.9510 C.ar   16  PHE16      -0.0042
     21  CE1       66.7960   30.4810   13.1310 C.ar   16  PHE16      -0.0003
     22  CE2       66.0550   31.0300   15.3350 C.ar   16  PHE16      -0.0003
     23  CZ        67.0790   30.8710   14.4250 C.ar   16  PHE16      -0.0000
     24  N         62.7780   24.4280   14.6770 N.3    19  ARG19      -0.1231
     25  CA        63.8020   23.8080   13.8480 C.3    19  ARG19       0.1694
     26  C         65.1790   23.8240   14.5080 C.2    19  ARG19       0.2592
     27  O         65.8270   22.7770   14.6160 O.2    19  ARG19      -0.2718
     28  CB        63.8560   24.5100   12.4910 C.3    19  ARG19       0.0321
     29  CG        65.1420   24.2810   11.7360 C.3    19  ARG19       0.0489
     30  CD        65.2650   22.8620   11.2350 C.3    19  ARG19       0.2205
     31  NE        66.5390   22.6650   10.5530 N.pl3  19  ARG19      -0.0865
     32  CZ        66.8120   21.6220    9.7830 C.cat  19  ARG19       0.5346
     33  NH1       65.8930   20.6900    9.5960 N.pl3  19  ARG19       0.1354
     34  NH2       67.9950   21.5150    9.1970 N.pl3  19  ARG19       0.1354
     35  N         65.6430   24.9950   14.9520 N.am   20  PHE20      -0.1976
     36  CA        67.0040   25.1400   15.4530 C.3    20  PHE20       0.1639
     37  C         67.0930   25.2590   16.9720 C.2    20  PHE20       0.2290
     38  O         68.2040   25.2310   17.5120 O.2    20  PHE20      -0.2864
     39  CB        67.6780   26.3680   14.8270 C.3    20  PHE20       0.0560
     40  CG        67.7870   26.3120   13.3290 C.ar   20  PHE20      -0.0200
     41  CD1       68.7060   25.4760   12.7150 C.ar   20  PHE20      -0.0042
     42  CD2       66.9840   27.1130   12.5340 C.ar   20  PHE20      -0.0042
     43  CE1       68.8100   25.4290   11.3350 C.ar   20  PHE20      -0.0003
     44  CE2       67.0850   27.0720   11.1540 C.ar   20  PHE20      -0.0003
     45  CZ        67.9980   26.2270   10.5550 C.ar   20  PHE20      -0.0000
     46  N         59.0530   10.6710    6.8820 N.3    59  LYS59      -0.1231
     47  CA        60.3720   10.6850    6.2670 C.3    59  LYS59       0.1693
     48  C         60.5890   12.0140    5.5570 C.2    59  LYS59       0.2593
     49  O         59.7470   12.4500    4.7660 O.2    59  LYS59      -0.2718
     50  CB        60.5200    9.5250    5.2830 C.3    59  LYS59       0.0285
     51  CG        61.9280    9.3600    4.7330 C.3    59  LYS59       0.0035
     52  CD        62.9330    9.1330    5.8530 C.3    59  LYS59       0.0206
     53  CE        64.3300    8.8690    5.3080 C.3    59  LYS59       0.1093
     54  NZ        64.8420   10.0060    4.4900 N.3    59  LYS59      -0.1314
     55  N         61.7160   12.6590    5.8450 N.am   60  SER60      -0.1938
     56  CA        62.0400   13.9480    5.2540 C.3    60  SER60       0.2055
     57  C         63.5250   13.9960    4.9320 C.2    60  SER60       0.2643
     58  O         64.3560   13.5800    5.7430 O.2    60  SER60      -0.2714
     59  CB        61.6640   15.0990    6.1970 C.3    60  SER60       0.2130
     60  OG        61.9980   16.3540    5.6340 O.3    60  SER60      -0.2179
     61  N         63.8530   14.5020    3.7420 N.am   61  ASN61      -0.1957
     62  CA        65.2480   14.6800    3.3620 C.3    61  ASN61       0.1819
     63  C         65.8890   15.8870    4.0320 C.2    61  ASN61       0.2621
     64  O         67.0940   16.1040    3.8620 O.2    61  ASN61      -0.2715
     65  CB        65.3700   14.7900    1.8430 C.3    61  ASN61       0.1195
     66  CG        64.9850   13.5050    1.1430 C.2    61  ASN61       0.2630
     67  OD1       65.7350   12.5300    1.1610 O.2    61  ASN61      -0.2716
     68  ND2       63.8080   13.4940    0.5280 N.am   61  ASN61      -0.0877
     69  N         65.1110   16.6770    4.7610 N.am   62  ASP62      -0.1958
     70  CA        65.6330   17.6310    5.7230 C.3    62  ASP62       0.1825
     71  C         66.6570   16.9290    6.6140 C.2    62  ASP62       0.2464
     72  O         66.3230   15.9120    7.2390 O.2    62  ASP62      -0.2730
     73  CB        64.4800   18.1800    6.5610 C.3    62  ASP62       0.1450
     74  CG        64.7670   19.5430    7.1470 C.2    62  ASP62       0.3671
     75  OD1       65.9470   19.8710    7.3770 O.co2  62  ASP62      -0.2456
     76  OD2       63.8010   20.2920    7.3950 O.co2  62  ASP62      -0.2456
     77  N         67.8990   17.4200    6.6890 N.am   63  PRO63      -0.2727
     78  CA        68.9530   16.6440    7.3710 C.3    63  PRO63       0.1402
     79  C         68.6300   16.2560    8.8040 C.2    63  PRO63       0.2269
     80  O         68.9600   15.1360    9.2160 O.2    63  PRO63      -0.2865
     81  CB        70.1710   17.5780    7.3020 C.3    63  PRO63       0.0296
     82  CG        69.6180   18.9340    6.9650 C.3    63  PRO63       0.0237
     83  CD        68.4320   18.6600    6.1050 C.3    63  PRO63       0.0939
     84  N         63.3030   17.2330   10.3910 N.3    66  PHE66      -0.1227
     85  CA        62.1410   18.1130   10.3570 C.3    66  PHE66       0.1736
     86  C         61.2540   17.7410    9.1730 C.2    66  PHE66       0.2595
     87  O         61.7190   17.6970    8.0290 O.2    66  PHE66      -0.2718
     88  CB        62.6130   19.5660   10.2590 C.3    66  PHE66       0.0547
     89  CG        61.5660   20.5850   10.6140 C.ar   66  PHE66      -0.0202
     90  CD1       61.4200   21.0260   11.9220 C.ar   66  PHE66      -0.0042
     91  CD2       60.7470   21.1230    9.6370 C.ar   66  PHE66      -0.0042
     92  CE1       60.4650   21.9750   12.2460 C.ar   66  PHE66      -0.0003
     93  CE2       59.7930   22.0680    9.9580 C.ar   66  PHE66      -0.0003
     94  CZ        59.6490   22.4940   11.2610 C.ar   66  PHE66      -0.0000
     95  N         59.9790   17.4610    9.4450 N.am   67  ASN67      -0.1960
     96  CA        59.0960   16.9160    8.4200 C.3    67  ASN67       0.1819
     97  C         57.8110   17.7210    8.2650 C.2    67  ASN67       0.2621
     98  O         57.6960   18.8280    8.7990 O.2    67  ASN67      -0.2715
     99  CB        58.7600   15.4600    8.7430 C.3    67  ASN67       0.1195
    100  CG        58.1650   15.2920   10.1310 C.2    67  ASN67       0.2630
    101  OD1       57.3720   16.1160   10.5910 O.2    67  ASN67      -0.2716
    102  ND2       58.5520   14.2180   10.8090 N.am   67  ASN67      -0.0877
    103  N         56.8330   17.1560    7.5520 N.am   68  ILE68      -0.1977
    104  CA        55.5800   17.8640    7.3020 C.3    68  ILE68       0.1596
    105  C         54.8170   18.0970    8.6020 C.2    68  ILE68       0.2287
    106  O         54.2140   19.1580    8.8000 O.2    68  ILE68      -0.2864
    107  CB        54.7300   17.0920    6.2750 C.3    68  ILE68       0.0276
    108  CG1       55.4720   16.9950    4.9420 C.3    68  ILE68       0.0022
    109  CG2       53.3770   17.7630    6.0780 C.3    68  ILE68       0.0022
    110  CD1       54.7510   16.1700    3.8970 C.3    68  ILE68       0.0001
    111  N         56.2390   21.0340   10.4440 N.3    71  VAL71      -0.1245
    112  CA        55.7610   22.2390    9.7680 C.3    71  VAL71       0.1561
    113  C         54.3470   22.5720   10.2180 C.2    71  VAL71       0.2260
    114  O         54.0420   23.7120   10.5800 O.2    71  VAL71      -0.2867
    115  CB        55.8210   22.0620    8.2400 C.3    71  VAL71       0.0252
    116  CG1       55.2650   23.2950    7.5400 C.3    71  VAL71       0.0019
    117  CG2       57.2330   21.7920    7.7870 C.3    71  VAL71       0.0019
@<TRIPOS>BOND
     1    68    66   am
     2    66    67    2
     3    66    65    1
     4    65    62    1
     5    62    61    1
     6    62    63    1
     7    61    57   am
     8    64    63    2
     9   110   108    1
    10    63    69   am
    11    54    53    1
    12    51    50    1
    13    51    52    1
    14    69    70    1
    15    49    48    2
    16    57    56    1
    17    57    58    2
    18   108   107    1
    19    56    55    1
    20    56    59    1
    21    50    47    1
    22    53    52    1
    23    48    55   am
    24    48    47    1
    25    60    59    1
    26    70    73    1
    27    70    71    1
    28   109   107    1
    29    83    77    1
    30    83    82    1
    31    47    46    1
    32   107   104    1
    33    73    74    1
    34    71    77   am
    35    71    72    2
    36    77    78    1
    37    82    81    1
    38    74    75   ar
    39    74    76   ar
    40    81    78    1
    41   104   103    1
    42   104   105    1
    43    78    79    1
    44   116   115    1
    45   103    97   am
    46   117   115    1
    47    87    86    2
    48   115   112    1
    49    97    96    1
    50    97    98    2
    51    96    99    1
    52    96    95    1
    53   105   106    2
    54    99   100    1
    55    79    80    2
    56    11    10    1
    57    86    95   am
    58    86    85    1
    59    34    32    1
    60    33    32    1
    61    91    93   ar
    62    91    89   ar
    63   112   113    1
    64   112   111    1
    65    32    31    2
    66    93    94   ar
    67   100   101    2
    68   100   102   am
    69   113   114    2
    70    88    85    1
    71    88    89    1
    72    10    12    1
    73    10     9    1
    74    85    84    1
    75     2     1    1
    76     2     3    1
    77    31    30    1
    78    45    44   ar
    79    45    43   ar
    80    89    90   ar
    81     9     6    1
    82    44    42   ar
    83    30    29    1
    84    94    92   ar
    85    43    41   ar
    86     3     4    2
    87    29    28    1
    88    90    92   ar
    89     6     7    1
    90     6     5    1
    91    28    25    1
    92    42    40   ar
    93    41    40   ar
    94    19    21   ar
    95    19    18   ar
    96     7     8    2
    97     7    13   am
    98    13    14    1
    99    21    23   ar
   100    17    14    1
   101    17    18    1
   102    14    15    1
   103    40    39    1
   104    18    20   ar
   105    25    26    1
   106    25    24    1
   107    23    22   ar
   108    26    27    2
   109    26    35   am
   110    15    16    2
   111    39    36    1
   112    20    22   ar
   113    35    36    1
   114    36    37    1
   115    37    38    2
