@<TRIPOS>MOLECULE
tmp/5l8rJ05.pdb
 103 98 0 0 0
SMALL
GASTEIGER

@<TRIPOS>ATOM
      1  N         12.1490   43.2220   79.0040 N.3    51  ARG51      -0.1245
      2  CA        13.5350   42.8660   79.2770 C.3    51  ARG51       0.1563
      3  C         14.1810   42.2330   78.0490 C.2    51  ARG51       0.2260
      4  O         15.3280   42.5510   77.7030 O.2    51  ARG51      -0.2867
      5  CB        13.5870   41.9320   80.4880 C.3    51  ARG51       0.0307
      6  CG        14.9830   41.5100   80.9410 C.3    51  ARG51       0.0489
      7  CD        14.8900   40.4540   82.0400 C.3    51  ARG51       0.2205
      8  NE        16.1840   39.8970   82.4210 N.pl3  51  ARG51      -0.0865
      9  CZ        16.3490   38.9870   83.3790 C.cat  51  ARG51       0.5346
     10  NH1       15.2990   38.5340   84.0550 N.pl3  51  ARG51       0.1354
     11  NH2       17.5620   38.5290   83.6670 N.pl3  51  ARG51       0.1354
     12  N         17.1580   44.0650   76.0000 N.3    55  ASN55      -0.1225
     13  CA        18.4830   43.4580   76.0160 C.3    55  ASN55       0.1785
     14  C         19.0020   43.2290   74.6030 C.2    55  ASN55       0.2597
     15  O         20.1740   43.5010   74.3200 O.2    55  ASN55      -0.2718
     16  CB        18.4670   42.1540   76.8070 C.3    55  ASN55       0.1169
     17  CG        18.5840   42.3820   78.2980 C.2    55  ASN55       0.2627
     18  OD1       19.6140   42.8490   78.7870 O.2    55  ASN55      -0.2716
     19  ND2       17.5310   42.0460   79.0330 N.am   55  ASN55      -0.0877
     20  N         18.1490   42.7390   73.6960 N.am   56  TYR56      -0.1976
     21  CA        18.6040   42.5540   72.3200 C.3    56  TYR56       0.1639
     22  C         19.0240   43.8840   71.7120 C.2    56  TYR56       0.2290
     23  O         20.0410   43.9620   71.0130 O.2    56  TYR56      -0.2864
     24  CB        17.5220   41.8840   71.4680 C.3    56  TYR56       0.0560
     25  CG        17.2230   40.4550   71.8710 C.ar   56  TYR56      -0.0198
     26  CD1       18.1210   39.7310   72.6490 C.ar   56  TYR56      -0.0009
     27  CD2       16.0430   39.8320   71.4800 C.ar   56  TYR56      -0.0009
     28  CE1       17.8500   38.4320   73.0300 C.ar   56  TYR56       0.0417
     29  CE2       15.7610   38.5290   71.8560 C.ar   56  TYR56       0.0417
     30  CZ        16.6690   37.8340   72.6330 C.ar   56  TYR56       0.1957
     31  OH        16.4020   36.5400   73.0190 O.3    56  TYR56      -0.2866
     32  N         20.1760   46.5110   73.4050 N.3    58  LYS58      -0.1231
     33  CA        21.3980   46.9680   74.0610 C.3    58  LYS58       0.1693
     34  C         22.6340   46.2790   73.4950 C.2    58  LYS58       0.2591
     35  O         23.6000   46.9420   73.1010 O.2    58  LYS58      -0.2718
     36  CB        21.3040   46.7350   75.5700 C.3    58  LYS58       0.0285
     37  CG        20.5540   47.8160   76.3260 C.3    58  LYS58       0.0035
     38  CD        20.4560   47.4870   77.8100 C.3    58  LYS58       0.0206
     39  CE        19.6100   48.5210   78.5430 C.3    58  LYS58       0.1093
     40  NZ        19.4510   48.1960   79.9880 N.3    58  LYS58      -0.1314
     41  N         22.6270   44.9470   73.4470 N.am   59  GLN59      -0.1979
     42  CA        23.8490   44.2130   73.1360 C.3    59  GLN59       0.1601
     43  C         24.2190   44.2460   71.6550 C.2    59  GLN59       0.2287
     44  O         25.1100   43.4960   71.2430 O.2    59  GLN59      -0.2864
     45  CB        23.7470   42.7650   73.6320 C.3    59  GLN59       0.0394
     46  CG        22.5590   41.9770   73.1300 C.3    59  GLN59       0.0908
     47  CD        22.1990   40.8340   74.0620 C.2    59  GLN59       0.2608
     48  OE1       22.5100   40.8700   75.2530 O.2    59  GLN59      -0.2717
     49  NE2       21.5460   39.8090   73.5220 N.am   59  GLN59      -0.0878
     50  N         22.2000   36.9630   63.1980 N.3    71  LEU71      -0.1245
     51  CA        23.5000   36.7410   63.8210 C.3    71  LEU71       0.1561
     52  C         24.6160   36.8310   62.7870 C.2    71  LEU71       0.2260
     53  O         24.5150   36.2430   61.7050 O.2    71  LEU71      -0.2867
     54  CB        23.5410   35.3790   64.5130 C.3    71  LEU71       0.0270
     55  CG        22.5740   35.1780   65.6820 C.3    71  LEU71       0.0019
     56  CD1       22.7930   33.8160   66.3240 C.3    71  LEU71       0.0001
     57  CD2       22.7230   36.2880   66.7100 C.3    71  LEU71       0.0001
     58  N         28.1130   35.6470   62.0160 N.3    73  VAL73      -0.1245
     59  CA        29.0680   34.6170   62.4060 C.3    73  VAL73       0.1561
     60  C         30.3780   34.7080   61.6330 C.2    73  VAL73       0.2260
     61  O         31.2550   33.8540   61.8170 O.2    73  VAL73      -0.2867
     62  CB        28.4450   33.2140   62.2530 C.3    73  VAL73       0.0252
     63  CG1       27.1850   33.1040   63.0980 C.3    73  VAL73       0.0019
     64  CG2       28.1330   32.9220   60.7940 C.3    73  VAL73       0.0019
     65  N         29.9970   37.7460   70.5790 N.3    81  GLY81      -0.1210
     66  CA        29.0030   37.2110   71.4880 C.3    81  GLY81       0.1956
     67  C         27.9150   36.4000   70.8190 C.2    81  GLY81       0.2612
     68  O         27.1910   35.6790   71.5130 O.2    81  GLY81      -0.2717
     69  N         27.7910   36.4910   69.4960 N.am   82  GLU82      -0.1965
     70  CA        26.7420   35.7840   68.7790 C.3    82  GLU82       0.1733
     71  C         27.1470   34.3800   68.3500 C.2    82  GLU82       0.2616
     72  O         26.2680   33.5760   68.0170 O.2    82  GLU82      -0.2715
     73  CB        26.3170   36.5840   67.5450 C.3    82  GLU82       0.0429
     74  CG        25.8310   37.9960   67.8580 C.3    82  GLU82       0.1163
     75  CD        25.6560   38.8450   66.6110 C.2    82  GLU82       0.3649
     76  OE1       25.9030   38.3340   65.4990 O.co2  82  GLU82      -0.2457
     77  OE2       25.2770   40.0260   66.7410 O.co2  82  GLU82      -0.2457
     78  N         28.4430   34.0620   68.3460 N.am   83  PHE83      -0.1974
     79  CA        28.8720   32.7240   67.9530 C.3    83  PHE83       0.1639
     80  C         30.2370   32.3430   68.5190 C.2    83  PHE83       0.2290
     81  O         30.3580   31.3330   69.2180 O.2    83  PHE83      -0.2864
     82  CB        28.8910   32.6030   66.4280 C.3    83  PHE83       0.0560
     83  CG        29.3600   31.2620   65.9330 C.ar   83  PHE83      -0.0200
     84  CD1       28.5490   30.1430   66.0510 C.ar   83  PHE83      -0.0042
     85  CD2       30.6130   31.1220   65.3550 C.ar   83  PHE83      -0.0042
     86  CE1       28.9770   28.9080   65.6020 C.ar   83  PHE83      -0.0003
     87  CE2       31.0460   29.8960   64.9020 C.ar   83  PHE83      -0.0003
     88  CZ        30.2260   28.7820   65.0260 C.ar   83  PHE83      -0.0000
     89  N         30.2910   32.0740   72.6250 N.3    86  PRO86      -0.2116
     90  CA        29.5550   30.8730   73.0460 C.3    86  PRO86       0.1372
     91  C         30.0970   29.6180   72.3990 C.2    86  PRO86       0.2244
     92  O         29.9730   28.5310   72.9730 O.2    86  PRO86      -0.2868
     93  CB        28.1120   31.1570   72.6000 C.3    86  PRO86       0.0268
     94  CG        28.0500   32.6070   72.3460 C.3    86  PRO86       0.0207
     95  CD        29.4130   32.9930   71.8770 C.3    86  PRO86       0.0892
     96  N         32.9790   28.5060   74.4840 N.3    89  LEU89      -0.1245
     97  CA        32.4160   27.8870   75.6830 C.3    89  LEU89       0.1561
     98  C         31.9430   26.4700   75.3880 C.2    89  LEU89       0.2260
     99  O         32.2520   25.5240   76.1320 O.2    89  LEU89      -0.2867
    100  CB        31.2670   28.7310   76.2340 C.3    89  LEU89       0.0270
    101  CG        30.6580   28.1780   77.5230 C.3    89  LEU89       0.0019
    102  CD1       31.7520   27.9160   78.5530 C.3    89  LEU89       0.0001
    103  CD2       29.6190   29.1370   78.0730 C.3    89  LEU89       0.0001
@<TRIPOS>BOND
     1    64    62    1
     2    60    61    2
     3    60    59    1
     4    53    52    2
     5    58    59    1
     6    62    59    1
     7    62    63    1
     8    52    51    1
     9    50    51    1
    10    51    54    1
    11    54    55    1
    12    87    88   ar
    13    87    85   ar
    14    88    86   ar
    15    85    83   ar
    16    76    75   ar
    17    86    84   ar
    18    55    56    1
    19    55    57    1
    20    83    84   ar
    21    83    82    1
    22    82    79    1
    23    75    77   ar
    24    75    74    1
    25    73    74    1
    26    73    70    1
    27    79    78    1
    28    79    80    1
    29    72    71    2
    30    78    71   am
    31    71    70    1
    32    80    81    2
    33    70    69    1
    34    69    67   am
    35    65    66    1
    36    67    66    1
    37    67    68    2
    38    23    22    2
    39    44    43    2
    40    24    25    1
    41    24    21    1
    42    27    29   ar
    43    27    25   ar
    44    43    42    1
    45    22    21    1
    46    29    30   ar
    47    25    26   ar
    48    95    94    1
    49    95    89    1
    50    21    20    1
    51    94    93    1
    52    91    92    2
    53    91    90    1
    54    93    90    1
    55    89    90    1
    56    30    31    1
    57    30    28   ar
    58    26    28   ar
    59    35    34    2
    60    46    45    1
    61    46    47    1
    62    42    41    1
    63    42    45    1
    64    32    33    1
    65    41    34   am
    66    34    33    1
    67    49    47   am
    68    20    14   am
    69    33    36    1
    70    47    48    2
    71    15    14    2
    72    96    97    1
    73    14    13    1
    74    98    97    1
    75    98    99    2
    76    36    37    1
    77    97   100    1
    78    12    13    1
    79    13    16    1
    80   100   101    1
    81    37    38    1
    82    16    17    1
    83   101   103    1
    84   101   102    1
    85     4     3    2
    86    38    39    1
    87     3     2    1
    88    17    18    2
    89    17    19   am
    90    39    40    1
    91     1     2    1
    92     2     5    1
    93     5     6    1
    94     6     7    1
    95     7     8    1
    96     8     9    2
    97     9    11    1
    98     9    10    1
