@<TRIPOS>MOLECULE
tmp/5l8rK01.pdb
 127 118 0 0 0
SMALL
GASTEIGER

@<TRIPOS>ATOM
      1  N         49.6270   45.3390   12.2840 N.3     1  LEU1       -0.1245
      2  CA        48.5980   45.9960   11.4840 C.3     1  LEU1        0.1561
      3  C         48.4790   45.3570   10.1020 C.2     1  LEU1        0.2260
      4  O         47.3750   45.1780    9.5860 O.2     1  LEU1       -0.2867
      5  CB        48.8940   47.4910   11.3510 C.3     1  LEU1        0.0270
      6  CG        47.9420   48.3100   10.4740 C.3     1  LEU1        0.0019
      7  CD1       46.5190   48.2600   11.0090 C.3     1  LEU1        0.0001
      8  CD2       48.4230   49.7460   10.3660 C.3     1  LEU1        0.0001
      9  N         52.4250   40.6120    7.2280 N.3     5  LEU5       -0.1231
     10  CA        53.6550   40.8550    7.9740 C.3     5  LEU5        0.1693
     11  C         53.6620   40.0900    9.2920 C.2     5  LEU5        0.2591
     12  O         54.6250   39.3800    9.6030 O.2     5  LEU5       -0.2718
     13  CB        53.8200   42.3550    8.2190 C.3     5  LEU5        0.0284
     14  CG        55.0430   42.8150    9.0120 C.3     5  LEU5        0.0019
     15  CD1       56.3270   42.4130    8.3050 C.3     5  LEU5        0.0001
     16  CD2       54.9890   44.3200    9.2230 C.3     5  LEU5        0.0001
     17  N         52.5920   40.2220   10.0780 N.am    6  VAL6       -0.1980
     18  CA        52.5430   39.5810   11.3880 C.3     6  VAL6        0.1595
     19  C         52.4720   38.0650   11.2460 C.2     6  VAL6        0.2287
     20  O         53.1290   37.3260   11.9900 O.2     6  VAL6       -0.2864
     21  CB        51.3590   40.1320   12.2020 C.3     6  VAL6        0.0276
     22  CG1       51.2130   39.3810   13.5240 C.3     6  VAL6        0.0022
     23  CG2       51.5340   41.6250   12.4410 C.3     6  VAL6        0.0022
     24  N         55.9100   36.8150   10.0390 N.3     9  LEU9       -0.1231
     25  CA        56.9060   36.9000   11.1020 C.3     9  LEU9        0.1693
     26  C         56.6720   35.8320   12.1630 C.2     9  LEU9        0.2592
     27  O         57.5990   35.1160   12.5530 O.2     9  LEU9       -0.2718
     28  CB        56.8860   38.2910   11.7380 C.3     9  LEU9        0.0284
     29  CG        57.5790   39.4230   10.9840 C.3     9  LEU9        0.0019
     30  CD1       57.4750   40.7220   11.7700 C.3     9  LEU9        0.0001
     31  CD2       59.0310   39.0640   10.7130 C.3     9  LEU9        0.0001
     32  N         55.4320   35.7150   12.6420 N.am   10  SER10      -0.1952
     33  CA        55.1370   34.7680   13.7100 C.3    10  SER10       0.1924
     34  C         55.3430   33.3320   13.2490 C.2    10  SER10       0.2314
     35  O         55.9050   32.5120   13.9850 O.2    10  SER10      -0.2863
     36  CB        53.7070   34.9750   14.2070 C.3    10  SER10       0.2116
     37  OG        53.4700   36.3340   14.5340 O.3    10  SER10      -0.2180
     38  N         59.1360   32.6880   12.7480 N.3    13  LEU13      -0.1231
     39  CA        59.8050   32.5370   14.0360 C.3    13  LEU13       0.1693
     40  C         59.4290   31.2230   14.7070 C.2    13  LEU13       0.2592
     41  O         60.2660   30.5960   15.3630 O.2    13  LEU13      -0.2718
     42  CB        59.4680   33.7150   14.9500 C.3    13  LEU13       0.0284
     43  CG        60.0920   35.0690   14.6140 C.3    13  LEU13       0.0019
     44  CD1       59.5600   36.1380   15.5530 C.3    13  LEU13       0.0001
     45  CD2       61.6110   35.0080   14.6800 C.3    13  LEU13       0.0001
     46  N         58.1730   30.7930   14.5620 N.am   14  SER14      -0.1952
     47  CA        57.7540   29.5270   15.1560 C.3    14  SER14       0.1924
     48  C         58.4650   28.3520   14.4930 C.2    14  SER14       0.2314
     49  O         59.0360   27.4910   15.1760 O.2    14  SER14      -0.2863
     50  CB        56.2370   29.3760   15.0500 C.3    14  SER14       0.2116
     51  OG        55.8030   28.1520   15.6190 O.3    14  SER14      -0.2180
     52  N         62.1660   28.4560   15.6800 N.3    17  LEU17      -0.1245
     53  CA        62.3720   27.9030   17.0150 C.3    17  LEU17       0.1561
     54  C         62.2440   26.3860   16.9990 C.2    17  LEU17       0.2260
     55  O         63.1110   25.6710   17.5140 O.2    17  LEU17      -0.2867
     56  CB        61.3740   28.5100   18.0010 C.3    17  LEU17       0.0270
     57  CG        61.4340   30.0150   18.2600 C.3    17  LEU17       0.0019
     58  CD1       60.2880   30.4310   19.1720 C.3    17  LEU17       0.0001
     59  CD2       62.7750   30.4120   18.8550 C.3    17  LEU17       0.0001
     60  N         64.1300   24.2500   19.7620 N.3    22  PHE22      -0.1241
     61  CA        63.4060   23.2770   20.5710 C.3    22  PHE22       0.1605
     62  C         63.3210   21.8980   19.9270 C.2    22  PHE22       0.2264
     63  O         62.5610   21.0540   20.4130 O.2    22  PHE22      -0.2867
     64  CB        61.9900   23.7820   20.8580 C.3    22  PHE22       0.0534
     65  CG        61.9450   25.0310   21.6860 C.ar   22  PHE22      -0.0203
     66  CD1       62.8080   25.2020   22.7550 C.ar   22  PHE22      -0.0042
     67  CD2       61.0400   26.0380   21.3940 C.ar   22  PHE22      -0.0042
     68  CE1       62.7660   26.3530   23.5200 C.ar   22  PHE22      -0.0003
     69  CE2       60.9960   27.1920   22.1520 C.ar   22  PHE22      -0.0003
     70  CZ        61.8590   27.3490   23.2180 C.ar   22  PHE22      -0.0000
     71  N         54.2930   23.6930   14.2230 N.3    74  TRP74      -0.1241
     72  CA        54.8890   24.9900   14.5300 C.3    74  TRP74       0.1605
     73  C         54.2320   26.1110   13.7350 C.2    74  TRP74       0.2264
     74  O         54.0120   27.2050   14.2650 O.2    74  TRP74      -0.2867
     75  CB        56.3950   24.9500   14.2790 C.3    74  TRP74       0.0550
     76  CG        57.0970   24.0410   15.2300 C.ar   74  TRP74       0.0003
     77  CD1       57.4950   22.7610   14.9940 C.ar   74  TRP74       0.0946
     78  CD2       57.4620   24.3320   16.5850 C.ar   74  TRP74       0.0152
     79  NE1       58.0950   22.2360   16.1130 N.ar   74  TRP74      -0.2442
     80  CE2       58.0830   23.1800   17.1070 C.ar   74  TRP74       0.0810
     81  CE3       57.3250   25.4550   17.4070 C.ar   74  TRP74       0.0012
     82  CZ2       58.5750   23.1200   18.4110 C.ar   74  TRP74       0.0191
     83  CZ3       57.8110   25.3920   18.7050 C.ar   74  TRP74       0.0001
     84  CH2       58.4290   24.2330   19.1920 C.ar   74  TRP74       0.0015
     85  N         51.0990   27.0390   15.4410 N.3    77  ILE77      -0.1231
     86  CA        51.4110   27.9280   16.5600 C.3    77  ILE77       0.1692
     87  C         51.6280   29.3530   16.0660 C.2    77  ILE77       0.2592
     88  O         51.0350   30.3060   16.5840 O.2    77  ILE77      -0.2718
     89  CB        52.6400   27.4130   17.3270 C.3    77  ILE77       0.0266
     90  CG1       52.3450   26.0540   17.9550 C.3    77  ILE77       0.0019
     91  CG2       53.0660   28.4150   18.3910 C.3    77  ILE77       0.0020
     92  CD1       53.5890   25.3270   18.3740 C.3    77  ILE77       0.0001
     93  N         52.4860   29.5170   15.0550 N.am   78  GLY78      -0.1957
     94  CA        52.7800   30.8440   14.5440 C.3    78  GLY78       0.1869
     95  C         51.5560   31.5820   14.0420 C.2    78  GLY78       0.2309
     96  O         51.4630   32.8030   14.1830 O.2    78  GLY78      -0.2863
     97  N         49.4990   32.6200   17.3350 N.3    81  VAL81      -0.1245
     98  CA        50.1250   33.8150   17.8940 C.3    81  VAL81       0.1561
     99  C         49.9020   35.0070   16.9740 C.2    81  VAL81       0.2260
    100  O         49.6430   36.1260   17.4330 O.2    81  VAL81      -0.2867
    101  CB        51.6270   33.5660   18.1380 C.3    81  VAL81       0.0252
    102  CG1       52.2960   34.8170   18.6920 C.3    81  VAL81       0.0019
    103  CG2       51.8300   32.3840   19.0680 C.3    81  VAL81       0.0019
    104  N         48.0310   38.4710   17.9770 N.3    85  ILE85      -0.1245
    105  CA        48.5660   39.8280   17.9960 C.3    85  ILE85       0.1561
    106  C         47.7480   40.7370   17.0860 C.2    85  ILE85       0.2260
    107  O         47.5310   41.9180   17.3920 O.2    85  ILE85      -0.2867
    108  CB        50.0560   39.8130   17.6080 C.3    85  ILE85       0.0252
    109  CG1       50.8410   38.9250   18.5760 C.3    85  ILE85       0.0019
    110  CG2       50.6270   41.2280   17.5930 C.3    85  ILE85       0.0019
    111  CD1       52.3100   38.7880   18.2320 C.3    85  ILE85       0.0001
    112  N         45.5950   43.7810   18.5680 N.3    89  SER89      -0.1202
    113  CA        46.0290   45.1340   18.2390 C.3    89  SER89       0.2020
    114  C         44.8590   46.0150   17.8130 C.2    89  SER89       0.2619
    115  O         44.7990   47.1920   18.1830 O.2    89  SER89      -0.2717
    116  CB        47.0940   45.0890   17.1440 C.3    89  SER89       0.2103
    117  OG        48.2260   44.3550   17.5770 O.3    89  SER89      -0.2182
    118  N         43.9220   45.4670   17.0430 N.am   90  SER90      -0.1951
    119  CA        42.7440   46.2000   16.5940 C.3    90  SER90       0.1924
    120  C         41.6790   46.3380   17.6750 C.2    90  SER90       0.2314
    121  O         40.5930   46.8490   17.3820 O.2    90  SER90      -0.2863
    122  CB        42.1340   45.5170   15.3670 C.3    90  SER90       0.2116
    123  OG        41.6620   44.2190   15.6980 O.3    90  SER90      -0.2180
    124  N         41.4340   48.2280   20.5610 N.3    92  GLY92      -0.1225
    125  CA        41.0990   49.4530   21.2490 C.3    92  GLY92       0.1811
    126  C         40.8700   49.2730   22.7310 C.2    92  GLY92       0.2280
    127  O         40.5200   50.2440   23.4140 O.2    92  GLY92      -0.2866
@<TRIPOS>BOND
     1     9    10    1
     2    10    13    1
     3    10    11    1
     4    13    14    1
     5    15    14    1
     6    14    16    1
     7    11    12    2
     8    11    17   am
     9     4     3    2
    10    24    25    1
    11    17    18    1
    12     3     2    1
    13     8     6    1
    14     6     7    1
    15     6     5    1
    16    31    29    1
    17    29    28    1
    18    29    30    1
    19    25    28    1
    20    25    26    1
    21    19    18    1
    22    19    20    2
    23     5     2    1
    24    18    21    1
    25     2     1    1
    26    26    27    2
    27    26    32   am
    28    21    23    1
    29    21    22    1
    30    32    33    1
    31    38    39    1
    32    34    33    1
    33    34    35    2
    34    33    36    1
    35    73    74    2
    36    73    72    1
    37    39    40    1
    38    39    42    1
    39    95    96    2
    40    95    94    1
    41    36    37    1
    42    71    72    1
    43    75    72    1
    44    75    76    1
    45    48    47    1
    46    48    49    2
    47    94    93    1
    48    46    40   am
    49    46    47    1
    50    43    45    1
    51    43    42    1
    52    43    44    1
    53    40    41    2
    54    77    76   ar
    55    77    79   ar
    56    50    47    1
    57    50    51    1
    58    93    87   am
    59    76    78   ar
    60   122   123    1
    61   122   119    1
    62    85    86    1
    63    52    53    1
    64    87    86    1
    65    87    88    2
    66    79    80   ar
    67    86    89    1
    68    78    80   ar
    69    78    81   ar
    70   119   118    1
    71   119   120    1
    72    99   100    2
    73    99    98    1
    74    54    53    1
    75    54    55    2
    76    53    56    1
    77   118   114   am
    78   106   107    2
    79   106   105    1
    80    80    82   ar
    81   116   117    1
    82   116   113    1
    83    89    90    1
    84    89    91    1
    85    97    98    1
    86   121   120    2
    87    81    83   ar
    88   110   108    1
    89   108   105    1
    90   108   109    1
    91   114   115    2
    92   114   113    1
    93    98   101    1
    94    90    92    1
    95   104   105    1
    96    56    57    1
    97   101   102    1
    98   101   103    1
    99   111   109    1
   100   113   112    1
   101    57    59    1
   102    57    58    1
   103    82    84   ar
   104    83    84   ar
   105    60    61    1
   106    62    63    2
   107    62    61    1
   108   124   125    1
   109    61    64    1
   110    64    65    1
   111   125   126    1
   112    67    65   ar
   113    67    69   ar
   114    65    66   ar
   115    69    70   ar
   116   126   127    2
   117    66    68   ar
   118    70    68   ar
