@<TRIPOS>MOLECULE
tmp/5l8rA10.pdb
 88 88 0 0 0
SMALL
GASTEIGER

@<TRIPOS>ATOM
      1  N         60.9540   51.1150   40.9270 N.3    66  TRP66      -0.1227
      2  CA        60.8400   49.8870   40.1490 C.3    66  TRP66       0.1737
      3  C         59.4100   49.6150   39.7030 C.2    66  TRP66       0.2595
      4  O         59.2070   48.9070   38.7100 O.2    66  TRP66      -0.2718
      5  CB        61.3750   48.7050   40.9580 C.3    66  TRP66       0.0564
      6  CG        60.5920   48.4210   42.2040 C.ar   66  TRP66       0.0003
      7  CD1       60.5870   49.1520   43.3560 C.ar   66  TRP66       0.0946
      8  CD2       59.7060   47.3170   42.4270 C.ar   66  TRP66       0.0152
      9  NE1       59.7480   48.5770   44.2800 N.ar   66  TRP66      -0.2442
     10  CE2       59.1960   47.4490   43.7340 C.ar   66  TRP66       0.0810
     11  CE3       59.2930   46.2340   41.6470 C.ar   66  TRP66       0.0012
     12  CZ2       58.2950   46.5390   44.2770 C.ar   66  TRP66       0.0191
     13  CZ3       58.4020   45.3320   42.1880 C.ar   66  TRP66       0.0001
     14  CH2       57.9110   45.4900   43.4910 C.ar   66  TRP66       0.0015
     15  N         58.4180   50.1680   40.4020 N.am   67  VAL67      -0.1980
     16  CA        57.0250   49.9700   40.0120 C.3    67  VAL67       0.1595
     17  C         56.6500   50.8990   38.8660 C.2    67  VAL67       0.2287
     18  O         56.0740   50.4670   37.8610 O.2    67  VAL67      -0.2864
     19  CB        56.0970   50.1700   41.2240 C.3    67  VAL67       0.0276
     20  CG1       54.6580   49.8500   40.8470 C.3    67  VAL67       0.0022
     21  CG2       56.5540   49.3110   42.3880 C.3    67  VAL67       0.0022
     22  N         58.9400   43.8300   47.9880 N.3   160  CYS160     -0.1235
     23  CA        57.5780   43.5150   47.5660 C.3   160  CYS160      0.1677
     24  C         56.5850   43.7120   48.7050 C.2   160  CYS160      0.2270
     25  O         55.4870   44.2460   48.4960 O.2   160  CYS160     -0.2867
     26  CB        57.5100   42.0880   47.0290 C.3   160  CYS160      0.0956
     27  SG        58.4830   41.8270   45.5320 S.3   160  CYS160     -0.0801
     28  N         56.1000   47.3030   49.3170 N.3   163  GLN163     -0.1231
     29  CA        55.2800   47.8330   48.2340 C.3   163  GLN163      0.1698
     30  C         53.8070   47.5220   48.4550 C.2   163  GLN163      0.2593
     31  O         52.9360   48.3290   48.1090 O.2   163  GLN163     -0.2718
     32  CB        55.7540   47.2700   46.8940 C.3   163  GLN163      0.0381
     33  CG        55.0690   47.8930   45.6960 C.3   163  GLN163      0.0905
     34  CD        55.1470   49.4060   45.7170 C.2   163  GLN163      0.2608
     35  OE1       54.1350   50.0890   45.8750 O.2   163  GLN163     -0.2717
     36  NE2       56.3550   49.9400   45.5640 N.am  163  GLN163     -0.0878
     37  N         53.5060   46.3560   49.0330 N.am  164  SER164     -0.1938
     38  CA        52.1190   46.0490   49.3610 C.3   164  SER164      0.2055
     39  C         51.6360   46.8460   50.5670 C.2   164  SER164      0.2643
     40  O         50.4490   47.1840   50.6500 O.2   164  SER164     -0.2714
     41  CB        51.9570   44.5540   49.6180 C.3   164  SER164      0.2130
     42  OG        50.6220   44.2460   49.9790 O.3   164  SER164     -0.2179
     43  N         52.5330   47.1530   51.5060 N.am  165  ALA165     -0.1963
     44  CA        52.1840   47.9120   52.6980 C.3   165  ALA165      0.1728
     45  C         52.2210   49.4130   52.4750 C.2   165  ALA165      0.2616
     46  O         51.7840   50.1640   53.3500 O.2   165  ALA165     -0.2715
     47  CB        53.1240   47.5520   53.8470 C.3   165  ALA165      0.0334
     48  N         52.7680   49.8660   51.3520 N.am  166  TYR166     -0.1960
     49  CA        52.7650   51.2850   50.9950 C.3   166  TYR166      0.1756
     50  C         52.6960   51.3760   49.4810 C.2   166  TYR166      0.2461
     51  O         53.7040   51.6160   48.8070 O.2   166  TYR166     -0.2730
     52  CB        54.0020   52.0050   51.5370 C.3   166  TYR166      0.0574
     53  CG        54.1770   51.8870   53.0350 C.ar  166  TYR166     -0.0198
     54  CD1       53.5780   52.7930   53.9020 C.ar  166  TYR166     -0.0009
     55  CD2       54.9380   50.8660   53.5830 C.ar  166  TYR166     -0.0009
     56  CE1       53.7360   52.6820   55.2740 C.ar  166  TYR166      0.0417
     57  CE2       55.0960   50.7460   54.9480 C.ar  166  TYR166      0.0417
     58  CZ        54.4990   51.6560   55.7910 C.ar  166  TYR166      0.1957
     59  OH        54.6650   51.5360   57.1530 O.3   166  TYR166     -0.2866
     60  N         51.5140   51.1600   48.9050 N.am  167  PRO167     -0.2727
     61  CA        51.3940   51.1480   47.4400 C.3   167  PRO167      0.1402
     62  C         51.8940   52.4500   46.8330 C.2   167  PRO167      0.2269
     63  O         51.5380   53.5430   47.2790 O.2   167  PRO167     -0.2865
     64  CB        49.8910   50.9530   47.2120 C.3   167  PRO167      0.0296
     65  CG        49.4120   50.2810   48.4570 C.3   167  PRO167      0.0237
     66  CD        50.2330   50.8660   49.5650 C.3   167  PRO167      0.0939
     67  N         53.1980   49.7960   62.5300 N.3   189  ASN189     -0.1225
     68  CA        51.9540   50.4090   62.0780 C.3   189  ASN189      0.1785
     69  C         51.2710   49.5760   61.0010 C.2   189  ASN189      0.2597
     70  O         50.0370   49.5640   60.9190 O.2   189  ASN189     -0.2718
     71  CB        52.2280   51.8200   61.5710 C.3   189  ASN189      0.1169
     72  CG        52.9470   52.6660   62.5940 C.2   189  ASN189      0.2627
     73  OD1       54.0560   53.1440   62.3550 O.2   189  ASN189     -0.2716
     74  ND2       52.3230   52.8460   63.7520 N.am  189  ASN189     -0.0877
     75  N         52.0440   48.8750   60.1720 N.am  190  VAL190     -0.1980
     76  CA        51.4450   48.0150   59.1580 C.3   190  VAL190      0.1595
     77  C         50.9060   46.7350   59.7840 C.2   190  VAL190      0.2287
     78  O         49.7980   46.2910   59.4610 O.2   190  VAL190     -0.2864
     79  CB        52.4640   47.7220   58.0450 C.3   190  VAL190      0.0276
     80  CG1       51.9530   46.6160   57.1440 C.3   190  VAL190      0.0022
     81  CG2       52.7260   48.9810   57.2390 C.3   190  VAL190      0.0022
     82  N         47.3290   48.2370   62.3480 N.3   193  PRO193     -0.2116
     83  CA        46.6690   49.4470   61.8420 C.3   193  PRO193      0.1372
     84  C         45.9720   50.2480   62.9420 C.2   193  PRO193      0.2244
     85  O         46.1300   51.4710   62.9860 O.2   193  PRO193     -0.2868
     86  CB        45.6500   48.8950   60.8390 C.3   193  PRO193      0.0268
     87  CG        46.2020   47.5670   60.4290 C.3   193  PRO193      0.0207
     88  CD        46.8480   47.0230   61.6670 C.3   193  PRO193      0.0892
@<TRIPOS>BOND
     1    18    17    2
     2     4     3    2
     3    17    16    1
     4     3     2    1
     5     3    15   am
     6    16    15    1
     7    16    19    1
     8     2     1    1
     9     2     5    1
    10    20    19    1
    11     5     6    1
    12    19    21    1
    13    11    13   ar
    14    11     8   ar
    15    13    14   ar
    16     6     8   ar
    17     6     7   ar
    18     8    10   ar
    19     7     9   ar
    20    14    12   ar
    21    10    12   ar
    22    10     9   ar
    23    27    26    1
    24    36    34   am
    25    33    34    1
    26    33    32    1
    27    34    35    2
    28    62    63    2
    29    62    61    1
    30    32    29    1
    31    26    23    1
    32    64    61    1
    33    64    65    1
    34    61    60    1
    35    23    22    1
    36    23    24    1
    37    31    30    2
    38    29    30    1
    39    29    28    1
    40    30    37   am
    41    65    66    1
    42    25    24    2
    43    51    50    2
    44    60    50   am
    45    60    66    1
    46    37    38    1
    47    38    41    1
    48    38    39    1
    49    50    49    1
    50    41    42    1
    51    39    40    2
    52    39    43   am
    53    49    48    1
    54    49    52    1
    55    48    45   am
    56    43    44    1
    57    52    53    1
    58    45    44    1
    59    45    46    2
    60    44    47    1
    61    53    55   ar
    62    53    54   ar
    63    55    57   ar
    64    54    56   ar
    65    57    58   ar
    66    56    58   ar
    67    58    59    1
    68    80    79    1
    69    81    79    1
    70    79    76    1
    71    76    77    1
    72    76    75    1
    73    78    77    2
    74    75    69   am
    75    87    86    1
    76    87    88    1
    77    86    83    1
    78    70    69    2
    79    69    68    1
    80    71    68    1
    81    71    72    1
    82    88    82    1
    83    83    82    1
    84    83    84    1
    85    68    67    1
    86    73    72    2
    87    72    74   am
    88    84    85    2
