@<TRIPOS>MOLECULE
tmp/5l8rB16.pdb
 96 98 0 0 0
SMALL
GASTEIGER

@<TRIPOS>ATOM
      1  N         25.2870   18.6740  117.2680 N.3    55  TRP55      -0.1241
      2  CA        24.6440   19.8700  116.7290 C.3    55  TRP55       0.1605
      3  C         23.2240   20.0170  117.2510 C.2    55  TRP55       0.2264
      4  O         22.7790   21.1280  117.5550 O.2    55  TRP55      -0.2867
      5  CB        24.6240   19.8310  115.2040 C.3    55  TRP55       0.0550
      6  CG        25.9220   20.1530  114.5540 C.ar   55  TRP55       0.0003
      7  CD1       26.5850   19.3930  113.6400 C.ar   55  TRP55       0.0946
      8  CD2       26.7170   21.3280  114.7520 C.ar   55  TRP55       0.0152
      9  NE1       27.7480   20.0140  113.2570 N.ar   55  TRP55      -0.2442
     10  CE2       27.8510   21.2070  113.9240 C.ar   55  TRP55       0.0810
     11  CE3       26.5830   22.4700  115.5490 C.ar   55  TRP55       0.0012
     12  CZ2       28.8440   22.1800  113.8730 C.ar   55  TRP55       0.0191
     13  CZ3       27.5690   23.4330  115.4960 C.ar   55  TRP55       0.0001
     14  CH2       28.6850   23.2830  114.6640 C.ar   55  TRP55       0.0015
     15  N         23.3320   21.2850  120.9470 N.3    58  LEU58      -0.1245
     16  CA        23.5670   22.7260  120.9580 C.3    58  LEU58       0.1561
     17  C         22.3370   23.4860  120.4740 C.2    58  LEU58       0.2260
     18  O         21.9850   24.5370  121.0250 O.2    58  LEU58      -0.2867
     19  CB        24.7800   23.0660  120.0930 C.3    58  LEU58       0.0270
     20  CG        26.1200   22.5140  120.5730 C.3    58  LEU58       0.0019
     21  CD1       27.1930   22.7520  119.5250 C.3    58  LEU58       0.0001
     22  CD2       26.5080   23.1480  121.8960 C.3    58  LEU58       0.0001
     23  N         34.3170   29.2890  105.9540 N.3   101  VAL101     -0.1231
     24  CA        35.7730   29.1820  105.9550 C.3   101  VAL101      0.1692
     25  C         36.2520   28.4540  107.2050 C.2   101  VAL101      0.2592
     26  O         36.9250   27.4190  107.1220 O.2   101  VAL101     -0.2718
     27  CB        36.4220   30.5690  105.8250 C.3   101  VAL101      0.0266
     28  CG1       37.9020   30.4860  106.1480 C.3   101  VAL101      0.0020
     29  CG2       36.2140   31.1060  104.4190 C.3   101  VAL101      0.0020
     30  N         35.9020   28.9760  108.3840 N.am  102  PHE102     -0.1962
     31  CA        36.4110   28.3830  109.6210 C.3   102  PHE102      0.1771
     32  C         35.8350   26.9850  109.8490 C.2   102  PHE102      0.2619
     33  O         36.5790   26.0150  110.0790 O.2   102  PHE102     -0.2715
     34  CB        36.1020   29.3050  110.8010 C.3   102  PHE102      0.0574
     35  CG        36.8380   30.6220  110.7540 C.ar  102  PHE102     -0.0200
     36  CD1       38.1280   30.7340  111.2520 C.ar  102  PHE102     -0.0042
     37  CD2       36.2400   31.7480  110.2140 C.ar  102  PHE102     -0.0042
     38  CE1       38.8050   31.9420  111.2110 C.ar  102  PHE102     -0.0003
     39  CE2       36.9140   32.9590  110.1700 C.ar  102  PHE102     -0.0003
     40  CZ        38.1950   33.0550  110.6700 C.ar  102  PHE102     -0.0000
     41  N         34.5050   26.8640  109.7870 N.am  103  ILE103     -0.1977
     42  CA        33.8600   25.5560  109.8680 C.3   103  ILE103      0.1596
     43  C         34.3740   24.6370  108.7700 C.2   103  ILE103      0.2287
     44  O         34.5050   23.4260  108.9760 O.2   103  ILE103     -0.2864
     45  CB        32.3270   25.7140  109.8060 C.3   103  ILE103      0.0276
     46  CG1       31.8230   26.5370  110.9900 C.3   103  ILE103      0.0022
     47  CG2       31.6410   24.3570  109.7910 C.3   103  ILE103      0.0022
     48  CD1       31.9900   25.8520  112.3170 C.3   103  ILE103      0.0001
     49  N         37.4190   24.5730  107.6660 N.3   105  TRP105     -0.1227
     50  CA        38.6810   24.0520  108.1830 C.3   105  TRP105      0.1737
     51  C         38.4350   22.9060  109.1540 C.2   105  TRP105      0.2595
     52  O         38.9670   21.7980  108.9810 O.2   105  TRP105     -0.2718
     53  CB        39.4680   25.1700  108.8650 C.3   105  TRP105      0.0564
     54  CG        40.8010   24.7360  109.3840 C.ar  105  TRP105      0.0003
     55  CD1       41.0810   24.2230  110.6220 C.ar  105  TRP105      0.0946
     56  CD2       42.0440   24.7860  108.6820 C.ar  105  TRP105      0.0152
     57  NE1       42.4240   23.9490  110.7280 N.ar  105  TRP105     -0.2442
     58  CE2       43.0360   24.2860  109.5500 C.ar  105  TRP105      0.0810
     59  CE3       42.4150   25.2060  107.4010 C.ar  105  TRP105      0.0012
     60  CZ2       44.3700   24.1940  109.1760 C.ar  105  TRP105      0.0191
     61  CZ3       43.7360   25.1150  107.0340 C.ar  105  TRP105      0.0001
     62  CH2       44.6970   24.6100  107.9160 C.ar  105  TRP105      0.0015
     63  N         37.6210   23.1550  110.1860 N.am  106  ALA106     -0.1980
     64  CA        37.3620   22.1230  111.1900 C.3   106  ALA106      0.1597
     65  C         36.8110   20.8490  110.5530 C.2   106  ALA106      0.2287
     66  O         37.3520   19.7510  110.7480 O.2   106  ALA106     -0.2864
     67  CB        36.3960   22.6570  112.2480 C.3   106  ALA106      0.0319
     68  N         49.6220   21.7550  112.7250 N.3   124  PRO124     -0.2102
     69  CA        50.5270   22.0230  111.5990 C.3   124  PRO124      0.1504
     70  C         51.4620   23.1970  111.8220 C.2   124  PRO124      0.2575
     71  O         52.2840   23.4800  110.9440 O.2   124  PRO124     -0.2718
     72  CB        49.5610   22.3060  110.4440 C.3   124  PRO124      0.0282
     73  CG        48.3510   22.8430  111.1110 C.3   124  PRO124      0.0208
     74  CD        48.2280   22.0850  112.3970 C.3   124  PRO124      0.0893
     75  N         51.3600   23.8940  112.9510 N.am  125  ILE125     -0.1980
     76  CA        52.2800   24.9730  113.3050 C.3   125  ILE125      0.1595
     77  C         53.1240   24.5980  114.5180 C.2   125  ILE125      0.2287
     78  O         54.3540   24.6250  114.4610 O.2   125  ILE125     -0.2864
     79  CB        51.5230   26.3000  113.5400 C.3   125  ILE125      0.0276
     80  CG1       50.7520   26.7120  112.2870 C.3   125  ILE125      0.0022
     81  CG2       52.4940   27.3950  113.9440 C.3   125  ILE125      0.0022
     82  CD1       49.8630   27.9190  112.4880 C.3   125  ILE125      0.0001
     83  N         42.1200   20.6220  123.7610 N.3   143  TRP143     -0.1241
     84  CA        41.0400   21.4450  123.2270 C.3   143  TRP143      0.1605
     85  C         39.6820   20.7860  123.4270 C.2   143  TRP143      0.2264
     86  O         38.7430   21.4140  123.9280 O.2   143  TRP143     -0.2867
     87  CB        41.2780   21.7180  121.7440 C.3   143  TRP143      0.0550
     88  CG        42.2670   22.7920  121.4850 C.ar  143  TRP143      0.0003
     89  CD1       43.1200   23.3580  122.3860 C.ar  143  TRP143      0.0946
     90  CD2       42.5030   23.4470  120.2380 C.ar  143  TRP143      0.0152
     91  NE1       43.8790   24.3250  121.7730 N.ar  143  TRP143     -0.2442
     92  CE2       43.5170   24.4000  120.4540 C.ar  143  TRP143      0.0810
     93  CE3       41.9550   23.3200  118.9580 C.ar  143  TRP143      0.0012
     94  CZ2       43.9930   25.2240  119.4390 C.ar  143  TRP143      0.0191
     95  CZ3       42.4310   24.1350  117.9490 C.ar  143  TRP143      0.0001
     96  CH2       43.4420   25.0750  118.1950 C.ar  143  TRP143      0.0015
@<TRIPOS>BOND
     1    29    27    1
     2    27    24    1
     3    27    28    1
     4    23    24    1
     5    24    25    1
     6    61    59   ar
     7    61    62   ar
     8    26    25    2
     9    25    30   am
    10    59    56   ar
    11    49    50    1
    12    62    60   ar
    13    50    53    1
    14    50    51    1
    15    30    31    1
    16    56    54   ar
    17    56    58   ar
    18    43    44    2
    19    43    42    1
    20    53    54    1
    21    52    51    2
    22    51    63   am
    23    60    58   ar
    24    54    55   ar
    25    58    57   ar
    26    31    32    1
    27    31    34    1
    28    41    32   am
    29    41    42    1
    30    47    45    1
    31    45    42    1
    32    45    46    1
    33    32    33    2
    34    39    37   ar
    35    39    40   ar
    36    63    64    1
    37    37    35   ar
    38    72    73    1
    39    72    69    1
    40    65    66    2
    41    65    64    1
    42    55    57   ar
    43    40    38   ar
    44    35    34    1
    45    35    36   ar
    46    71    70    2
    47    46    48    1
    48    73    74    1
    49    64    67    1
    50    38    36   ar
    51    69    70    1
    52    69    68    1
    53    70    75   am
    54    80    82    1
    55    80    79    1
    56    74    68    1
    57    75    76    1
    58     9     7   ar
    59     9    10   ar
    60    76    79    1
    61    76    77    1
    62    79    81    1
    63     7     6   ar
    64    12    10   ar
    65    12    14   ar
    66    10     8   ar
    67    78    77    2
    68     6     8   ar
    69     6     5    1
    70    14    13   ar
    71     8    11   ar
    72     5     2    1
    73    13    11   ar
    74     2     3    1
    75     2     1    1
    76     3     4    2
    77    95    96   ar
    78    95    93   ar
    79    96    94   ar
    80    93    90   ar
    81    94    92   ar
    82    21    20    1
    83    19    20    1
    84    19    16    1
    85    90    92   ar
    86    90    88   ar
    87    92    91   ar
    88    17    16    1
    89    17    18    2
    90    20    22    1
    91    15    16    1
    92    88    87    1
    93    88    89   ar
    94    87    84    1
    95    91    89   ar
    96    84    85    1
    97    84    83    1
    98    85    86    2
