@<TRIPOS>MOLECULE
tmp/5l8rE07.pdb
 160 156 0 0 0
SMALL
GASTEIGER

@<TRIPOS>ATOM
      1  N        -36.3490    4.3950   86.1020 N.3   267  THR267     -0.1203
      2  CA       -37.1420    4.6920   84.9200 C.3   267  THR267      0.1994
      3  C        -36.5690    3.9920   83.6960 C.2   267  THR267      0.2617
      4  O        -35.3910    3.6310   83.6490 O.2   267  THR267     -0.2717
      5  CB       -37.2140    6.2080   84.6770 C.3   267  THR267      0.1784
      6  OG1      -37.2520    6.8900   85.9360 O.3   267  THR267     -0.2211
      7  CG2      -38.4680    6.5610   83.9050 C.3   267  THR267      0.0376
      8  N        -37.4360    3.7980   82.7010 N.am  268  PHE268     -0.1975
      9  CA       -37.0780    3.2090   81.4170 C.3   268  PHE268      0.1639
     10  C        -37.3530    4.1880   80.2770 C.2   268  PHE268      0.2290
     11  O        -37.6730    3.7790   79.1600 O.2   268  PHE268     -0.2864
     12  CB       -37.8340    1.8950   81.2030 C.3   268  PHE268      0.0560
     13  CG       -37.1640    0.9450   80.2390 C.ar  268  PHE268     -0.0200
     14  CD1      -36.1440    0.1090   80.6650 C.ar  268  PHE268     -0.0042
     15  CD2      -37.5700    0.8730   78.9160 C.ar  268  PHE268     -0.0042
     16  CE1      -35.5320   -0.7670   79.7830 C.ar  268  PHE268     -0.0003
     17  CE2      -36.9590    0.0040   78.0300 C.ar  268  PHE268     -0.0003
     18  CZ       -35.9410   -0.8200   78.4660 C.ar  268  PHE268     -0.0000
     19  N        -35.4310    6.2930   78.4890 N.3   270  GLY270     -0.1225
     20  CA       -34.5240    6.2790   77.3610 C.3   270  GLY270      0.1811
     21  C        -34.3650    7.6630   76.7580 C.2   270  GLY270      0.2280
     22  O        -34.9040    8.6610   77.2370 O.2   270  GLY270     -0.2866
     23  N        -27.6570   10.8390   79.2550 N.3   279  LEU279     -0.1231
     24  CA       -28.6900    9.8530   79.5310 C.3   279  LEU279      0.1693
     25  C        -29.3210   10.1010   80.8960 C.2   279  LEU279      0.2592
     26  O        -28.6840   10.6210   81.8170 O.2   279  LEU279     -0.2718
     27  CB       -28.1100    8.4390   79.4740 C.3   279  LEU279      0.0284
     28  CG       -27.5430    7.9830   78.1270 C.3   279  LEU279      0.0019
     29  CD1      -26.8620    6.6340   78.2610 C.3   279  LEU279      0.0001
     30  CD2      -28.6370    7.9320   77.0720 C.3   279  LEU279      0.0001
     31  N        -30.5900    9.7190   81.0190 N.am  280  TRP280     -0.1976
     32  CA       -31.3230    9.9100   82.2640 C.3   280  TRP280      0.1640
     33  C        -30.6830    9.1100   83.3910 C.2   280  TRP280      0.2290
     34  O        -30.5120    7.8910   83.2810 O.2   280  TRP280     -0.2864
     35  CB       -32.7800    9.4970   82.0790 C.3   280  TRP280      0.0576
     36  CG       -33.5400   10.3670   81.1280 C.ar  280  TRP280      0.0006
     37  CD1      -33.8170   10.1060   79.8170 C.ar  280  TRP280      0.0946
     38  CD2      -34.1290   11.6410   81.4160 C.ar  280  TRP280      0.0152
     39  NE1      -34.5430   11.1390   79.2710 N.ar  280  TRP280     -0.2442
     40  CE2      -34.7460   12.0940   80.2330 C.ar  280  TRP280      0.0810
     41  CE3      -34.1930   12.4430   82.5600 C.ar  280  TRP280      0.0012
     42  CZ2      -35.4140   13.3140   80.1600 C.ar  280  TRP280      0.0191
     43  CZ3      -34.8620   13.6500   82.4880 C.ar  280  TRP280      0.0001
     44  CH2      -35.4620   14.0760   81.2960 C.ar  280  TRP280      0.0015
     45  N        -32.6840    6.1860   84.5500 N.3   283  ASP283     -0.1225
     46  CA       -32.4360    5.0350   83.6910 C.3   283  ASP283      0.1805
     47  C        -31.1030    4.3720   84.0080 C.2   283  ASP283      0.2597
     48  O        -30.9820    3.1470   83.9040 O.2   283  ASP283     -0.2718
     49  CB       -32.4710    5.4640   82.2240 C.3   283  ASP283      0.1424
     50  CG       -33.8280    5.9740   81.7960 C.2   283  ASP283      0.3668
     51  OD1      -34.6760    6.2350   82.6740 O.co2 283  ASP283     -0.2456
     52  OD2      -34.0420    6.1210   80.5750 O.co2 283  ASP283     -0.2456
     53  N        -30.0970    5.1570   84.4010 N.am  284  ILE284     -0.1980
     54  CA       -28.7670    4.6000   84.6340 C.3   284  ILE284      0.1595
     55  C        -28.7170    3.8360   85.9530 C.2   284  ILE284      0.2287
     56  O        -28.1470    2.7420   86.0240 O.2   284  ILE284     -0.2864
     57  CB       -27.7060    5.7140   84.5770 C.3   284  ILE284      0.0276
     58  CG1      -27.6100    6.2840   83.1580 C.3   284  ILE284      0.0022
     59  CG2      -26.3570    5.1890   85.0330 C.3   284  ILE284      0.0022
     60  CD1      -26.4470    7.2360   82.9490 C.3   284  ILE284      0.0001
     61  N        -31.3540    2.4900   87.5180 N.3   286  HIS286     -0.1226
     62  CA       -32.1360    1.2990   87.2030 C.3   286  HIS286      0.1752
     63  C        -31.2990    0.2860   86.4280 C.2   286  HIS286      0.2596
     64  O        -31.3460   -0.9240   86.6970 O.2   286  HIS286     -0.2718
     65  CB       -33.3770    1.7030   86.4060 C.3   286  HIS286      0.0759
     66  CG       -34.4290    0.6450   86.3530 C.ar  286  HIS286      0.0818
     67  ND1      -34.5620   -0.3130   87.3340 N.ar  286  HIS286     -0.2268
     68  CD2      -35.3950    0.3880   85.4410 C.ar  286  HIS286      0.1154
     69  CE1      -35.5670   -1.1130   87.0300 C.ar  286  HIS286      0.1986
     70  NE2      -36.0870   -0.7130   85.8840 N.ar  286  HIS286     -0.2212
     71  N        -30.4980    0.7800   85.4810 N.am  287  HIS287     -0.1975
     72  CA       -29.6380   -0.0780   84.6740 C.3   287  HIS287      0.1656
     73  C        -28.6390   -0.8400   85.5360 C.2   287  HIS287      0.2291
     74  O        -28.5390   -2.0680   85.4470 O.2   287  HIS287     -0.2864
     75  CB       -28.9090    0.7710   83.6380 C.3   287  HIS287      0.0771
     76  CG       -27.7110    0.1040   83.0450 C.ar  287  HIS287      0.0820
     77  ND1      -27.8090   -0.9220   82.1330 N.ar  287  HIS287     -0.2267
     78  CD2      -26.3870    0.3180   83.2310 C.ar  287  HIS287      0.1154
     79  CE1      -26.5980   -1.3060   81.7740 C.ar  287  HIS287      0.1986
     80  NE2      -25.7180   -0.5730   82.4300 N.ar  287  HIS287     -0.2212
     81  N        -30.3590   -3.6240   87.4480 N.3   290  ALA290     -0.1231
     82  CA       -30.6540   -4.8020   86.6330 C.3   290  ALA290      0.1694
     83  C        -29.3880   -5.6020   86.3380 C.2   290  ALA290      0.2591
     84  O        -29.3600   -6.8290   86.5040 O.2   290  ALA290     -0.2718
     85  CB       -31.3450   -4.3810   85.3350 C.3   290  ALA290      0.0304
     86  N        -28.3270   -4.9170   85.9020 N.am  291  ILE291     -0.1980
     87  CA       -27.0460   -5.5730   85.6460 C.3   291  ILE291      0.1595
     88  C        -26.5650   -6.3130   86.8870 C.2   291  ILE291      0.2287
     89  O        -26.0960   -7.4580   86.8060 O.2   291  ILE291     -0.2864
     90  CB       -26.0090   -4.5380   85.1700 C.3   291  ILE291      0.0276
     91  CG1      -26.4400   -3.9350   83.8380 C.3   291  ILE291      0.0022
     92  CG2      -24.6280   -5.1590   85.0500 C.3   291  ILE291      0.0022
     93  CD1      -26.6700   -4.9600   82.7660 C.3   291  ILE291      0.0001
     94  N        -28.4280   -9.5110   87.1730 N.3   294  LEU294     -0.1231
     95  CA       -28.0430  -10.4670   86.1370 C.3   294  LEU294      0.1693
     96  C        -26.7140  -11.1380   86.4620 C.2   294  LEU294      0.2592
     97  O        -26.5760  -12.3590   86.3120 O.2   294  LEU294     -0.2718
     98  CB       -27.9720   -9.7740   84.7750 C.3   294  LEU294      0.0284
     99  CG       -27.7220  -10.7010   83.5810 C.3   294  LEU294      0.0019
    100  CD1      -28.8140  -11.7560   83.5000 C.3   294  LEU294      0.0001
    101  CD2      -27.6360   -9.9160   82.2810 C.3   294  LEU294      0.0001
    102  N        -25.7270  -10.3620   86.9190 N.am  295  PHE295     -0.1976
    103  CA       -24.4180  -10.9410   87.2080 C.3   295  PHE295      0.1639
    104  C        -24.4360  -11.7560   88.4940 C.2   295  PHE295      0.2290
    105  O        -23.7880  -12.8090   88.5770 O.2   295  PHE295     -0.2864
    106  CB       -23.3620   -9.8430   87.2790 C.3   295  PHE295      0.0560
    107  CG       -22.8040   -9.4660   85.9450 C.ar  295  PHE295     -0.0200
    108  CD1      -22.0070  -10.3520   85.2390 C.ar  295  PHE295     -0.0042
    109  CD2      -23.0760   -8.2300   85.3930 C.ar  295  PHE295     -0.0042
    110  CE1      -21.4940  -10.0120   84.0060 C.ar  295  PHE295     -0.0003
    111  CE2      -22.5630   -7.8800   84.1620 C.ar  295  PHE295     -0.0003
    112  CZ       -21.7680   -8.7720   83.4680 C.ar  295  PHE295     -0.0000
    113  N        -16.8310   -1.4500   71.1170 N.3   356  ILE356     -0.1245
    114  CA       -18.2670   -1.3140   71.3540 C.3   356  ILE356      0.1561
    115  C        -18.5500   -0.1510   72.3010 C.2   356  ILE356      0.2260
    116  O        -19.5160    0.6040   72.1160 O.2   356  ILE356     -0.2867
    117  CB       -18.8370   -2.6420   71.8830 C.3   356  ILE356      0.0252
    118  CG1      -18.7010   -3.7220   70.8110 C.3   356  ILE356      0.0019
    119  CG2      -20.2910   -2.4810   72.3070 C.3   356  ILE356      0.0019
    120  CD1      -19.0260   -5.0960   71.3020 C.3   356  ILE356      0.0001
    121  N        -21.0180    3.0980   71.7680 N.3   360  HIS360     -0.1226
    122  CA       -22.1730    3.3270   72.6270 C.3   360  HIS360      0.1752
    123  C        -22.0670    4.6340   73.4010 C.2   360  HIS360      0.2595
    124  O        -23.0970    5.2300   73.7390 O.2   360  HIS360     -0.2718
    125  CB       -22.3550    2.1480   73.5780 C.3   360  HIS360      0.0759
    126  CG       -22.7980    0.8940   72.8950 C.ar  360  HIS360      0.0818
    127  ND1      -23.1740   -0.2390   73.5850 N.ar  360  HIS360     -0.2268
    128  CD2      -22.9280    0.5960   71.5810 C.ar  360  HIS360      0.1154
    129  CE1      -23.5180   -1.1800   72.7250 C.ar  360  HIS360      0.1986
    130  NE2      -23.3740   -0.7010   71.5030 N.ar  360  HIS360     -0.2212
    131  N        -20.8490    5.1090   73.6770 N.am  361  MET361     -0.1979
    132  CA       -20.7180    6.3440   74.4430 C.3   361  MET361      0.1605
    133  C        -21.0260    7.5840   73.6120 C.2   361  MET361      0.2287
    134  O        -21.5260    8.5720   74.1610 O.2   361  MET361     -0.2864
    135  CB       -19.3240    6.4440   75.0600 C.3   361  MET361      0.0413
    136  CG       -19.0670    5.3770   76.1150 C.3   361  MET361      0.0598
    137  SD       -17.6140    5.6830   77.1380 S.3   361  MET361     -0.1393
    138  CE       -18.1480    7.1290   78.0470 C.3   361  MET361      0.0692
    139  N        -24.9750    7.3170   72.8280 N.3   364  MET364     -0.1245
    140  CA       -25.7740    7.3890   74.0520 C.3   364  MET364      0.1570
    141  C        -24.9190    8.0530   75.1170 C.2   364  MET364      0.2261
    142  O        -24.3980    7.3880   76.0220 O.2   364  MET364     -0.2867
    143  CB       -26.2310    6.0000   74.5070 C.3   364  MET364      0.0387
    144  CG       -27.1710    5.2750   73.5560 C.3   364  MET364      0.0595
    145  SD       -27.1030    3.4750   73.7230 S.3   364  MET364     -0.1393
    146  CE       -28.5380    3.0270   72.7700 C.3   364  MET364      0.0692
    147  N        -23.4150    9.2130   78.2030 N.3   366  PRO366     -0.2116
    148  CA       -23.8550    8.8180   79.5470 C.3   366  PRO366      0.1372
    149  C        -23.6580    9.8870   80.6120 C.2   366  PRO366      0.2244
    150  O        -24.2660    9.8110   81.6840 O.2   366  PRO366     -0.2868
    151  CB       -22.9900    7.5880   79.8310 C.3   366  PRO366      0.0268
    152  CG       -21.7190    7.8720   79.0990 C.3   366  PRO366      0.0207
    153  CD       -22.1130    8.6200   77.8510 C.3   366  PRO366      0.0892
    154  N        -34.2360    4.4450   71.6090 N.3   496  THR496     -0.1218
    155  CA       -33.0710    3.9550   72.3380 C.3   496  THR496      0.1862
    156  C        -31.9100    4.9380   72.2680 C.2   496  THR496      0.2287
    157  O        -31.1430    5.0700   73.2290 O.2   496  THR496     -0.2866
    158  CB       -32.6520    2.6010   71.7710 C.3   496  THR496      0.1770
    159  OG1      -33.8260    1.8440   71.4550 O.3   496  THR496     -0.2211
    160  CG2      -31.8170    1.8300   72.7750 C.3   496  THR496      0.0375
@<TRIPOS>BOND
     1   118   120    1
     2   118   117    1
     3   113   114    1
     4   114   117    1
     5   114   115    1
     6   159   158    1
     7   130   128   ar
     8   130   129   ar
     9   128   126   ar
    10   154   155    1
    11   121   122    1
    12   158   155    1
    13   158   160    1
    14   117   119    1
    15   116   115    2
    16   156   155    1
    17   156   157    2
    18   122   123    1
    19   122   125    1
    20   129   127   ar
    21   146   145    1
    22   139   140    1
    23   126   125    1
    24   126   127   ar
    25   123   131   am
    26   123   124    2
    27   144   145    1
    28   144   143    1
    29   133   134    2
    30   133   132    1
    31   131   132    1
    32   140   143    1
    33   140   141    1
    34   132   135    1
    35   135   136    1
    36   141   142    2
    37   136   137    1
    38    21    22    2
    39    21    20    1
    40    30    28    1
    41   137   138    1
    42    20    19    1
    43   153   147    1
    44   153   152    1
    45    17    18   ar
    46    17    15   ar
    47    28    29    1
    48    28    27    1
    49   147   148    1
    50    18    16   ar
    51    15    13   ar
    52   152   151    1
    53    11    10    2
    54    23    24    1
    55    39    37   ar
    56    39    40   ar
    57    27    24    1
    58    24    25    1
    59   148   151    1
    60   148   149    1
    61    16    14   ar
    62    37    36   ar
    63    42    40   ar
    64    42    44   ar
    65    40    38   ar
    66    13    14   ar
    67    13    12    1
    68    10     9    1
    69    52    50   ar
    70   149   150    2
    71    25    31   am
    72    25    26    2
    73    31    32    1
    74    36    38   ar
    75    36    35    1
    76    12     9    1
    77    44    43   ar
    78    38    41   ar
    79     9     8    1
    80    79    77   ar
    81    79    80   ar
    82    50    49    1
    83    50    51   ar
    84    35    32    1
    85    77    76   ar
    86    49    46    1
    87    32    33    1
    88   101    99    1
    89    80    78   ar
    90    43    41   ar
    91     8     3   am
    92    93    91    1
    93    60    58    1
    94    76    78   ar
    95    76    75    1
    96    58    57    1
    97    34    33    2
    98   112   110   ar
    99   112   111   ar
   100   100    99    1
   101    99    98    1
   102    75    72    1
   103     4     3    2
   104    46    47    1
   105    46    45    1
   106     3     2    1
   107    91    90    1
   108    48    47    2
   109     7     5    1
   110   110   108   ar
   111    47    53   am
   112   111   109   ar
   113    53    54    1
   114    57    54    1
   115    57    59    1
   116    54    55    1
   117    72    71    1
   118    72    73    1
   119     5     2    1
   120     5     6    1
   121    98    95    1
   122     2     1    1
   123    92    90    1
   124    90    87    1
   125   108   107   ar
   126    85    82    1
   127   109   107   ar
   128    68    70   ar
   129    68    66   ar
   130    74    73    2
   131    71    63   am
   132    87    86    1
   133    87    88    1
   134    70    69   ar
   135    86    83   am
   136   107   106    1
   137    55    56    2
   138    95    96    1
   139    95    94    1
   140    97    96    2
   141    83    84    2
   142    83    82    1
   143    66    65    1
   144    66    67   ar
   145    65    62    1
   146    63    64    2
   147    63    62    1
   148    96   102   am
   149    82    81    1
   150    89    88    2
   151   102   103    1
   152    69    67   ar
   153    62    61    1
   154   103   106    1
   155   103   104    1
   156   104   105    2
