@<TRIPOS>MOLECULE
tmp/5l8rK00.pdb
 80 78 0 0 0
SMALL
GASTEIGER

@<TRIPOS>ATOM
      1  N         48.4640   31.0490   15.2340 N.3    80  ILE80      -0.1231
      2  CA        47.6310   31.3530   16.3950 C.3    80  ILE80       0.1692
      3  C         48.1790   32.5630   17.1470 C.2    80  ILE80       0.2591
      4  O         47.4220   33.4530   17.5570 O.2    80  ILE80      -0.2718
      5  CB        47.5150   30.1100   17.2960 C.3    80  ILE80       0.0266
      6  CG1       46.7410   29.0130   16.5600 C.3    80  ILE80       0.0019
      7  CG2       46.8400   30.4600   18.6140 C.3    80  ILE80       0.0020
      8  CD1       46.8110   27.6520   17.2150 C.3    80  ILE80       0.0001
      9  N         49.4990   32.6200   17.3350 N.am   81  VAL81      -0.1980
     10  CA        50.1250   33.8150   17.8940 C.3    81  VAL81       0.1595
     11  C         49.9020   35.0070   16.9740 C.2    81  VAL81       0.2287
     12  O         49.6430   36.1260   17.4330 O.2    81  VAL81      -0.2864
     13  CB        51.6270   33.5660   18.1380 C.3    81  VAL81       0.0276
     14  CG1       52.2960   34.8170   18.6920 C.3    81  VAL81       0.0022
     15  CG2       51.8300   32.3840   19.0680 C.3    81  VAL81       0.0022
     16  N         46.5170   36.1900   17.1550 N.3    84  TYR84      -0.1227
     17  CA        46.3750   36.7520   18.4900 C.3    84  TYR84       0.1736
     18  C         46.8430   38.2020   18.5220 C.2    84  TYR84       0.2595
     19  O         46.1470   39.0780   19.0460 O.2    84  TYR84      -0.2718
     20  CB        47.1480   35.9220   19.5150 C.3    84  TYR84       0.0548
     21  CG        47.0930   36.5600   20.8780 C.ar   84  TYR84      -0.0200
     22  CD1       46.0030   36.3530   21.7150 C.ar   84  TYR84      -0.0009
     23  CD2       48.1070   37.4090   21.3110 C.ar   84  TYR84      -0.0009
     24  CE1       45.9350   36.9540   22.9510 C.ar   84  TYR84       0.0417
     25  CE2       48.0460   38.0180   22.5420 C.ar   84  TYR84       0.0417
     26  CZ        46.9590   37.7880   23.3580 C.ar   84  TYR84       0.1957
     27  OH        46.8980   38.3950   24.5870 O.3    84  TYR84      -0.2866
     28  N         48.0310   38.4710   17.9770 N.am   85  ILE85      -0.1980
     29  CA        48.5660   39.8280   17.9960 C.3    85  ILE85       0.1595
     30  C         47.7480   40.7370   17.0860 C.2    85  ILE85       0.2287
     31  O         47.5310   41.9180   17.3920 O.2    85  ILE85      -0.2864
     32  CB        50.0560   39.8130   17.6080 C.3    85  ILE85       0.0276
     33  CG1       50.8410   38.9250   18.5760 C.3    85  ILE85       0.0022
     34  CG2       50.6270   41.2280   17.5930 C.3    85  ILE85       0.0022
     35  CD1       52.3100   38.7880   18.2320 C.3    85  ILE85       0.0001
     36  N         44.3650   41.3260   18.8300 N.3    88  THR88      -0.1203
     37  CA        44.5870   42.0940   20.0440 C.3    88  THR88       0.1994
     38  C         45.0540   43.5190   19.7600 C.2    88  THR88       0.2618
     39  O         44.9070   44.3900   20.6260 O.2    88  THR88      -0.2717
     40  CB        45.5940   41.3660   20.9390 C.3    88  THR88       0.1784
     41  OG1       45.3950   41.7520   22.3030 O.3    88  THR88      -0.2211
     42  CG2       47.0130   41.6980   20.5360 C.3    88  THR88       0.0376
     43  N         45.5950   43.7810   18.5680 N.am   89  SER89      -0.1951
     44  CA        46.0290   45.1340   18.2390 C.3    89  SER89       0.1924
     45  C         44.8590   46.0150   17.8130 C.2    89  SER89       0.2314
     46  O         44.7990   47.1920   18.1830 O.2    89  SER89      -0.2863
     47  CB        47.0940   45.0890   17.1440 C.3    89  SER89       0.2116
     48  OG        48.2260   44.3550   17.5770 O.3    89  SER89      -0.2180
     49  N         41.9630   45.8880   18.9000 N.3    91  ASN91      -0.1225
     50  CA        40.9670   45.9170   19.9670 C.3    91  ASN91       0.1785
     51  C         40.4970   47.3360   20.2550 C.2    91  ASN91       0.2598
     52  O         39.2970   47.6330   20.2070 O.2    91  ASN91      -0.2718
     53  CB        41.5390   45.2950   21.2410 C.3    91  ASN91       0.1169
     54  CG        41.4110   43.7920   21.2670 C.2    91  ASN91       0.2627
     55  OD1       42.2470   43.1020   21.8440 O.2    91  ASN91      -0.2716
     56  ND2       40.3590   43.2750   20.6480 N.am   91  ASN91      -0.0877
     57  N         41.4340   48.2280   20.5610 N.am   92  GLY92      -0.1942
     58  CA        41.0990   49.4530   21.2490 C.3    92  GLY92       0.2014
     59  C         40.8700   49.2730   22.7310 C.2    92  GLY92       0.2639
     60  O         40.5200   50.2440   23.4140 O.2    92  GLY92      -0.2714
     61  N         41.0500   48.0600   23.2460 N.am   93  TYR93      -0.1959
     62  CA        40.8880   47.8030   24.6680 C.3    93  TYR93       0.1771
     63  C         42.0540   48.3890   25.4530 C.2    93  TYR93       0.2619
     64  O         43.2170   48.2610   25.0590 O.2    93  TYR93      -0.2715
     65  CB        40.7850   46.2970   24.9270 C.3    93  TYR93       0.0574
     66  CG        40.8300   45.9340   26.3930 C.ar   93  TYR93      -0.0198
     67  CD1       39.7040   46.0700   27.1940 C.ar   93  TYR93      -0.0009
     68  CD2       41.9990   45.4610   26.9780 C.ar   93  TYR93      -0.0009
     69  CE1       39.7380   45.7470   28.5370 C.ar   93  TYR93       0.0417
     70  CE2       42.0430   45.1360   28.3210 C.ar   93  TYR93       0.0417
     71  CZ        40.9080   45.2810   29.0950 C.ar   93  TYR93       0.1957
     72  OH        40.9370   44.9610   30.4330 O.3    93  TYR93      -0.2866
     73  N         41.7350   49.0340   26.5760 N.am   94  ASP94      -0.1971
     74  CA        42.7420   49.5850   27.4580 C.3    94  ASP94       0.1709
     75  C         42.2260   49.4480   28.8840 C.2    94  ASP94       0.2293
     76  O         41.1080   49.9050   29.1700 O.2    94  ASP94      -0.2864
     77  CB        43.0490   51.0500   27.1460 C.3    94  ASP94       0.1436
     78  CG        44.2270   51.5860   27.9440 C.2    94  ASP94       0.3671
     79  OD1       45.0750   50.7800   28.3760 O.co2  94  ASP94      -0.2456
     80  OD2       44.3110   52.8180   28.1290 O.co2  94  ASP94      -0.2456
@<TRIPOS>BOND
     1     1     2    1
     2     2     3    1
     3     2     5    1
     4     6     8    1
     5     6     5    1
     6    11    12    2
     7    11    10    1
     8    30    31    2
     9    30    29    1
    10    47    48    1
    11    47    44    1
    12     3     9   am
    13     3     4    2
    14    16    17    1
    15     5     7    1
    16     9    10    1
    17    34    32    1
    18    32    29    1
    19    32    33    1
    20    45    46    2
    21    45    44    1
    22    10    13    1
    23    28    29    1
    24    28    18   am
    25    13    14    1
    26    13    15    1
    27    35    33    1
    28    44    43    1
    29    17    18    1
    30    17    20    1
    31    18    19    2
    32    43    38   am
    33    36    37    1
    34    49    50    1
    35    20    21    1
    36    38    37    1
    37    38    39    2
    38    50    51    1
    39    50    53    1
    40    37    40    1
    41    52    51    2
    42    51    57   am
    43    42    40    1
    44    57    58    1
    45    56    54   am
    46    21    23   ar
    47    21    22   ar
    48    40    41    1
    49    53    54    1
    50    58    59    1
    51    54    55    2
    52    23    25   ar
    53    22    24   ar
    54    25    26   ar
    55    59    61   am
    56    59    60    2
    57    24    26   ar
    58    61    62    1
    59    26    27    1
    60    62    65    1
    61    62    63    1
    62    65    66    1
    63    64    63    2
    64    63    73   am
    65    66    68   ar
    66    66    67   ar
    67    73    74    1
    68    68    70   ar
    69    77    74    1
    70    77    78    1
    71    67    69   ar
    72    74    75    1
    73    78    80   ar
    74    78    79   ar
    75    70    71   ar
    76    69    71   ar
    77    75    76    2
    78    71    72    1
