@<TRIPOS>MOLECULE
tmp/5l8rE18.pdb
 222 216 0 0 0
SMALL
GASTEIGER

@<TRIPOS>ATOM
      1  N         -2.3290    6.6860   89.0320 N.3    77  TRP77      -0.1227
      2  CA        -2.7360    7.5370   87.9200 C.3    77  TRP77       0.1737
      3  C         -4.0810    8.2090   88.1970 C.2    77  TRP77       0.2595
      4  O         -4.2490    9.4120   87.9450 O.2    77  TRP77      -0.2718
      5  CB        -2.7640    6.6720   86.6560 C.3    77  TRP77       0.0564
      6  CG        -3.2710    7.2920   85.4100 C.ar   77  TRP77       0.0003
      7  CD1       -2.6200    8.1840   84.6080 C.ar   77  TRP77       0.0946
      8  CD2       -4.5230    7.0190   84.7770 C.ar   77  TRP77       0.0152
      9  NE1       -3.4070    8.5060   83.5280 N.ar   77  TRP77      -0.2442
     10  CE2       -4.5800    7.8030   83.6120 C.ar   77  TRP77       0.0810
     11  CE3       -5.6110    6.2030   85.0960 C.ar   77  TRP77       0.0012
     12  CZ2       -5.6760    7.7850   82.7610 C.ar   77  TRP77       0.0191
     13  CZ3       -6.7000    6.1910   84.2530 C.ar   77  TRP77       0.0001
     14  CH2       -6.7250    6.9740   83.0990 C.ar   77  TRP77       0.0015
     15  N         -5.0440    7.4520   88.7350 N.am   78  LEU78      -0.1980
     16  CA        -6.3160    8.0440   89.1450 C.3    78  LEU78       0.1596
     17  C         -6.1170    9.0560   90.2640 C.2    78  LEU78       0.2287
     18  O         -6.7400   10.1260   90.2640 O.2    78  LEU78      -0.2864
     19  CB        -7.2880    6.9500   89.5840 C.3    78  LEU78       0.0297
     20  CG        -7.8440    6.0820   88.4590 C.3    78  LEU78       0.0022
     21  CD1       -8.7650    5.0070   89.0100 C.3    78  LEU78       0.0001
     22  CD2       -8.5710    6.9570   87.4550 C.3    78  LEU78       0.0001
     23  N         -7.5710   12.9000   90.0150 N.3    82  TYR82      -0.1241
     24  CA        -8.4110   13.5560   91.0120 C.3    82  TYR82       0.1605
     25  C         -7.6570   14.6750   91.7200 C.2    82  TYR82       0.2264
     26  O         -8.2290   15.7380   91.9940 O.2    82  TYR82      -0.2867
     27  CB        -8.9370   12.5350   92.0210 C.3    82  TYR82       0.0534
     28  CG       -10.0670   11.6740   91.4960 C.ar   82  TYR82      -0.0201
     29  CD1      -11.3940   12.0420   91.6870 C.ar   82  TYR82      -0.0009
     30  CD2       -9.8070   10.4940   90.8100 C.ar   82  TYR82      -0.0009
     31  CE1      -12.4300   11.2580   91.2130 C.ar   82  TYR82       0.0417
     32  CE2      -10.8360    9.7070   90.3300 C.ar   82  TYR82       0.0417
     33  CZ       -12.1450   10.0950   90.5330 C.ar   82  TYR82       0.1957
     34  OH       -13.1750    9.3170   90.0600 O.3    82  TYR82      -0.2866
     35  N        -10.2520   14.4050   78.4800 N.3   132  SER132     -0.1202
     36  CA       -10.4480   13.0850   79.0680 C.3   132  SER132      0.2020
     37  C        -11.9030   12.8560   79.4640 C.2   132  SER132      0.2619
     38  O        -12.4340   11.7530   79.2850 O.2   132  SER132     -0.2717
     39  CB        -9.5340   12.9220   80.2790 C.3   132  SER132      0.2103
     40  OG        -9.7470   13.9760   81.2030 O.3   132  SER132     -0.2182
     41  N        -12.5570   13.8710   80.0190 N.am  133  GLY133     -0.1942
     42  CA       -13.9440   13.7630   80.4170 C.3   133  GLY133      0.2014
     43  C        -14.2020   13.7040   81.9090 C.2   133  GLY133      0.2638
     44  O        -15.3500   13.4670   82.3070 O.2   133  GLY133     -0.2714
     45  N        -13.1850   13.9380   82.7460 N.am  134  PHE134     -0.1973
     46  CA       -13.3430   13.7600   84.1880 C.3   134  PHE134      0.1639
     47  C        -14.3650   14.7180   84.7910 C.2   134  PHE134      0.2290
     48  O        -14.9880   14.3850   85.8030 O.2   134  PHE134     -0.2864
     49  CB       -11.9980   13.9270   84.8930 C.3   134  PHE134      0.0560
     50  CG       -11.1330   12.7030   84.8420 C.ar  134  PHE134     -0.0200
     51  CD1      -11.4160   11.6050   85.6370 C.ar  134  PHE134     -0.0042
     52  CD2      -10.0320   12.6530   84.0070 C.ar  134  PHE134     -0.0042
     53  CE1      -10.6200   10.4780   85.5910 C.ar  134  PHE134     -0.0003
     54  CE2       -9.2310   11.5290   83.9590 C.ar  134  PHE134     -0.0003
     55  CZ        -9.5230   10.4410   84.7500 C.ar  134  PHE134     -0.0000
     56  N        -17.7620   13.1370   84.5060 N.3   137  ILE137     -0.1245
     57  CA       -17.8610   12.0310   85.4550 C.3   137  ILE137      0.1561
     58  C        -18.1110   12.5640   86.8590 C.2   137  ILE137      0.2260
     59  O        -19.0510   12.1470   87.5470 O.2   137  ILE137     -0.2867
     60  CB       -16.5920   11.1610   85.4110 C.3   137  ILE137      0.0252
     61  CG1      -16.3270   10.6380   84.0000 C.3   137  ILE137      0.0019
     62  CG2      -16.7090    9.9960   86.3850 C.3   137  ILE137      0.0019
     63  CD1      -15.0360    9.8490   83.8930 C.3   137  ILE137      0.0001
     64  N        -15.9830  -13.4880   89.8390 N.3   191  HIS191     -0.1241
     65  CA       -15.9040  -12.3040   88.9920 C.3   191  HIS191      0.1621
     66  C        -17.2600  -11.9380   88.4100 C.2   191  HIS191      0.2264
     67  O        -17.5510  -10.7520   88.2370 O.2   191  HIS191     -0.2867
     68  CB       -14.8790  -12.5160   87.8780 C.3   191  HIS191      0.0745
     69  CG       -13.4660  -12.5600   88.3650 C.ar  191  HIS191      0.0817
     70  ND1      -12.4180  -12.9840   87.5770 N.ar  191  HIS191     -0.2268
     71  CD2      -12.9260  -12.2310   89.5630 C.ar  191  HIS191      0.1154
     72  CE1      -11.2940  -12.9120   88.2670 C.ar  191  HIS191      0.1986
     73  NE2      -11.5750  -12.4580   89.4750 N.ar  191  HIS191     -0.2212
     74  N        -17.4250   -9.5140   91.7050 N.3   195  LEU195     -0.1231
     75  CA       -16.8060   -8.3020   91.1750 C.3   195  LEU195      0.1693
     76  C        -17.8060   -7.4610   90.3910 C.2   195  LEU195      0.2591
     77  O        -18.0850   -6.3110   90.7500 O.2   195  LEU195     -0.2718
     78  CB       -15.6110   -8.6630   90.2910 C.3   195  LEU195      0.0284
     79  CG       -14.9380   -7.4730   89.6020 C.3   195  LEU195      0.0019
     80  CD1      -14.3900   -6.5160   90.6420 C.3   195  LEU195      0.0001
     81  CD2      -13.8360   -7.9290   88.6520 C.3   195  LEU195      0.0001
     82  N        -18.3540   -8.0210   89.3100 N.am  196  LEU196     -0.1980
     83  CA       -19.2430   -7.2490   88.4480 C.3   196  LEU196      0.1596
     84  C        -20.5800   -6.9790   89.1250 C.2   196  LEU196      0.2287
     85  O        -21.0960   -5.8550   89.0680 O.2   196  LEU196     -0.2864
     86  CB       -19.4410   -7.9810   87.1220 C.3   196  LEU196      0.0297
     87  CG       -18.1470   -8.1540   86.3200 C.3   196  LEU196      0.0022
     88  CD1      -18.3700   -9.0220   85.0940 C.3   196  LEU196      0.0001
     89  CD2      -17.5690   -6.7980   85.9250 C.3   196  LEU196      0.0001
     90  N        -22.4970    0.7300   92.8660 N.3   203  TRP203     -0.1241
     91  CA       -22.5980    1.9660   92.1040 C.3   203  TRP203      0.1605
     92  C        -24.0420    2.4400   92.0030 C.2   203  TRP203      0.2264
     93  O        -24.3110    3.6460   92.1020 O.2   203  TRP203     -0.2867
     94  CB       -21.9920    1.7930   90.7140 C.3   203  TRP203      0.0550
     95  CG       -21.9650    3.0850   89.9990 C.ar  203  TRP203      0.0003
     96  CD1      -22.5700    3.3850   88.8160 C.ar  203  TRP203      0.0946
     97  CD2      -21.3390    4.2930   90.4510 C.ar  203  TRP203      0.0152
     98  NE1      -22.3370    4.6990   88.4880 N.ar  203  TRP203     -0.2442
     99  CE2      -21.5860    5.2790   89.4770 C.ar  203  TRP203      0.0810
    100  CE3      -20.5790    4.6310   91.5770 C.ar  203  TRP203      0.0012
    101  CZ2      -21.1040    6.5810   89.5960 C.ar  203  TRP203      0.0191
    102  CZ3      -20.1040    5.9200   91.6950 C.ar  203  TRP203      0.0001
    103  CH2      -20.3670    6.8820   90.7100 C.ar  203  TRP203      0.0015
    104  N        -27.8770   -0.1210   86.3660 N.3   288  HIS288     -0.1241
    105  CA       -26.8980   -0.7790   87.2250 C.3   288  HIS288      0.1621
    106  C        -27.5550   -1.7800   88.1630 C.2   288  HIS288      0.2264
    107  O        -26.9500   -2.8070   88.4950 O.2   288  HIS288     -0.2867
    108  CB       -26.1150    0.2560   88.0270 C.3   288  HIS288      0.0745
    109  CG       -25.2780    1.1610   87.1830 C.ar  288  HIS288      0.0817
    110  ND1      -24.2020    0.7110   86.4500 N.ar  288  HIS288     -0.2268
    111  CD2      -25.3590    2.4920   86.9550 C.ar  288  HIS288      0.1154
    112  CE1      -23.6580    1.7280   85.8070 C.ar  288  HIS288      0.1986
    113  NE2      -24.3390    2.8200   86.0980 N.ar  288  HIS288     -0.2212
    114  N        -11.6740   -8.1530   75.1200 N.3   350  LEU350     -0.1245
    115  CA       -11.5420   -6.8600   75.7810 C.3   350  LEU350      0.1561
    116  C        -11.3780   -5.7390   74.7630 C.2   350  LEU350      0.2260
    117  O        -11.9300   -4.6460   74.9430 O.2   350  LEU350     -0.2867
    118  CB       -10.3640   -6.8830   76.7510 C.3   350  LEU350      0.0270
    119  CG       -10.1880   -5.6440   77.6320 C.3   350  LEU350      0.0019
    120  CD1      -11.4150   -5.4390   78.5090 C.3   350  LEU350      0.0001
    121  CD2       -8.9240   -5.7520   78.4750 C.3   350  LEU350      0.0001
    122  N        -14.6840   -5.2750   73.0710 N.3   353  LEU353     -0.1231
    123  CA       -15.4800   -4.5250   74.0340 C.3   353  LEU353      0.1693
    124  C        -15.1560   -3.0380   73.9790 C.2   353  LEU353      0.2592
    125  O        -16.0610   -2.2020   73.9120 O.2   353  LEU353     -0.2718
    126  CB       -15.2450   -5.0650   75.4410 C.3   353  LEU353      0.0284
    127  CG       -16.0790   -4.3870   76.5280 C.3   353  LEU353      0.0019
    128  CD1      -17.5600   -4.6020   76.2550 C.3   353  LEU353      0.0001
    129  CD2      -15.6990   -4.9050   77.9120 C.3   353  LEU353      0.0001
    130  N        -13.8650   -2.6880   74.0050 N.am  354  THR354     -0.1953
    131  CA       -13.4810   -1.2780   73.9870 C.3   354  THR354      0.1897
    132  C        -14.0490   -0.5660   72.7640 C.2   354  THR354      0.2313
    133  O        -14.4910    0.5880   72.8550 O.2   354  THR354     -0.2863
    134  CB       -11.9560   -1.1510   74.0290 C.3   354  THR354      0.1794
    135  OG1      -11.4390   -1.9670   75.0850 O.3   354  THR354     -0.2208
    136  CG2      -11.5370    0.2910   74.2810 C.3   354  THR354      0.0378
    137  N        -17.7080    0.0120   73.3250 N.3   357  VAL357     -0.1245
    138  CA       -17.8170    1.1570   74.2260 C.3   357  VAL357      0.1561
    139  C        -17.6990    2.4530   73.4400 C.2   357  VAL357      0.2260
    140  O        -18.4890    3.3880   73.6240 O.2   357  VAL357     -0.2867
    141  CB       -16.7460    1.0780   75.3300 C.3   357  VAL357      0.0252
    142  CG1      -16.7710    2.3310   76.1880 C.3   357  VAL357      0.0019
    143  CG2      -16.9430   -0.1570   76.1850 C.3   357  VAL357      0.0019
    144  N        -20.8490    5.1090   73.6770 N.3   361  MET361     -0.1245
    145  CA       -20.7180    6.3440   74.4430 C.3   361  MET361      0.1570
    146  C        -21.0260    7.5840   73.6120 C.2   361  MET361      0.2261
    147  O        -21.5260    8.5720   74.1610 O.2   361  MET361     -0.2867
    148  CB       -19.3240    6.4440   75.0600 C.3   361  MET361      0.0387
    149  CG       -19.0670    5.3770   76.1150 C.3   361  MET361      0.0595
    150  SD       -17.6140    5.6830   77.1380 S.3   361  MET361     -0.1393
    151  CE       -18.1480    7.1290   78.0470 C.3   361  MET361      0.0692
    152  N        -23.4150    9.2130   78.2030 N.3   366  PRO366     -0.2102
    153  CA       -23.8550    8.8180   79.5470 C.3   366  PRO366      0.1504
    154  C        -23.6580    9.8870   80.6120 C.2   366  PRO366      0.2575
    155  O        -24.2660    9.8110   81.6840 O.2   366  PRO366     -0.2718
    156  CB       -22.9900    7.5880   79.8310 C.3   366  PRO366      0.0282
    157  CG       -21.7190    7.8720   79.0990 C.3   366  PRO366      0.0208
    158  CD       -22.1130    8.6200   77.8510 C.3   366  PRO366      0.0893
    159  N        -22.8180   10.8800   80.3430 N.am  367  TYR367     -0.1977
    160  CA       -22.5760   11.8780   81.3720 C.3   367  TYR367      0.1639
    161  C        -23.2030   13.2190   80.9960 C.2   367  TYR367      0.2290
    162  O        -23.3590   13.5310   79.8100 O.2   367  TYR367     -0.2864
    163  CB       -21.0750   12.0750   81.6130 C.3   367  TYR367      0.0560
    164  CG       -20.3410   10.8160   82.0220 C.ar  367  TYR367     -0.0198
    165  CD1      -20.3620   10.3720   83.3380 C.ar  367  TYR367     -0.0009
    166  CD2      -19.6170   10.0790   81.0920 C.ar  367  TYR367     -0.0009
    167  CE1      -19.6890    9.2280   83.7140 C.ar  367  TYR367      0.0417
    168  CE2      -18.9440    8.9350   81.4590 C.ar  367  TYR367      0.0417
    169  CZ       -18.9810    8.5130   82.7690 C.ar  367  TYR367      0.1957
    170  OH       -18.3060    7.3700   83.1330 O.3   367  TYR367     -0.2866
    171  N        -21.6550   16.0950   78.3180 N.3   370  LEU370     -0.1245
    172  CA       -20.6180   15.3750   77.5940 C.3   370  LEU370      0.1561
    173  C        -20.8260   15.4340   76.0850 C.2   370  LEU370      0.2260
    174  O        -19.8620   15.6130   75.3350 O.2   370  LEU370     -0.2867
    175  CB       -20.5760   13.9160   78.0510 C.3   370  LEU370      0.0270
    176  CG       -19.6740   13.0020   77.2250 C.3   370  LEU370      0.0019
    177  CD1      -18.2220   13.1750   77.6320 C.3   370  LEU370      0.0001
    178  CD2      -20.1100   11.5560   77.3600 C.3   370  LEU370      0.0001
    179  N        -12.6010   10.7220   73.1710 N.3   380  LEU380     -0.1245
    180  CA       -12.9630    9.4440   73.7770 C.3   380  LEU380      0.1561
    181  C        -13.1360    8.3670   72.7160 C.2   380  LEU380      0.2260
    182  O        -12.5270    7.2920   72.8040 O.2   380  LEU380     -0.2867
    183  CB       -14.2390    9.5960   74.6050 C.3   380  LEU380      0.0270
    184  CG       -14.0870   10.3110   75.9480 C.3   380  LEU380      0.0019
    185  CD1      -15.4320   10.4540   76.6310 C.3   380  LEU380      0.0001
    186  CD2      -13.0990    9.5800   76.8450 C.3   380  LEU380      0.0001
    187  N         -9.7330    7.5220   71.1160 N.3   383  HIS383     -0.1226
    188  CA        -8.9290    6.8140   72.1060 C.3   383  HIS383      0.1752
    189  C         -9.3300    5.3460   72.2170 C.2   383  HIS383      0.2596
    190  O         -8.4920    4.4410   72.0730 O.2   383  HIS383     -0.2718
    191  CB        -9.0700    7.5130   73.4580 C.3   383  HIS383      0.0759
    192  CG        -8.5330    6.7200   74.6060 C.ar  383  HIS383      0.0818
    193  ND1       -7.1850    6.5950   74.8530 N.ar  383  HIS383     -0.2268
    194  CD2       -9.1590    6.0050   75.5710 C.ar  383  HIS383      0.1154
    195  CE1       -7.0000    5.8450   75.9240 C.ar  383  HIS383      0.1986
    196  NE2       -8.1830    5.4700   76.3760 N.ar  383  HIS383     -0.2212
    197  N        -10.6160    5.0900   72.4680 N.am  384  HIS384     -0.1975
    198  CA       -11.0380    3.7140   72.7030 C.3   384  HIS384      0.1656
    199  C        -10.9400    2.8610   71.4450 C.2   384  HIS384      0.2291
    200  O        -10.6760    1.6560   71.5430 O.2   384  HIS384     -0.2864
    201  CB       -12.4460    3.6900   73.2780 C.3   384  HIS384      0.0771
    202  CG       -12.5020    4.1600   74.6920 C.ar  384  HIS384      0.0820
    203  ND1      -13.0520    5.3690   75.0520 N.ar  384  HIS384     -0.2267
    204  CD2      -12.0390    3.6000   75.8330 C.ar  384  HIS384      0.1154
    205  CE1      -12.9470    5.5250   76.3590 C.ar  384  HIS384      0.1986
    206  NE2      -12.3350    4.4660   76.8560 N.ar  384  HIS384     -0.2212
    207  N         -7.2670    1.7630   71.5590 N.3   387  ILE387     -0.1245
    208  CA        -7.0670    0.7200   72.5620 C.3   387  ILE387      0.1561
    209  C         -7.5950   -0.6170   72.0480 C.2   387  ILE387      0.2260
    210  O         -6.8880   -1.6340   72.0670 O.2   387  ILE387     -0.2867
    211  CB        -7.7260    1.1230   73.8920 C.3   387  ILE387      0.0252
    212  CG1       -7.2620    2.5210   74.3110 C.3   387  ILE387      0.0019
    213  CG2       -7.3810    0.1290   74.9760 C.3   387  ILE387      0.0019
    214  CD1       -5.7620    2.6390   74.5460 C.3   387  ILE387      0.0001
    215  N         -5.3430   -4.0230   71.2940 N.3   391  LEU391     -0.1245
    216  CA        -5.6160   -5.2290   72.0700 C.3   391  LEU391      0.1561
    217  C         -5.9000   -6.4230   71.1660 C.2   391  LEU391      0.2260
    218  O         -5.4740   -7.5490   71.4590 O.2   391  LEU391     -0.2867
    219  CB        -6.7810   -4.9820   73.0310 C.3   391  LEU391      0.0270
    220  CG        -6.5290   -3.9360   74.1260 C.3   391  LEU391      0.0019
    221  CD1       -7.7180   -3.8400   75.0770 C.3   391  LEU391      0.0001
    222  CD2       -5.2330   -4.2050   74.8930 C.3   391  LEU391      0.0001
@<TRIPOS>BOND
     1   187   188    1
     2   217   218    2
     3   217   216    1
     4   215   216    1
     5   199   200    2
     6   199   198    1
     7   207   208    1
     8   209   210    2
     9   209   208    1
    10   216   219    1
    11   190   189    2
    12   188   189    1
    13   188   191    1
    14   189   197   am
    15   197   198    1
    16   208   211    1
    17   198   201    1
    18   181   182    2
    19   181   180    1
    20   132   133    2
    21   132   131    1
    22   219   220    1
    23   122   123    1
    24   179   180    1
    25   201   202    1
    26   137   138    1
    27   139   140    2
    28   139   138    1
    29   191   192    1
    30   146   147    2
    31   146   145    1
    32   144   145    1
    33   180   183    1
    34   211   212    1
    35   211   213    1
    36   125   124    2
    37   124   130   am
    38   124   123    1
    39   131   130    1
    40   131   134    1
    41   134   136    1
    42   134   135    1
    43   123   126    1
    44   220   222    1
    45   220   221    1
    46   138   141    1
    47   212   214    1
    48   145   148    1
    49   183   184    1
    50   192   193   ar
    51   192   194   ar
    52   202   203   ar
    53   202   204   ar
    54   116   117    2
    55   116   115    1
    56   193   195   ar
    57   203   205   ar
    58   148   149    1
    59   114   115    1
    60   141   143    1
    61   141   142    1
    62   174   173    2
    63   126   127    1
    64   194   196   ar
    65   115   118    1
    66   204   206   ar
    67   195   196   ar
    68   184   185    1
    69   184   186    1
    70   173   172    1
    71   149   150    1
    72   128   127    1
    73   205   206   ar
    74   127   129    1
    75   118   119    1
    76   150   151    1
    77   176   178    1
    78   176   177    1
    79   176   175    1
    80   172   175    1
    81   172   171    1
    82   119   121    1
    83   119   120    1
    84   158   152    1
    85   158   157    1
    86   152   153    1
    87    35    36    1
    88    36    37    1
    89    36    39    1
    90   157   156    1
    91    38    37    2
    92    37    41   am
    93   153   156    1
    94   153   154    1
    95   162   161    2
    96    41    42    1
    97    39    40    1
    98   159   154   am
    99   159   160    1
   100    42    43    1
   101   154   155    2
   102   161   160    1
   103   166   168   ar
   104   166   164   ar
   105   160   163    1
   106   168   169   ar
   107   163   164    1
   108    43    44    2
   109    43    45   am
   110   164   165   ar
   111    45    46    1
   112    12    14   ar
   113    12    10   ar
   114   169   170    1
   115   169   167   ar
   116    14    13   ar
   117   165   167   ar
   118     9    10   ar
   119     9     7   ar
   120    10     8   ar
   121    63    61    1
   122    54    52   ar
   123    54    55   ar
   124    61    60    1
   125    52    50   ar
   126    46    47    1
   127    46    49    1
   128    13    11   ar
   129    56    57    1
   130     7     6   ar
   131    55    53   ar
   132     8    11   ar
   133     8     6   ar
   134    47    48    2
   135    50    49    1
   136    50    51   ar
   137    88    87    1
   138     6     5    1
   139    60    57    1
   140    60    62    1
   141    57    58    1
   142    53    51   ar
   143   112   113   ar
   144   112   110   ar
   145    89    87    1
   146   113   111   ar
   147    87    86    1
   148   104   105    1
   149   110   109   ar
   150     5     2    1
   151    58    59    2
   152   111   109   ar
   153    86    83    1
   154   109   108    1
   155   105   108    1
   156   105   106    1
   157    22    20    1
   158    70    72   ar
   159    70    69   ar
   160    68    69    1
   161    68    65    1
   162     2     3    1
   163     2     1    1
   164     4     3    2
   165   106   107    2
   166     3    15   am
   167    67    66    2
   168    72    73   ar
   169    69    71   ar
   170    66    65    1
   171    83    84    1
   172    83    82    1
   173    20    21    1
   174    20    19    1
   175    98    96   ar
   176    98    99   ar
   177    81    79    1
   178    15    16    1
   179    96    95   ar
   180    65    64    1
   181    85    84    2
   182    16    19    1
   183    16    17    1
   184    82    76   am
   185    73    71   ar
   186    99   101   ar
   187    99    97   ar
   188   101   103   ar
   189    79    78    1
   190    79    80    1
   191    95    97   ar
   192    95    94    1
   193    23    24    1
   194    34    33    1
   195    17    18    2
   196    78    75    1
   197    32    33   ar
   198    32    30   ar
   199    76    77    2
   200    76    75    1
   201    97   100   ar
   202    33    31   ar
   203   103   102   ar
   204    94    91    1
   205    30    28   ar
   206    24    25    1
   207    24    27    1
   208    75    74    1
   209    31    29   ar
   210    28    29   ar
   211    28    27    1
   212   100   102   ar
   213    25    26    2
   214    92    93    2
   215    92    91    1
   216    91    90    1
