@<TRIPOS>MOLECULE
tmp/5l8rO08.pdb
 77 72 0 0 0
SMALL
GASTEIGER

@<TRIPOS>ATOM
      1  N        -41.9310  -20.5140   96.1930 N.3    13  THR13      -0.1218
      2  CA       -40.9120  -20.8690   97.1740 C.3    13  THR13       0.1862
      3  C        -41.1110  -22.2930   97.6750 C.2    13  THR13       0.2287
      4  O        -40.2500  -23.1530   97.4840 O.2    13  THR13      -0.2866
      5  CB       -40.9280  -19.8760   98.3390 C.3    13  THR13       0.1770
      6  OG1      -40.7970  -18.5410   97.8350 O.3    13  THR13      -0.2211
      7  CG2      -39.7760  -20.1600   99.2930 C.3    13  THR13       0.0375
      8  N        -38.8440  -25.5730   97.1110 N.3    17  LEU17      -0.1245
      9  CA       -38.3540  -26.2570   98.3030 C.3    17  LEU17       0.1561
     10  C        -38.7880  -27.7140   98.3120 C.2    17  LEU17       0.2260
     11  O        -38.0100  -28.6020   98.6770 O.2    17  LEU17      -0.2867
     12  CB       -38.8640  -25.5540   99.5620 C.3    17  LEU17       0.0270
     13  CG       -38.4890  -24.0940   99.8140 C.3    17  LEU17       0.0019
     14  CD1      -39.3600  -23.5140  100.9200 C.3    17  LEU17       0.0001
     15  CD2      -37.0140  -23.9600  100.1550 C.3    17  LEU17       0.0001
     16  N        -31.2210  -33.8590  101.6190 N.3    50  PHE50      -0.1241
     17  CA       -31.5230  -32.4690  101.2840 C.3    50  PHE50       0.1605
     18  C        -30.7260  -31.5610  102.2140 C.2    50  PHE50       0.2264
     19  O        -30.9990  -31.5010  103.4170 O.2    50  PHE50      -0.2867
     20  CB       -33.0220  -32.2110  101.4010 C.3    50  PHE50       0.0534
     21  CG       -33.4180  -30.7880  101.1340 C.ar   50  PHE50      -0.0203
     22  CD1      -33.3520  -30.2630   99.8550 C.ar   50  PHE50      -0.0042
     23  CD2      -33.8700  -29.9780  102.1620 C.ar   50  PHE50      -0.0042
     24  CE1      -33.7260  -28.9570   99.6060 C.ar   50  PHE50      -0.0003
     25  CE2      -34.2450  -28.6710  101.9180 C.ar   50  PHE50      -0.0003
     26  CZ       -34.1720  -28.1600  100.6380 C.ar   50  PHE50      -0.0000
     27  N        -31.0610  -26.0840  100.2430 N.3    55  THR55      -0.1203
     28  CA       -32.1370  -25.3120  100.8600 C.3    55  THR55       0.1994
     29  C        -32.0820  -23.8590  100.4060 C.2    55  THR55       0.2617
     30  O        -33.0870  -23.2960   99.9500 O.2    55  THR55      -0.2717
     31  CB       -32.0480  -25.4000  102.3860 C.3    55  THR55       0.1784
     32  OG1      -31.9640  -26.7740  102.7850 O.3    55  THR55      -0.2211
     33  CG2      -33.2720  -24.7650  103.0260 C.3    55  THR55       0.0376
     34  N        -30.9030  -23.2410  100.5190 N.am   56  LEU56      -0.1979
     35  CA       -30.7200  -21.8790  100.0260 C.3    56  LEU56       0.1596
     36  C        -31.0230  -21.7870   98.5360 C.2    56  LEU56       0.2287
     37  O        -31.7050  -20.8540   98.0890 O.2    56  LEU56      -0.2864
     38  CB       -29.2930  -21.4110  100.3110 C.3    56  LEU56       0.0297
     39  CG       -28.8330  -21.4740  101.7690 C.3    56  LEU56       0.0022
     40  CD1      -27.3450  -21.1790  101.8760 C.3    56  LEU56       0.0001
     41  CD2      -29.6380  -20.5100  102.6240 C.3    56  LEU56       0.0001
     42  N        -34.7890  -22.1030   97.8770 N.3    59  GLY59      -0.1210
     43  CA       -35.4470  -20.8880   98.3280 C.3    59  GLY59       0.1956
     44  C        -35.2790  -19.7430   97.3460 C.2    59  GLY59       0.2611
     45  O        -36.2520  -19.0870   96.9610 O.2    59  GLY59      -0.2717
     46  N        -34.0370  -19.4970   96.9150 N.am   60  VAL60      -0.1979
     47  CA       -33.7820  -18.3940   95.9900 C.3    60  VAL60       0.1595
     48  C        -34.4850  -18.6330   94.6590 C.2    60  VAL60       0.2287
     49  O        -34.9930  -17.6950   94.0360 O.2    60  VAL60      -0.2864
     50  CB       -32.2680  -18.1800   95.8010 C.3    60  VAL60       0.0276
     51  CG1      -32.0090  -17.1250   94.7380 C.3    60  VAL60       0.0022
     52  CG2      -31.6270  -17.7620   97.1080 C.3    60  VAL60       0.0022
     53  N        -37.9260  -17.7460   94.9460 N.3    63  HIS63      -0.1226
     54  CA       -38.0820  -16.2940   94.9340 C.3    63  HIS63       0.1752
     55  C        -37.9240  -15.7030   93.5390 C.2    63  HIS63       0.2595
     56  O        -38.5540  -14.6890   93.2320 O.2    63  HIS63      -0.2718
     57  CB       -37.0810  -15.6420   95.8870 C.3    63  HIS63       0.0759
     58  CG       -37.4560  -15.7710   97.3280 C.ar   63  HIS63       0.0818
     59  ND1      -37.4530  -16.9790   97.9900 N.ar   63  HIS63      -0.2268
     60  CD2      -37.8570  -14.8470   98.2310 C.ar   63  HIS63       0.1154
     61  CE1      -37.8350  -16.7930   99.2410 C.ar   63  HIS63       0.1986
     62  NE2      -38.0840  -15.5080   99.4140 N.ar   63  HIS63      -0.2212
     63  N        -37.0800  -16.2960   92.6940 N.am   64  ILE64      -0.1980
     64  CA       -36.9830  -15.8500   91.3080 C.3    64  ILE64       0.1595
     65  C        -38.2930  -16.1250   90.5820 C.2    64  ILE64       0.2287
     66  O        -38.8760  -15.2330   89.9490 O.2    64  ILE64      -0.2864
     67  CB       -35.7910  -16.5290   90.6090 C.3    64  ILE64       0.0276
     68  CG1      -34.4730  -16.1020   91.2620 C.3    64  ILE64       0.0022
     69  CG2      -35.7820  -16.2090   89.1210 C.3    64  ILE64       0.0022
     70  CD1      -33.2660  -16.8800   90.7810 C.3    64  ILE64       0.0001
     71  N        -41.1280  -13.7840   92.4240 N.3    67  VAL67      -0.1245
     72  CA       -41.0960  -12.3640   92.0890 C.3    67  VAL67       0.1561
     73  C        -41.3790  -12.1620   90.6060 C.2    67  VAL67       0.2260
     74  O        -42.0910  -11.2270   90.2180 O.2    67  VAL67      -0.2867
     75  CB       -39.7470  -11.7490   92.5060 C.3    67  VAL67       0.0252
     76  CG1      -39.6390  -10.3190   92.0170 C.3    67  VAL67       0.0019
     77  CG2      -39.5890  -11.8010   94.0190 C.3    67  VAL67       0.0019
@<TRIPOS>BOND
     1    69    67    1
     2    66    65    2
     3    74    73    2
     4    65    64    1
     5    73    72    1
     6    67    68    1
     7    67    64    1
     8    70    68    1
     9    64    63    1
    10    76    75    1
    11    72    71    1
    12    72    75    1
    13    75    77    1
    14    63    55   am
    15    56    55    2
    16    55    54    1
    17    49    48    2
    18    48    47    1
    19    51    50    1
    20    54    53    1
    21    54    57    1
    22    50    47    1
    23    50    52    1
    24    57    58    1
    25    47    46    1
    26     1     2    1
    27    46    44   am
    28    45    44    2
    29     8     9    1
    30     2     3    1
    31     2     5    1
    32    58    59   ar
    33    58    60   ar
    34    44    43    1
    35     4     3    2
    36     6     5    1
    37    42    43    1
    38    59    61   ar
    39    37    36    2
    40    60    62   ar
    41     9    10    1
    42     9    12    1
    43    10    11    2
    44     5     7    1
    45    36    35    1
    46    61    62   ar
    47    12    13    1
    48    24    22   ar
    49    24    26   ar
    50    13    15    1
    51    13    14    1
    52    22    21   ar
    53    30    29    2
    54    35    38    1
    55    35    34    1
    56    27    28    1
    57    38    39    1
    58    29    34   am
    59    29    28    1
    60    26    25   ar
    61    28    31    1
    62    21    20    1
    63    21    23   ar
    64    17    20    1
    65    17    16    1
    66    17    18    1
    67    39    40    1
    68    39    41    1
    69    25    23   ar
    70    18    19    2
    71    31    32    1
    72    31    33    1
