@<TRIPOS>MOLECULE
tmp/5l8rB18.pdb
 84 79 0 0 0
SMALL
GASTEIGER

@<TRIPOS>ATOM
      1  N         22.0430   18.9150  120.0710 N.3    57  MET57      -0.1245
      2  CA        22.0450   19.2790  121.4840 C.3    57  MET57       0.1570
      3  C         22.3240   20.7680  121.6590 C.2    57  MET57       0.2261
      4  O         21.6250   21.4600  122.4160 O.2    57  MET57      -0.2867
      5  CB        23.0630   18.4260  122.2430 C.3    57  MET57       0.0387
      6  CG        22.5900   16.9970  122.4950 C.3    57  MET57       0.0595
      7  SD        23.7000   15.9920  123.5060 S.3    57  MET57      -0.1393
      8  CE        24.9470   15.5660  122.2920 C.3    57  MET57       0.0692
      9  N         19.1030   22.3990  120.5600 N.3    60  ALA60      -0.1231
     10  CA        18.0720   22.2960  121.5850 C.3    60  ALA60       0.1694
     11  C         18.3080   23.3130  122.6930 C.2    60  ALA60       0.2591
     12  O         17.3570   23.9220  123.2030 O.2    60  ALA60      -0.2718
     13  CB        18.0310   20.8760  122.1490 C.3    60  ALA60       0.0304
     14  N         19.5740   23.5270  123.0620 N.am   61  ALA61      -0.1980
     15  CA        19.8840   24.5740  124.0310 C.3    61  ALA61       0.1597
     16  C         19.5180   25.9510  123.4890 C.2    61  ALA61       0.2287
     17  O         18.8040   26.7180  124.1440 O.2    61  ALA61      -0.2864
     18  CB        21.3630   24.5180  124.4090 C.3    61  ALA61       0.0319
     19  N         15.5730   26.2550  123.2350 N.3    64  PHE64      -0.1227
     20  CA        14.7190   26.1000  124.4040 C.3    64  PHE64       0.1736
     21  C         15.1300   27.0080  125.5540 C.2    64  PHE64       0.2595
     22  O         14.2620   27.5880  126.2120 O.2    64  PHE64      -0.2718
     23  CB        14.7040   24.6320  124.8300 C.3    64  PHE64       0.0547
     24  CG        14.1040   23.7180  123.7980 C.ar   64  PHE64      -0.0202
     25  CD1       13.0130   24.1280  123.0550 C.ar   64  PHE64      -0.0042
     26  CD2       14.6430   22.4660  123.5530 C.ar   64  PHE64      -0.0042
     27  CE1       12.4560   23.3080  122.0940 C.ar   64  PHE64      -0.0003
     28  CE2       14.0940   21.6410  122.5910 C.ar   64  PHE64      -0.0003
     29  CZ        12.9980   22.0610  121.8620 C.ar   64  PHE64      -0.0000
     30  N         16.4270   27.1790  125.7930 N.am   65  ILE65      -0.1980
     31  CA        16.8680   27.9820  126.9310 C.3    65  ILE65       0.1595
     32  C         16.5450   29.4580  126.7020 C.2    65  ILE65       0.2287
     33  O         15.8890   30.0660  127.5590 O.2    65  ILE65      -0.2864
     34  CB        18.3610   27.7620  127.2260 C.3    65  ILE65       0.0276
     35  CG1       18.6490   26.2850  127.5060 C.3    65  ILE65       0.0022
     36  CG2       18.7940   28.6150  128.4120 C.3    65  ILE65       0.0022
     37  CD1       18.0540   25.7800  128.8020 C.3    65  ILE65       0.0001
     38  N         37.8860   13.7750  131.0460 N.3   149  TRP149     -0.1241
     39  CA        36.7870   12.8360  131.2460 C.3   149  TRP149      0.1605
     40  C         36.6360   11.8550  130.0890 C.2   149  TRP149      0.2264
     41  O         35.8620   10.8990  130.2080 O.2   149  TRP149     -0.2867
     42  CB        35.4600   13.5860  131.4430 C.3   149  TRP149      0.0550
     43  CG        35.2630   14.2620  132.7910 C.ar  149  TRP149      0.0003
     44  CD1       35.8560   15.4120  133.2240 C.ar  149  TRP149      0.0946
     45  CD2       34.3830   13.8450  133.8500 C.ar  149  TRP149      0.0152
     46  NE1       35.4170   15.7290  134.4860 N.ar  149  TRP149     -0.2442
     47  CE2       34.5130   14.7840  134.8950 C.ar  149  TRP149      0.0810
     48  CE3       33.5070   12.7660  134.0190 C.ar  149  TRP149      0.0012
     49  CZ2       33.8010   14.6750  136.0930 C.ar  149  TRP149      0.0191
     50  CZ3       32.8000   12.6610  135.2110 C.ar  149  TRP149      0.0001
     51  CH2       32.9520   13.6110  136.2300 C.ar  149  TRP149      0.0015
     52  N         29.3420    6.6380  129.2290 N.3   160  LEU160     -0.1245
     53  CA        29.2690    8.0590  128.9040 C.3   160  LEU160      0.1561
     54  C         28.8930    8.2870  127.4430 C.2   160  LEU160      0.2260
     55  O         28.0750    9.1620  127.1390 O.2   160  LEU160     -0.2867
     56  CB        30.6010    8.7330  129.2230 C.3   160  LEU160      0.0270
     57  CG        30.9880    9.0300  130.6680 C.3   160  LEU160      0.0019
     58  CD1       32.3960    9.6000  130.7090 C.3   160  LEU160      0.0001
     59  CD2       29.9980    9.9900  131.3020 C.3   160  LEU160      0.0001
     60  N         25.3380    7.7620  127.0270 N.3   163  LYS163     -0.1245
     61  CA        24.6400    8.9660  127.4790 C.3   163  LYS163      0.1561
     62  C         24.6450   10.0510  126.4070 C.2   163  LYS163      0.2260
     63  O         23.6120   10.6820  126.1400 O.2   163  LYS163     -0.2867
     64  CB        25.2820    9.4890  128.7650 C.3   163  LYS163      0.0271
     65  CG        25.1550    8.5530  129.9570 C.3   163  LYS163      0.0035
     66  CD        25.8940    9.0920  131.1640 C.3   163  LYS163      0.0206
     67  CE        25.5790    8.2810  132.4100 C.3   163  LYS163      0.1093
     68  NZ        24.1340    8.3550  132.7610 N.3   163  LYS163     -0.1314
     69  N         21.1730   11.3690  124.6360 N.3   167  ASN167     -0.1240
     70  CA        20.8580   12.7920  124.7240 C.3   167  ASN167      0.1653
     71  C         20.7760   13.4220  123.3410 C.2   167  ASN167      0.2266
     72  O         19.8920   14.2460  123.0760 O.2   167  ASN167     -0.2867
     73  CB        21.9010   13.5140  125.5760 C.3   167  ASN167      0.1155
     74  CG        21.8020   13.1610  127.0420 C.2   167  ASN167      0.2627
     75  OD1       20.9670   13.7020  127.7660 O.2   167  ASN167     -0.2716
     76  ND2       22.6570   12.2510  127.4910 N.am  167  ASN167     -0.0877
     77  N         17.4860   12.3800  121.5250 N.3   170  LEU170     -0.1245
     78  CA        16.4170   13.1970  122.0890 C.3   170  LEU170      0.1561
     79  C         16.4730   14.6250  121.5570 C.2   170  LEU170      0.2260
     80  O         15.4390   15.2160  121.2230 O.2   170  LEU170     -0.2867
     81  CB        16.5070   13.1930  123.6130 C.3   170  LEU170      0.0270
     82  CG        15.3900   13.9440  124.3350 C.3   170  LEU170      0.0019
     83  CD1       14.0440   13.3350  123.9830 C.3   170  LEU170      0.0001
     84  CD2       15.6130   13.9320  125.8400 C.3   170  LEU170      0.0001
@<TRIPOS>BOND
     1     1     2    1
     2     9    10    1
     3    80    79    2
     4     2     3    1
     5     2     5    1
     6    77    78    1
     7    79    78    1
     8    10    13    1
     9    10    11    1
    10     3     4    2
    11    29    27   ar
    12    29    28   ar
    13    78    81    1
    14    27    25   ar
    15     5     6    1
    16     8     7    1
    17     6     7    1
    18    28    26   ar
    19    11    14   am
    20    11    12    2
    21    25    24   ar
    22    14    15    1
    23    72    71    2
    24    19    20    1
    25    71    70    1
    26    16    15    1
    27    16    17    2
    28    26    24   ar
    29    81    82    1
    30    24    23    1
    31    83    82    1
    32    15    18    1
    33    82    84    1
    34    20    23    1
    35    20    21    1
    36    69    70    1
    37    70    73    1
    38    21    30   am
    39    21    22    2
    40    73    74    1
    41    30    31    1
    42    63    62    2
    43    62    61    1
    44    32    31    1
    45    32    33    2
    46    31    34    1
    47    60    61    1
    48    74    76   am
    49    74    75    2
    50    55    54    2
    51    34    35    1
    52    34    36    1
    53    54    53    1
    54    61    64    1
    55    35    37    1
    56    64    65    1
    57    53    56    1
    58    53    52    1
    59    56    57    1
    60    65    66    1
    61    40    41    2
    62    40    39    1
    63    57    58    1
    64    57    59    1
    65    38    39    1
    66    66    67    1
    67    39    42    1
    68    42    43    1
    69    67    68    1
    70    43    44   ar
    71    43    45   ar
    72    44    46   ar
    73    45    48   ar
    74    45    47   ar
    75    48    50   ar
    76    46    47   ar
    77    47    49   ar
    78    50    51   ar
    79    49    51   ar
