@<TRIPOS>MOLECULE
tmp/5l8rF48.pdb
 89 86 0 0 0
SMALL
GASTEIGER

@<TRIPOS>ATOM
      1  N         27.0070   16.1870   62.0890 N.3   427  PHE427     -0.1227
      2  CA        27.0700   17.5980   62.4540 C.3   427  PHE427      0.1736
      3  C         26.0040   18.3980   61.7140 C.2   427  PHE427      0.2595
      4  O         25.1750   19.0830   62.3340 O.2   427  PHE427     -0.2718
      5  CB        28.4720   18.1380   62.1600 C.3   427  PHE427      0.0547
      6  CG        28.6020   19.6170   62.3350 C.ar  427  PHE427     -0.0202
      7  CD1       28.8690   20.1590   63.5770 C.ar  427  PHE427     -0.0042
      8  CD2       28.4730   20.4700   61.2540 C.ar  427  PHE427     -0.0042
      9  CE1       28.9820   21.5260   63.7440 C.ar  427  PHE427     -0.0003
     10  CE2       28.5910   21.8360   61.4170 C.ar  427  PHE427     -0.0003
     11  CZ        28.8430   22.3620   62.6630 C.ar  427  PHE427     -0.0000
     12  N         25.9950   18.2990   60.3820 N.am  428  LEU428     -0.1980
     13  CA        24.9920   19.0030   59.5920 C.3   428  LEU428      0.1596
     14  C         23.5800   18.6430   60.0380 C.2   428  LEU428      0.2287
     15  O         22.7220   19.5220   60.1730 O.2   428  LEU428     -0.2864
     16  CB        25.1800   18.6930   58.1080 C.3   428  LEU428      0.0297
     17  CG        26.4620   19.1970   57.4430 C.3   428  LEU428      0.0022
     18  CD1       26.5930   18.6130   56.0430 C.3   428  LEU428      0.0001
     19  CD2       26.4990   20.7270   57.4040 C.3   428  LEU428      0.0001
     20  N         22.6160   19.9720   63.6760 N.3   431  HIS431     -0.1226
     21  CA        22.5010   21.4140   63.8600 C.3   431  HIS431      0.1752
     22  C         21.4800   22.0560   62.9400 C.2   431  HIS431      0.2596
     23  O         20.7800   22.9800   63.3590 O.2   431  HIS431     -0.2718
     24  CB        23.8650   22.0720   63.6870 C.3   431  HIS431      0.0759
     25  CG        24.8570   21.6090   64.6970 C.ar  431  HIS431      0.0818
     26  ND1       25.6540   20.5040   64.5000 N.ar  431  HIS431     -0.2268
     27  CD2       25.1280   22.0540   65.9440 C.ar  431  HIS431      0.1154
     28  CE1       26.4040   20.3120   65.5700 C.ar  431  HIS431      0.1986
     29  NE2       26.1080   21.2430   66.4560 N.ar  431  HIS431     -0.2212
     30  N         21.3730   21.5970   61.6960 N.am  432  THR432     -0.1953
     31  CA        20.3340   22.1340   60.8280 C.3   432  THR432      0.1897
     32  C         18.9530   21.8030   61.3850 C.2   432  THR432      0.2313
     33  O         18.0980   22.6930   61.5420 O.2   432  THR432     -0.2863
     34  CB        20.5140   21.6020   59.4060 C.3   432  THR432      0.1794
     35  OG1       21.8550   21.8700   58.9760 O.3   432  THR432     -0.2208
     36  CG2       19.5610   22.2970   58.4560 C.3   432  THR432      0.0378
     37  N         18.3640   23.8950   64.6380 N.3   435  LEU435     -0.1245
     38  CA        17.9960   25.2910   64.4440 C.3   435  LEU435      0.1561
     39  C         16.5730   25.4140   63.9150 C.2   435  LEU435      0.2260
     40  O         15.8070   26.2650   64.3840 O.2   435  LEU435     -0.2867
     41  CB        19.0020   25.9750   63.5160 C.3   435  LEU435      0.0270
     42  CG        20.4150   26.0010   64.1170 C.3   435  LEU435      0.0019
     43  CD1       21.4210   26.6540   63.1920 C.3   435  LEU435      0.0001
     44  CD2       20.4160   26.6830   65.4650 C.3   435  LEU435      0.0001
     45  N         17.0470   31.7830   65.9430 N.3   452  ILE452     -0.1245
     46  CA        18.4540   31.8180   65.5630 C.3   452  ILE452      0.1561
     47  C         18.4960   31.9790   64.0480 C.2   452  ILE452      0.2260
     48  O         18.2920   31.0190   63.2980 O.2   452  ILE452     -0.2867
     49  CB        19.2060   30.5720   66.0300 C.3   452  ILE452      0.0252
     50  CG1       19.0560   30.4070   67.5420 C.3   452  ILE452      0.0019
     51  CG2       20.6750   30.6800   65.6490 C.3   452  ILE452      0.0019
     52  CD1       19.6660   29.1520   68.0850 C.3   452  ILE452      0.0001
     53  N         20.9060   33.1270   61.1300 N.3   454  ILE454     -0.1245
     54  CA        22.3020   33.3650   60.7930 C.3   454  ILE454      0.1561
     55  C         22.3610   33.9320   59.3830 C.2   454  ILE454      0.2260
     56  O         21.8400   33.3280   58.4380 O.2   454  ILE454     -0.2867
     57  CB        23.1340   32.0810   60.9130 C.3   454  ILE454      0.0252
     58  CG1       23.1020   31.5710   62.3550 C.3   454  ILE454      0.0019
     59  CG2       24.5580   32.3270   60.4680 C.3   454  ILE454      0.0019
     60  CD1       23.8760   30.2790   62.5740 C.3   454  ILE454      0.0001
     61  N         20.2850   30.4070   54.3200 N.3   516  PHE516     -0.1227
     62  CA        21.3150   29.7370   55.1110 C.3   516  PHE516      0.1736
     63  C         20.8550   28.3500   55.5390 C.2   516  PHE516      0.2595
     64  O         21.5210   27.3370   55.2620 O.2   516  PHE516     -0.2718
     65  CB        21.6510   30.6010   56.3300 C.3   516  PHE516      0.0547
     66  CG        22.6580   29.9960   57.2700 C.ar  516  PHE516     -0.0202
     67  CD1       24.0170   30.2150   57.0850 C.ar  516  PHE516     -0.0042
     68  CD2       22.2470   29.2550   58.3700 C.ar  516  PHE516     -0.0042
     69  CE1       24.9470   29.6870   57.9660 C.ar  516  PHE516     -0.0003
     70  CE2       23.1700   28.7220   59.2480 C.ar  516  PHE516     -0.0003
     71  CZ        24.5210   28.9370   59.0440 C.ar  516  PHE516     -0.0000
     72  N         19.6900   28.2880   56.1950 N.am  517  LEU517     -0.1980
     73  CA        19.2110   27.0150   56.7260 C.3   517  LEU517      0.1596
     74  C         18.9970   25.9880   55.6170 C.2   517  LEU517      0.2287
     75  O         19.4760   24.8460   55.7160 O.2   517  LEU517     -0.2864
     76  CB        17.9330   27.2380   57.5330 C.3   517  LEU517      0.0297
     77  CG        18.1620   27.9450   58.8750 C.3   517  LEU517      0.0022
     78  CD1       16.8460   28.4430   59.4710 C.3   517  LEU517      0.0001
     79  CD2       18.8980   27.0520   59.8690 C.3   517  LEU517      0.0001
     80  N         22.1160   24.5080   54.3340 N.3   520  HIS520     -0.1241
     81  CA        22.7380   23.5020   55.1830 C.3   520  HIS520      0.1621
     82  C         21.9800   22.1820   55.1630 C.2   520  HIS520      0.2264
     83  O         22.5970   21.1210   55.3160 O.2   520  HIS520     -0.2867
     84  CB        22.8950   24.0510   56.5940 C.3   520  HIS520      0.0745
     85  CG        23.9890   25.0550   56.6960 C.ar  520  HIS520      0.0817
     86  ND1       23.9040   26.3000   56.1130 N.ar  520  HIS520     -0.2268
     87  CD2       25.2210   24.9810   57.2500 C.ar  520  HIS520      0.1154
     88  CE1       25.0250   26.9620   56.3320 C.ar  520  HIS520      0.1986
     89  NE2       25.8360   26.1870   57.0270 N.ar  520  HIS520     -0.2212
@<TRIPOS>BOND
     1    61    62    1
     2    80    81    1
     3    62    63    1
     4    62    65    1
     5    82    81    1
     6    82    83    2
     7    81    84    1
     8    64    63    2
     9    63    72   am
    10    74    75    2
    11    74    73    1
    12    18    17    1
    13    86    88   ar
    14    86    85   ar
    15    72    73    1
    16    65    66    1
    17    88    89   ar
    18    84    85    1
    19    85    87   ar
    20    73    76    1
    21    89    87   ar
    22    67    66   ar
    23    67    69   ar
    24    66    68   ar
    25    19    17    1
    26    17    16    1
    27    76    77    1
    28    69    71   ar
    29    16    13    1
    30    68    70   ar
    31    56    55    2
    32    36    34    1
    33    77    78    1
    34    77    79    1
    35    35    34    1
    36    71    70   ar
    37    55    54    1
    38    34    31    1
    39    13    14    1
    40    13    12    1
    41    14    15    2
    42    12     3   am
    43    59    57    1
    44    54    57    1
    45    54    53    1
    46    31    32    1
    47    31    30    1
    48    57    58    1
    49     8    10   ar
    50     8     6   ar
    51    32    33    2
    52    10    11   ar
    53    30    22   am
    54     3     4    2
    55     3     2    1
    56     1     2    1
    57     5     6    1
    58     5     2    1
    59     6     7   ar
    60    58    60    1
    61    11     9   ar
    62    22    23    2
    63    22    21    1
    64    43    42    1
    65    48    47    2
    66    41    42    1
    67    41    38    1
    68     7     9   ar
    69    20    21    1
    70    24    21    1
    71    24    25    1
    72    39    40    2
    73    39    38    1
    74    47    46    1
    75    42    44    1
    76    38    37    1
    77    26    25   ar
    78    26    28   ar
    79    25    27   ar
    80    46    45    1
    81    46    49    1
    82    28    29   ar
    83    51    49    1
    84    27    29   ar
    85    49    50    1
    86    50    52    1
