@<TRIPOS>MOLECULE
tmp/5l8rE26.pdb
 143 145 0 0 0
SMALL
GASTEIGER

@<TRIPOS>ATOM
      1  N         -9.3580  -14.3420   48.9920 N.3   433  TRP433     -0.1227
      2  CA       -10.2920  -13.9450   47.9410 C.3   433  TRP433      0.1737
      3  C        -11.2470  -12.8520   48.4180 C.2   433  TRP433      0.2595
      4  O        -11.4330  -11.8360   47.7350 O.2   433  TRP433     -0.2718
      5  CB       -11.0850  -15.1490   47.4340 C.3   433  TRP433      0.0564
      6  CG       -12.2210  -14.7030   46.5820 C.ar  433  TRP433      0.0003
      7  CD1      -12.1460  -14.2140   45.3150 C.ar  433  TRP433      0.0946
      8  CD2      -13.6040  -14.6600   46.9470 C.ar  433  TRP433      0.0152
      9  NE1      -13.3970  -13.8790   44.8570 N.ar  433  TRP433     -0.2442
     10  CE2      -14.3120  -14.1450   45.8410 C.ar  433  TRP433      0.0810
     11  CE3      -14.3150  -15.0210   48.0940 C.ar  433  TRP433      0.0012
     12  CZ2      -15.6960  -13.9780   45.8510 C.ar  433  TRP433      0.0191
     13  CZ3      -15.6870  -14.8550   48.1040 C.ar  433  TRP433      0.0001
     14  CH2      -16.3650  -14.3360   46.9890 C.ar  433  TRP433      0.0015
     15  N        -11.8680  -13.0460   49.5880 N.am  434  VAL434     -0.1980
     16  CA       -12.8130  -12.0530   50.0990 C.3   434  VAL434      0.1595
     17  C        -12.1380  -10.6940   50.2390 C.2   434  VAL434      0.2287
     18  O        -12.7410   -9.6500   49.9650 O.2   434  VAL434     -0.2864
     19  CB       -13.4190  -12.5240   51.4340 C.3   434  VAL434      0.0276
     20  CG1      -14.2950  -11.4410   52.0400 C.3   434  VAL434      0.0022
     21  CG2      -14.2350  -13.7590   51.2210 C.3   434  VAL434      0.0022
     22  N        -11.9010   -9.1520   46.6620 N.3   437  PHE437     -0.1227
     23  CA       -13.2360   -8.7080   46.2690 C.3   437  PHE437      0.1736
     24  C        -13.6460   -7.4360   47.0030 C.2   437  PHE437      0.2595
     25  O        -14.2170   -6.5170   46.4020 O.2   437  PHE437     -0.2718
     26  CB       -14.2450   -9.8310   46.5290 C.3   437  PHE437      0.0547
     27  CG       -15.6790   -9.3980   46.4330 C.ar  437  PHE437     -0.0202
     28  CD1      -16.2840   -9.2320   45.1980 C.ar  437  PHE437     -0.0042
     29  CD2      -16.4260   -9.1640   47.5800 C.ar  437  PHE437     -0.0042
     30  CE1      -17.6090   -8.8330   45.1030 C.ar  437  PHE437     -0.0003
     31  CE2      -17.7510   -8.7660   47.4940 C.ar  437  PHE437     -0.0003
     32  CZ       -18.3430   -8.6000   46.2530 C.ar  437  PHE437     -0.0000
     33  N        -13.3540   -7.3620   48.3040 N.am  438  LEU438     -0.1980
     34  CA       -13.7440   -6.1920   49.0850 C.3   438  LEU438      0.1596
     35  C        -12.9080   -4.9720   48.7190 C.2   438  LEU438      0.2287
     36  O        -13.4340   -3.8550   48.6520 O.2   438  LEU438     -0.2864
     37  CB       -13.6360   -6.5010   50.5770 C.3   438  LEU438      0.0297
     38  CG       -14.7700   -7.3850   51.0960 C.3   438  LEU438      0.0022
     39  CD1      -14.5500   -7.7560   52.5520 C.3   438  LEU438      0.0001
     40  CD2      -16.1110   -6.6870   50.9070 C.3   438  LEU438      0.0001
     41  N        -27.6690    2.6830   48.3290 N.3   470  GLN470     -0.1231
     42  CA       -28.2680    2.9880   49.6230 C.3   470  GLN470      0.1683
     43  C        -28.0410    1.8450   50.6070 C.2   470  GLN470      0.2434
     44  O        -28.2510    0.6780   50.2560 O.2   470  GLN470     -0.2733
     45  CB       -29.7610    3.2480   49.4670 C.3   470  GLN470      0.0380
     46  CG       -30.0820    4.4670   48.6330 C.3   470  GLN470      0.0905
     47  CD       -29.5980    5.7520   49.2760 C.2   470  GLN470      0.2608
     48  OE1      -29.3760    5.8090   50.4870 O.2   470  GLN470     -0.2717
     49  NE2      -29.4290    6.7920   48.4660 N.am  470  GLN470     -0.0878
     50  N        -27.6160    2.1380   51.8420 N.am  471  PRO471     -0.2718
     51  CA       -27.5770    1.0960   52.8780 C.3   471  PRO471      0.1535
     52  C        -28.9740    0.7420   53.3680 C.2   471  PRO471      0.2598
     53  O        -29.3490    1.0770   54.4970 O.2   471  PRO471     -0.2715
     54  CB       -26.7310    1.7370   53.9860 C.3   471  PRO471      0.0310
     55  CG       -26.9600    3.2110   53.8130 C.3   471  PRO471      0.0237
     56  CD       -27.1130    3.4340   52.3310 C.3   471  PRO471      0.0939
     57  N        -29.7450    0.0580   52.5170 N.am  472  VAL472     -0.1964
     58  CA       -31.1590   -0.1960   52.7960 C.3   472  VAL472      0.1727
     59  C        -31.3310   -0.9540   54.1050 C.2   472  VAL472      0.2616
     60  O        -32.2520   -0.6770   54.8840 O.2   472  VAL472     -0.2715
     61  CB       -31.7970   -0.9550   51.6190 C.3   472  VAL472      0.0290
     62  CG1      -33.2410   -1.3120   51.9350 C.3   472  VAL472      0.0023
     63  CG2      -31.7050   -0.1260   50.3490 C.3   472  VAL472      0.0023
     64  N        -30.4500   -1.9170   54.3700 N.am  473  PHE473     -0.1960
     65  CA       -30.5870   -2.7360   55.5680 C.3   473  PHE473      0.1771
     66  C        -30.4150   -1.9000   56.8320 C.2   473  PHE473      0.2619
     67  O        -31.2700   -1.9300   57.7270 O.2   473  PHE473     -0.2715
     68  CB       -29.5790   -3.8840   55.5220 C.3   473  PHE473      0.0574
     69  CG       -29.7380   -4.7790   54.3220 C.ar  473  PHE473     -0.0200
     70  CD1      -30.9980   -5.1830   53.9010 C.ar  473  PHE473     -0.0042
     71  CD2      -28.6300   -5.2070   53.6070 C.ar  473  PHE473     -0.0042
     72  CE1      -31.1510   -6.0060   52.7970 C.ar  473  PHE473     -0.0003
     73  CE2      -28.7750   -6.0290   52.5020 C.ar  473  PHE473     -0.0003
     74  CZ       -30.0390   -6.4270   52.0950 C.ar  473  PHE473     -0.0000
     75  N        -29.3220   -1.1350   56.9170 N.am  474  ALA474     -0.1977
     76  CA       -29.0990   -0.2950   58.0900 C.3   474  ALA474      0.1597
     77  C        -30.2150    0.7320   58.2560 C.2   474  ALA474      0.2287
     78  O        -30.6760    0.9820   59.3770 O.2   474  ALA474     -0.2864
     79  CB       -27.7350    0.3900   57.9890 C.3   474  ALA474      0.0319
     80  N        -28.0500    8.2740   56.4990 N.3   519  LEU519     -0.1245
     81  CA       -27.2350    7.2380   55.8770 C.3   519  LEU519      0.1561
     82  C        -27.4740    7.2490   54.3750 C.2   519  LEU519      0.2260
     83  O        -28.6250    7.2660   53.9260 O.2   519  LEU519     -0.2867
     84  CB       -27.5500    5.8570   56.4660 C.3   519  LEU519      0.0270
     85  CG       -27.1550    5.6740   57.9350 C.3   519  LEU519      0.0019
     86  CD1      -27.6400    4.3390   58.4640 C.3   519  LEU519      0.0001
     87  CD2      -25.6450    5.8110   58.1210 C.3   519  LEU519      0.0001
     88  N        -22.4690    4.0320   52.8540 N.3   524  PHE524     -0.1241
     89  CA       -22.3160    2.7090   52.2600 C.3   524  PHE524      0.1605
     90  C        -20.8600    2.4430   51.8830 C.2   524  PHE524      0.2264
     91  O        -20.2300    1.4990   52.3840 O.2   524  PHE524     -0.2867
     92  CB       -23.2380    2.6250   51.0380 C.3   524  PHE524      0.0534
     93  CG       -23.2370    1.2950   50.3340 C.ar  524  PHE524     -0.0203
     94  CD1      -24.1850    0.3310   50.6410 C.ar  524  PHE524     -0.0042
     95  CD2      -22.3250    1.0300   49.3260 C.ar  524  PHE524     -0.0042
     96  CE1      -24.2020   -0.8840   49.9780 C.ar  524  PHE524     -0.0003
     97  CE2      -22.3350   -0.1810   48.6630 C.ar  524  PHE524     -0.0003
     98  CZ       -23.2780   -1.1380   48.9860 C.ar  524  PHE524     -0.0000
     99  N        -18.5030    2.1910   54.8100 N.3   527  HIS527     -0.1226
    100  CA       -18.6870    0.9820   55.6050 C.3   527  HIS527      0.1752
    101  C        -18.0490   -0.2220   54.9310 C.2   527  HIS527      0.2596
    102  O        -17.4470   -1.0740   55.6010 O.2   527  HIS527     -0.2718
    103  CB       -20.1700    0.7290   55.8560 C.3   527  HIS527      0.0759
    104  CG       -20.7250    1.5140   57.0000 C.ar  527  HIS527      0.0818
    105  ND1      -21.4990    2.6400   56.8230 N.ar  527  HIS527     -0.2268
    106  CD2      -20.6100    1.3410   58.3370 C.ar  527  HIS527      0.1154
    107  CE1      -21.8460    3.1200   58.0020 C.ar  527  HIS527      0.1986
    108  NE2      -21.3150    2.3530   58.9370 N.ar  527  HIS527     -0.2212
    109  N        -18.1540   -0.3100   53.6050 N.am  528  HIS528     -0.1975
    110  CA       -17.4380   -1.3850   52.9290 C.3   528  HIS528      0.1656
    111  C        -15.9280   -1.1930   53.0040 C.2   528  HIS528      0.2291
    112  O        -15.1850   -2.1790   52.9710 O.2   528  HIS528     -0.2864
    113  CB       -17.9030   -1.5030   51.4890 C.3   528  HIS528      0.0771
    114  CG       -19.3210   -1.9490   51.3710 C.ar  528  HIS528      0.0820
    115  ND1      -19.6750   -3.2760   51.2640 N.ar  528  HIS528     -0.2267
    116  CD2      -20.4790   -1.2470   51.3690 C.ar  528  HIS528      0.1154
    117  CE1      -20.9890   -3.3680   51.1800 C.ar  528  HIS528      0.1986
    118  NE2      -21.5010   -2.1530   51.2510 N.ar  528  HIS528     -0.2212
    119  N        -14.5100   -0.1650   55.7610 N.3   530  HIS530     -0.1226
    120  CA       -14.2300   -0.7340   57.0770 C.3   530  HIS530      0.1752
    121  C        -14.2360   -2.2570   57.0290 C.2   530  HIS530      0.2595
    122  O        -13.3370   -2.9120   57.5760 O.2   530  HIS530     -0.2718
    123  CB       -15.2410   -0.2110   58.0970 C.3   530  HIS530      0.0759
    124  CG       -15.1450    1.2650   58.3240 C.ar  530  HIS530      0.0818
    125  ND1      -16.2450    2.0560   58.5780 N.ar  530  HIS530     -0.2268
    126  CD2      -14.0760    2.0950   58.3210 C.ar  530  HIS530      0.1154
    127  CE1      -15.8560    3.3100   58.7250 C.ar  530  HIS530      0.1986
    128  NE2      -14.5440    3.3600   58.5770 N.ar  530  HIS530     -0.2212
    129  N        -15.2450   -2.8370   56.3720 N.am  531  ALA531     -0.1980
    130  CA       -15.2560   -4.2770   56.1390 C.3   531  ALA531      0.1597
    131  C        -13.9400   -4.7340   55.5210 C.2   531  ALA531      0.2287
    132  O        -13.2660   -5.6240   56.0500 O.2   531  ALA531     -0.2864
    133  CB       -16.4340   -4.6530   55.2410 C.3   531  ALA531      0.0319
    134  N        -11.1150   -7.1470   57.2740 N.3   535  HIS535     -0.1241
    135  CA       -10.8620   -8.4650   56.7020 C.3   535  HIS535      0.1621
    136  C         -9.3880   -8.6690   56.3820 C.2   535  HIS535      0.2264
    137  O         -8.8690   -9.7810   56.5200 O.2   535  HIS535     -0.2867
    138  CB       -11.7150   -8.6700   55.4540 C.3   535  HIS535      0.0745
    139  CG       -13.1330   -9.0160   55.7600 C.ar  535  HIS535      0.0817
    140  ND1      -13.5660  -10.3160   55.8920 N.ar  535  HIS535     -0.2268
    141  CD2      -14.2140   -8.2330   55.9840 C.ar  535  HIS535      0.1154
    142  CE1      -14.8560  -10.3170   56.1700 C.ar  535  HIS535      0.1986
    143  NE2      -15.2740   -9.0670   56.2350 N.ar  535  HIS535     -0.2212
@<TRIPOS>BOND
     1     9     7   ar
     2     9    10   ar
     3    30    28   ar
     4    30    32   ar
     5    28    27   ar
     6     7     6   ar
     7    10    12   ar
     8    10     8   ar
     9    12    14   ar
    10    32    31   ar
    11    23    26    1
    12    23    22    1
    13    23    24    1
    14    25    24    2
    15    27    26    1
    16    27    29   ar
    17     6     8   ar
    18     6     5    1
    19     8    11   ar
    20    14    13   ar
    21    24    33   am
    22     5     2    1
    23    31    29   ar
    24     4     3    2
    25     2     3    1
    26     2     1    1
    27    11    13   ar
    28    33    34    1
    29    41    42    1
    30     3    15   am
    31    49    47   am
    32    46    47    1
    33    46    45    1
    34    36    35    2
    35    97    98   ar
    36    97    95   ar
    37    35    34    1
    38    98    96   ar
    39    34    37    1
    40    47    48    2
    41    95    93   ar
    42    45    42    1
    43    15    16    1
    44    42    43    1
    45    18    17    2
    46    96    94   ar
    47    16    17    1
    48    16    19    1
    49    44    43    2
    50    93    94   ar
    51    93    92    1
    52    63    61    1
    53    37    38    1
    54    43    50   am
    55    40    38    1
    56    92    89    1
    57    38    39    1
    58   117   118   ar
    59   117   115   ar
    60    21    19    1
    61   118   116   ar
    62   115   114   ar
    63   116   114   ar
    64   114   113    1
    65    19    20    1
    66   113   110    1
    67    61    62    1
    68    61    58    1
    69    50    56    1
    70    50    51    1
    71    90    89    1
    72    90    91    2
    73    74    73   ar
    74    74    72   ar
    75    89    88    1
    76    56    55    1
    77    73    71   ar
    78    57    58    1
    79    57    52   am
    80    58    59    1
    81    72    70   ar
    82    51    52    1
    83    51    54    1
    84   110   111    1
    85   110   109    1
    86   112   111    2
    87    52    53    2
    88   109   101   am
    89    71    69   ar
    90    55    54    1
    91    70    69   ar
    92    83    82    2
    93    59    64   am
    94    59    60    2
    95    69    68    1
    96    64    65    1
    97    82    81    1
    98    99   100    1
    99   101   102    2
   100   101   100    1
   101   133   130    1
   102   138   139    1
   103   138   135    1
   104   131   132    2
   105   131   130    1
   106    68    65    1
   107    65    66    1
   108   100   103    1
   109   139   140   ar
   110   139   141   ar
   111   119   120    1
   112   103   104    1
   113    81    84    1
   114    81    80    1
   115   140   142   ar
   116   141   143   ar
   117   130   129    1
   118   142   143   ar
   119   129   121   am
   120   136   137    2
   121   136   135    1
   122    84    85    1
   123   135   134    1
   124   105   104   ar
   125   105   107   ar
   126    66    75   am
   127    66    67    2
   128    75    76    1
   129   104   106   ar
   130   121   120    1
   131   121   122    2
   132   120   123    1
   133    85    87    1
   134    85    86    1
   135    79    76    1
   136   107   108   ar
   137    76    77    1
   138   123   124    1
   139    77    78    2
   140   126   124   ar
   141   126   128   ar
   142   124   125   ar
   143   106   108   ar
   144   128   127   ar
   145   125   127   ar
