@<TRIPOS>MOLECULE
tmp/5l8rE13.pdb
 124 114 0 0 0
SMALL
GASTEIGER

@<TRIPOS>ATOM
      1  N        -23.5100  -20.2690   88.2330 N.3   301  MET301     -0.1245
      2  CA       -23.6280  -21.2810   87.1940 C.3   301  MET301      0.1570
      3  C        -22.6640  -22.4400   87.4220 C.2   301  MET301      0.2261
      4  O        -22.9730  -23.5810   87.0620 O.2   301  MET301     -0.2867
      5  CB       -23.3900  -20.6490   85.8240 C.3   301  MET301      0.0387
      6  CG       -23.5330  -21.6220   84.6760 C.3   301  MET301      0.0595
      7  SD       -23.3250  -20.8690   83.0610 S.3   301  MET301     -0.1393
      8  CE       -23.0730  -22.3430   82.0740 C.3   301  MET301      0.0692
      9  N        -17.2530  -27.0230   83.9230 N.3   312  ILE312     -0.1245
     10  CA       -17.1030  -26.4750   82.5770 C.3   312  ILE312      0.1561
     11  C        -16.6240  -27.5520   81.6080 C.2   312  ILE312      0.2260
     12  O        -17.0410  -27.5890   80.4420 O.2   312  ILE312     -0.2867
     13  CB       -16.1620  -25.2570   82.6120 C.3   312  ILE312      0.0252
     14  CG1      -16.7320  -24.1880   83.5460 C.3   312  ILE312      0.0019
     15  CG2      -15.9800  -24.6730   81.2330 C.3   312  ILE312      0.0019
     16  CD1      -15.8880  -22.9500   83.6340 C.3   312  ILE312      0.0001
     17  N        -19.5560  -29.3600   80.1950 N.3   315  ILE315     -0.1231
     18  CA       -20.2530  -28.5780   79.1770 C.3   315  ILE315      0.1692
     19  C        -19.5070  -28.6460   77.8520 C.2   315  ILE315      0.2591
     20  O        -20.1020  -28.9120   76.8000 O.2   315  ILE315     -0.2718
     21  CB       -20.4340  -27.1240   79.6480 C.3   315  ILE315      0.0266
     22  CG1      -21.0780  -27.0850   81.0340 C.3   315  ILE315      0.0019
     23  CG2      -21.2870  -26.3530   78.6610 C.3   315  ILE315      0.0020
     24  CD1      -21.3660  -25.6810   81.5290 C.3   315  ILE315      0.0001
     25  N        -18.1900  -28.4100   77.8840 N.am  316  LEU316     -0.1980
     26  CA       -17.3850  -28.5080   76.6680 C.3   316  LEU316      0.1596
     27  C        -17.5740  -29.8590   75.9870 C.2   316  LEU316      0.2287
     28  O        -17.9230  -29.9280   74.8030 O.2   316  LEU316     -0.2864
     29  CB       -15.9040  -28.2860   76.9850 C.3   316  LEU316      0.0297
     30  CG       -15.2810  -26.8960   76.8220 C.3   316  LEU316      0.0022
     31  CD1      -15.9030  -26.1410   75.6580 C.3   316  LEU316      0.0001
     32  CD2      -15.4110  -26.0950   78.0920 C.3   316  LEU316      0.0001
     33  N        -20.5640  -30.8420   73.7380 N.3   319  HIS319     -0.1241
     34  CA       -20.8130  -30.0650   72.5270 C.3   319  HIS319      0.1621
     35  C        -19.9350  -30.5850   71.3940 C.2   319  HIS319      0.2264
     36  O        -18.7800  -30.1790   71.2520 O.2   319  HIS319     -0.2867
     37  CB       -20.5690  -28.5860   72.7980 C.3   319  HIS319      0.0745
     38  CG       -21.5690  -27.9800   73.7260 C.ar  319  HIS319      0.0817
     39  ND1      -21.4940  -28.1220   75.0940 N.ar  319  HIS319     -0.2268
     40  CD2      -22.6820  -27.2490   73.4820 C.ar  319  HIS319      0.1154
     41  CE1      -22.5110  -27.4930   75.6550 C.ar  319  HIS319      0.1986
     42  NE2      -23.2430  -26.9520   74.6990 N.ar  319  HIS319     -0.2212
     43  N        -17.7360  -31.4900   63.2680 N.3   324  THR324     -0.1218
     44  CA       -16.5890  -31.1060   64.0730 C.3   324  THR324      0.1862
     45  C        -16.0020  -32.2520   64.8830 C.2   324  THR324      0.2287
     46  O        -15.0860  -32.0210   65.6790 O.2   324  THR324     -0.2866
     47  CB       -16.9840  -29.9580   65.0090 C.3   324  THR324      0.1770
     48  OG1      -18.0560  -30.3840   65.8610 O.3   324  THR324     -0.2211
     49  CG2      -17.4380  -28.7500   64.2000 C.3   324  THR324      0.0375
     50  N        -14.3270  -29.6170   71.2470 N.3   328  HIS328     -0.1241
     51  CA       -14.3920  -29.0290   72.5870 C.3   328  HIS328      0.1621
     52  C        -13.7830  -29.9700   73.6120 C.2   328  HIS328      0.2264
     53  O        -13.4410  -29.5500   74.7220 O.2   328  HIS328     -0.2867
     54  CB       -15.8190  -28.6650   72.9990 C.3   328  HIS328      0.0745
     55  CG       -16.4780  -27.6760   72.0910 C.ar  328  HIS328      0.0817
     56  ND1      -17.3540  -28.0490   71.0960 N.ar  328  HIS328     -0.2268
     57  CD2      -16.3860  -26.3280   72.0260 C.ar  328  HIS328      0.1154
     58  CE1      -17.7780  -26.9720   70.4600 C.ar  328  HIS328      0.1986
     59  NE2      -17.2060  -25.9160   71.0070 N.ar  328  HIS328     -0.2212
     60  N        -10.3960  -28.7290   75.5650 N.3   331  LEU331     -0.1245
     61  CA       -10.1960  -27.2940   75.7360 C.3   331  LEU331      0.1561
     62  C        -10.0580  -26.9010   77.2030 C.2   331  LEU331      0.2260
     63  O         -9.3210  -25.9610   77.5150 O.2   331  LEU331     -0.2867
     64  CB       -11.3390  -26.5210   75.0770 C.3   331  LEU331      0.0270
     65  CG       -11.2690  -26.4230   73.5510 C.3   331  LEU331      0.0019
     66  CD1      -12.5250  -25.7810   72.9870 C.3   331  LEU331      0.0001
     67  CD2      -10.0340  -25.6490   73.1230 C.3   331  LEU331      0.0001
     68  N         -7.0350  -24.4660   78.3680 N.3   335  LEU335     -0.1245
     69  CA        -7.3430  -23.1790   78.9760 C.3   335  LEU335      0.1561
     70  C         -7.0150  -23.1130   80.4610 C.2   335  LEU335      0.2260
     71  O         -7.0390  -22.0180   81.0330 O.2   335  LEU335     -0.2867
     72  CB        -8.8190  -22.8470   78.7580 C.3   335  LEU335      0.0270
     73  CG        -9.1370  -22.5210   77.3030 C.3   335  LEU335      0.0019
     74  CD1      -10.6200  -22.2700   77.1170 C.3   335  LEU335      0.0001
     75  CD2       -8.3170  -21.3170   76.8570 C.3   335  LEU335      0.0001
     76  N         -7.7450  -15.0100   74.1960 N.3   345  ILE345     -0.1245
     77  CA        -9.1950  -14.8120   74.2140 C.3   345  ILE345      0.1561
     78  C         -9.5510  -13.4960   74.8980 C.2   345  ILE345      0.2260
     79  O        -10.4070  -12.7370   74.4200 O.2   345  ILE345     -0.2867
     80  CB        -9.8970  -16.0020   74.8920 C.3   345  ILE345      0.0252
     81  CG1       -9.5080  -17.3110   74.2140 C.3   345  ILE345      0.0019
     82  CG2      -11.4120  -15.8200   74.8540 C.3   345  ILE345      0.0019
     83  CD1      -10.0090  -18.5310   74.9510 C.3   345  ILE345      0.0001
     84  N         -7.0650  -31.2770   70.9200 N.3   414  ASN414     -0.1240
     85  CA        -8.4150  -30.7720   70.7050 C.3   414  ASN414      0.1653
     86  C         -8.8070  -31.0160   69.2570 C.2   414  ASN414      0.2266
     87  O         -8.0300  -30.7260   68.3430 O.2   414  ASN414     -0.2867
     88  CB        -8.5330  -29.2820   71.0330 C.3   414  ASN414      0.1155
     89  CG        -9.9630  -28.7890   70.9430 C.2   414  ASN414      0.2627
     90  OD1      -10.8980  -29.4920   71.3280 O.2   414  ASN414     -0.2716
     91  ND2      -10.1430  -27.5860   70.4180 N.am  414  ASN414     -0.0877
     92  N        -11.3470  -29.6720   67.3810 N.3   416  LEU416     -0.1231
     93  CA       -11.6230  -28.4700   66.5990 C.3   416  LEU416      0.1693
     94  C        -10.3330  -27.8450   66.0820 C.2   416  LEU416      0.2591
     95  O        -10.2110  -27.5280   64.8890 O.2   416  LEU416     -0.2718
     96  CB       -12.4020  -27.4650   67.4480 C.3   416  LEU416      0.0284
     97  CG       -13.7730  -27.8930   67.9730 C.3   416  LEU416      0.0019
     98  CD1      -14.2880  -26.9220   69.0330 C.3   416  LEU416      0.0001
     99  CD2      -14.7580  -28.0080   66.8320 C.3   416  LEU416      0.0001
    100  N         -9.3520  -27.6700   66.9730 N.am  417  LEU417     -0.1980
    101  CA        -8.0810  -27.0750   66.5770 C.3   417  LEU417      0.1596
    102  C         -7.3880  -27.9140   65.5120 C.2   417  LEU417      0.2287
    103  O         -6.8630  -27.3770   64.5250 O.2   417  LEU417     -0.2864
    104  CB        -7.1840  -26.9060   67.8030 C.3   417  LEU417      0.0297
    105  CG        -5.8180  -26.2720   67.5450 C.3   417  LEU417      0.0022
    106  CD1       -5.9670  -24.9660   66.7740 C.3   417  LEU417      0.0001
    107  CD2       -5.0950  -26.0370   68.8550 C.3   417  LEU417      0.0001
    108  N         -9.1980  -27.3930   62.0980 N.3   420  VAL420     -0.1245
    109  CA        -8.8020  -26.0970   61.5450 C.3   420  VAL420      0.1561
    110  C         -7.4180  -26.1950   60.9150 C.2   420  VAL420      0.2260
    111  O         -7.2260  -25.8890   59.7280 O.2   420  VAL420     -0.2867
    112  CB        -8.8530  -25.0080   62.6320 C.3   420  VAL420      0.0252
    113  CG1       -8.1560  -23.7490   62.1570 C.3   420  VAL420      0.0019
    114  CG2      -10.2950  -24.7050   63.0070 C.3   420  VAL420      0.0019
    115  N        -11.1150   -7.1470   57.2740 N.3   535  HIS535     -0.1241
    116  CA       -10.8620   -8.4650   56.7020 C.3   535  HIS535      0.1621
    117  C         -9.3880   -8.6690   56.3820 C.2   535  HIS535      0.2264
    118  O         -8.8690   -9.7810   56.5200 O.2   535  HIS535     -0.2867
    119  CB       -11.7150   -8.6700   55.4540 C.3   535  HIS535      0.0745
    120  CG       -13.1330   -9.0160   55.7600 C.ar  535  HIS535      0.0817
    121  ND1      -13.5660  -10.3160   55.8920 N.ar  535  HIS535     -0.2268
    122  CD2      -14.2140   -8.2330   55.9840 C.ar  535  HIS535      0.1154
    123  CE1      -14.8560  -10.3170   56.1700 C.ar  535  HIS535      0.1986
    124  NE2      -15.2740   -9.0670   56.2350 N.ar  535  HIS535     -0.2212
@<TRIPOS>BOND
     1   119   120    1
     2   119   116    1
     3   120   121   ar
     4   120   122   ar
     5   121   123   ar
     6   122   124   ar
     7   123   124   ar
     8   117   118    2
     9   117   116    1
    10   116   115    1
    11   111   110    2
    12   110   109    1
    13   109   108    1
    14   109   112    1
    15   113   112    1
    16   112   114    1
    17    43    44    1
    18    44    45    1
    19    44    47    1
    20    49    47    1
    21   103   102    2
    22    45    46    2
    23    95    94    2
    24    47    48    1
    25   102   101    1
    26    94    93    1
    27    94   100   am
    28   101   100    1
    29   101   104    1
    30    93    92    1
    31    93    96    1
    32   106   105    1
    33    99    97    1
    34    96    97    1
    35   105   104    1
    36   105   107    1
    37    97    98    1
    38    87    86    2
    39    86    85    1
    40    91    89   am
    41    58    59   ar
    42    58    56   ar
    43    85    84    1
    44    85    88    1
    45    89    88    1
    46    89    90    2
    47    59    57   ar
    48    56    55   ar
    49    50    51    1
    50    36    35    2
    51    35    34    1
    52    57    55   ar
    53    55    54    1
    54    34    37    1
    55    34    33    1
    56    51    54    1
    57    51    52    1
    58    37    38    1
    59    66    65    1
    60    67    65    1
    61    40    38   ar
    62    40    42   ar
    63    65    64    1
    64    52    53    2
    65    38    39   ar
    66    76    77    1
    67    77    80    1
    68    77    78    1
    69    81    80    1
    70    81    83    1
    71    79    78    2
    72    42    41   ar
    73    28    27    2
    74    82    80    1
    75    64    61    1
    76    39    41   ar
    77    60    61    1
    78    31    30    1
    79    61    62    1
    80    27    26    1
    81    26    29    1
    82    26    25    1
    83    20    19    2
    84    30    29    1
    85    30    32    1
    86    75    73    1
    87    74    73    1
    88    62    63    2
    89    73    72    1
    90    19    25   am
    91    19    18    1
    92    68    69    1
    93    23    21    1
    94    72    69    1
    95    69    70    1
    96    18    21    1
    97    18    17    1
    98    21    22    1
    99    12    11    2
   100    70    71    2
   101    22    24    1
   102    15    13    1
   103    11    10    1
   104     8     7    1
   105    10    13    1
   106    10     9    1
   107    13    14    1
   108     7     6    1
   109    14    16    1
   110     6     5    1
   111     5     2    1
   112     4     3    2
   113     2     3    1
   114     2     1    1
