@<TRIPOS>MOLECULE
tmp/5l8rA03.pdb
 136 132 0 0 0
SMALL
GASTEIGER

@<TRIPOS>ATOM
      1  N         68.5780   19.4920   42.0660 N.3    36  ARG36      -0.1245
      2  CA        67.7470   20.4580   41.3530 C.3    36  ARG36       0.1563
      3  C         67.5430   21.7260   42.1760 C.2    36  ARG36       0.2260
      4  O         67.5410   22.8390   41.6340 O.2    36  ARG36      -0.2867
      5  CB        66.4020   19.8200   41.0000 C.3    36  ARG36       0.0307
      6  CG        65.2920   20.8170   40.7170 C.3    36  ARG36       0.0489
      7  CD        64.0820   20.1380   40.1040 C.3    36  ARG36       0.2205
      8  NE        63.7370   20.7440   38.8230 N.pl3  36  ARG36      -0.0865
      9  CZ        62.8560   21.7260   38.6750 C.cat  36  ARG36       0.5346
     10  NH1       62.2170   22.2110   39.7300 N.pl3  36  ARG36       0.1354
     11  NH2       62.6100   22.2210   37.4700 N.pl3  36  ARG36       0.1354
     12  N         70.6990   24.0030   42.0800 N.3    39  GLU39      -0.1231
     13  CA        70.6770   24.7670   40.8360 C.3    39  GLU39       0.1699
     14  C         69.6730   25.9160   40.9120 C.2    39  GLU39       0.2592
     15  O         70.0300   27.0890   40.7310 O.2    39  GLU39      -0.2718
     16  CB        70.3530   23.8410   39.6650 C.3    39  GLU39       0.0402
     17  CG        70.3040   24.5430   38.3240 C.3    39  GLU39       0.1161
     18  CD        69.6240   23.7060   37.2650 C.2    39  GLU39       0.3649
     19  OE1       69.1900   22.5780   37.5890 O.co2  39  GLU39      -0.2457
     20  OE2       69.5070   24.1820   36.1160 O.co2  39  GLU39      -0.2457
     21  N         68.4070   25.5940   41.2000 N.am   40  SER40      -0.1952
     22  CA        67.3600   26.6130   41.1820 C.3    40  SER40       0.1924
     23  C         67.6270   27.7080   42.2080 C.2    40  SER40       0.2314
     24  O         67.3660   28.8910   41.9500 O.2    40  SER40      -0.2863
     25  CB        65.9990   25.9720   41.4360 C.3    40  SER40       0.2116
     26  OG        64.9710   26.9260   41.2510 O.3    40  SER40      -0.2180
     27  N         70.0280   30.0450   40.7740 N.3    43  ILE43      -0.1231
     28  CA        69.4070   30.8620   39.7310 C.3    43  ILE43       0.1692
     29  C         68.6340   32.0200   40.3520 C.2    43  ILE43       0.2592
     30  O         68.7720   33.1780   39.9340 O.2    43  ILE43      -0.2718
     31  CB        68.5080   29.9980   38.8290 C.3    43  ILE43       0.0266
     32  CG1       69.3120   28.8460   38.2240 C.3    43  ILE43       0.0019
     33  CG2       67.8910   30.8430   37.7270 C.3    43  ILE43       0.0020
     34  CD1       70.6110   29.2780   37.5700 C.3    43  ILE43       0.0001
     35  N         67.8160   31.7270   41.3700 N.am   44  HIS44      -0.1976
     36  CA        67.0930   32.7910   42.0640 C.3    44  HIS44       0.1656
     37  C         68.0510   33.7760   42.7190 C.2    44  HIS44       0.2291
     38  O         67.8220   34.9910   42.6870 O.2    44  HIS44      -0.2864
     39  CB        66.1550   32.2000   43.1140 C.3    44  HIS44       0.0771
     40  CG        64.9940   31.4550   42.5380 C.ar   44  HIS44       0.0820
     41  ND1       65.0390   30.1060   42.2600 N.ar   44  HIS44      -0.2267
     42  CD2       63.7540   31.8710   42.1910 C.ar   44  HIS44       0.1154
     43  CE1       63.8760   29.7230   41.7650 C.ar   44  HIS44       0.1986
     44  NE2       63.0800   30.7750   41.7110 N.ar   44  HIS44      -0.2212
     45  N         69.5230   36.0230   39.8550 N.3    47  TRP47      -0.1241
     46  CA        68.5020   36.9600   39.3920 C.3    47  TRP47       0.1605
     47  C         68.2550   38.0530   40.4240 C.2    47  TRP47       0.2264
     48  O         68.0880   39.2250   40.0700 O.2    47  TRP47      -0.2867
     49  CB        67.1910   36.2310   39.0870 C.3    47  TRP47       0.0550
     50  CG        67.1530   35.5080   37.7720 C.ar   47  TRP47       0.0003
     51  CD1       67.0500   34.1600   37.5840 C.ar   47  TRP47       0.0946
     52  CD2       67.2030   36.0920   36.4630 C.ar   47  TRP47       0.0152
     53  NE1       67.0420   33.8670   36.2410 N.ar   47  TRP47      -0.2442
     54  CE2       67.1340   35.0360   35.5320 C.ar   47  TRP47       0.0810
     55  CE3       67.3030   37.4040   35.9880 C.ar   47  TRP47       0.0012
     56  CZ2       67.1600   35.2510   34.1550 C.ar   47  TRP47       0.0191
     57  CZ3       67.3290   37.6140   34.6200 C.ar   47  TRP47       0.0001
     58  CH2       67.2590   36.5440   33.7200 C.ar   47  TRP47       0.0015
     59  N         61.8850   40.0350   24.4420 N.3    99  GLU99      -0.1231
     60  CA        62.1600   39.3580   25.7050 C.3    99  GLU99       0.1699
     61  C         61.8400   37.8720   25.6190 C.2    99  GLU99       0.2592
     62  O         62.6040   37.0370   26.1200 O.2    99  GLU99      -0.2718
     63  CB        61.3630   40.0150   26.8340 C.3    99  GLU99       0.0402
     64  CG        61.5790   39.3800   28.2020 C.3    99  GLU99       0.1161
     65  CD        60.6170   39.9040   29.2520 C.2    99  GLU99       0.3649
     66  OE1       59.7440   40.7260   28.9040 O.co2  99  GLU99      -0.2457
     67  OE2       60.7310   39.4930   30.4260 O.co2  99  GLU99      -0.2457
     68  N         60.7200   37.5170   24.9840 N.am  100  PHE100     -0.1976
     69  CA        60.3550   36.1070   24.8830 C.3   100  PHE100      0.1639
     70  C         61.4050   35.3200   24.1090 C.2   100  PHE100      0.2290
     71  O         61.8770   34.2760   24.5730 O.2   100  PHE100     -0.2864
     72  CB        58.9840   35.9490   24.2260 C.3   100  PHE100      0.0560
     73  CG        58.6250   34.5180   23.9240 C.ar  100  PHE100     -0.0200
     74  CD1       58.1060   33.6980   24.9130 C.ar  100  PHE100     -0.0042
     75  CD2       58.8160   33.9890   22.6570 C.ar  100  PHE100     -0.0042
     76  CE1       57.7790   32.3810   24.6430 C.ar  100  PHE100     -0.0003
     77  CE2       58.4930   32.6720   22.3830 C.ar  100  PHE100     -0.0003
     78  CZ        57.9730   31.8690   23.3760 C.ar  100  PHE100     -0.0000
     79  N         65.0810   35.5170   26.1280 N.3   103  ILE103     -0.1231
     80  CA        65.0690   34.7920   27.3970 C.3   103  ILE103      0.1692
     81  C         64.8120   33.3090   27.1630 C.2   103  ILE103      0.2591
     82  O         65.4890   32.4450   27.7360 O.2   103  ILE103     -0.2718
     83  CB        64.0250   35.3980   28.3520 C.3   103  ILE103      0.0266
     84  CG1       64.3990   36.8360   28.7170 C.3   103  ILE103      0.0019
     85  CG2       63.8860   34.5400   29.6020 C.3   103  ILE103      0.0020
     86  CD1       65.7760   36.9750   29.3230 C.3   103  ILE103      0.0001
     87  N         63.8300   32.9930   26.3130 N.am  104  ALA104     -0.1980
     88  CA        63.5020   31.5980   26.0360 C.3   104  ALA104      0.1597
     89  C         64.7090   30.8500   25.4860 C.2   104  ALA104      0.2287
     90  O         65.0180   29.7350   25.9280 O.2   104  ALA104     -0.2864
     91  CB        62.3260   31.5150   25.0630 C.3   104  ALA104      0.0319
     92  N         67.6320   30.5960   28.4810 N.3   107  GLU107     -0.1231
     93  CA        67.2580   29.7040   29.5700 C.3   107  GLU107      0.1699
     94  C         67.0720   28.2760   29.0720 C.2   107  GLU107      0.2592
     95  O         67.4760   27.3190   29.7460 O.2   107  GLU107     -0.2718
     96  CB        65.9890   30.2150   30.2480 C.3   107  GLU107      0.0402
     97  CG        65.7900   29.6790   31.6460 C.3   107  GLU107      0.1161
     98  CD        66.4430   30.5310   32.7120 C.2   107  GLU107      0.3649
     99  OE1       67.3570   31.3140   32.3820 O.co2 107  GLU107     -0.2457
    100  OE2       66.0360   30.4140   33.8880 O.co2 107  GLU107     -0.2457
    101  N         66.4810   28.1080   27.8840 N.am  108  HIS108     -0.1976
    102  CA        66.3490   26.7610   27.3390 C.3   108  HIS108      0.1656
    103  C         67.7080   26.1390   27.0530 C.2   108  HIS108      0.2291
    104  O         67.8600   24.9160   27.1450 O.2   108  HIS108     -0.2864
    105  CB        65.5000   26.7580   26.0710 C.3   108  HIS108      0.0771
    106  CG        65.2600   25.3850   25.5230 C.ar  108  HIS108      0.0820
    107  ND1       64.4570   24.4620   26.1580 N.ar  108  HIS108     -0.2267
    108  CD2       65.7370   24.7700   24.4150 C.ar  108  HIS108      0.1154
    109  CE1       64.4380   23.3420   25.4570 C.ar  108  HIS108      0.1986
    110  NE2       65.2060   23.5020   24.3950 N.ar  108  HIS108     -0.2212
    111  N         70.1080   26.5250   29.0680 N.3   110  ARG110     -0.1231
    112  CA        70.3800   25.8920   30.3570 C.3   110  ARG110      0.1694
    113  C         69.5670   24.6110   30.5470 C.2   110  ARG110      0.2592
    114  O         70.0170   23.6960   31.2460 O.2   110  ARG110     -0.2718
    115  CB        70.1190   26.8580   31.5120 C.3   110  ARG110      0.0321
    116  CG        70.6990   26.3740   32.8370 C.3   110  ARG110      0.0489
    117  CD        70.3700   27.3300   33.9550 C.3   110  ARG110      0.2205
    118  NE        68.9430   27.3370   34.2470 N.pl3 110  ARG110     -0.0865
    119  CZ        68.2730   28.4140   34.6380 C.cat 110  ARG110      0.5346
    120  NH1       68.9020   29.5730   34.7660 N.pl3 110  ARG110      0.1354
    121  NH2       66.9740   28.3360   34.8870 N.pl3 110  ARG110      0.1354
    122  N         68.3810   24.5160   29.9320 N.am  111  SER111     -0.1952
    123  CA        67.5580   23.3190   30.1090 C.3   111  SER111      0.1924
    124  C         68.1620   22.0970   29.4310 C.2   111  SER111      0.2314
    125  O         67.9290   20.9670   29.8760 O.2   111  SER111     -0.2863
    126  CB        66.1480   23.5470   29.5650 C.3   111  SER111      0.2116
    127  OG        65.2970   22.4650   29.9070 O.3   111  SER111     -0.2180
    128  N         75.3610   22.8710   35.6430 N.3   119  LYS119     -0.1245
    129  CA        74.1050   23.5970   35.8000 C.3   119  LYS119      0.1561
    130  C         74.1380   24.5480   36.9870 C.2   119  LYS119      0.2260
    131  O         73.3820   25.5260   37.0020 O.2   119  LYS119     -0.2867
    132  CB        72.9450   22.6180   35.9540 C.3   119  LYS119      0.0271
    133  CG        72.8120   21.6430   34.8060 C.3   119  LYS119      0.0035
    134  CD        71.6760   20.6730   35.0540 C.3   119  LYS119      0.0206
    135  CE        70.3240   21.3610   34.9700 C.3   119  LYS119      0.1093
    136  NZ        70.0120   21.8720   33.6080 N.3   119  LYS119     -0.1314
@<TRIPOS>BOND
     1    77    75   ar
     2    77    78   ar
     3    75    73   ar
     4    78    76   ar
     5    73    72    1
     6    73    74   ar
     7    70    71    2
     8    70    69    1
     9    72    69    1
    10   110   108   ar
    11   110   109   ar
    12   108   106   ar
    13    59    60    1
    14    76    74   ar
    15    69    68    1
    16    68    61   am
    17    91    88    1
    18   109   107   ar
    19    89    90    2
    20    89    88    1
    21   106   105    1
    22   106   107   ar
    23    61    60    1
    24    61    62    2
    25    60    63    1
    26    88    87    1
    27   105   102    1
    28    79    80    1
    29    87    81   am
    30    63    64    1
    31   103   104    2
    32   103   102    1
    33    81    80    1
    34    81    82    2
    35   102   101    1
    36    80    83    1
    37   101    94   am
    38    64    65    1
    39    83    84    1
    40    83    85    1
    41    92    93    1
    42    84    86    1
    43    66    65   ar
    44   111   112    1
    45    94    93    1
    46    94    95    2
    47    65    67   ar
    48   124   125    2
    49   124   123    1
    50   126   127    1
    51   126   123    1
    52    93    96    1
    53   122   123    1
    54   122   113   am
    55    96    97    1
    56   112   113    1
    57   112   115    1
    58   113   114    2
    59   115   116    1
    60    97    98    1
    61    99    98   ar
    62    98   100   ar
    63   116   117    1
    64   136   135    1
    65    58    56   ar
    66    58    57   ar
    67   117   118    1
    68    56    54   ar
    69   118   119    2
    70    57    55   ar
    71   119   120    1
    72   119   121    1
    73   133   134    1
    74   133   132    1
    75   135   134    1
    76    54    53   ar
    77    54    52   ar
    78   128   129    1
    79   129   132    1
    80   129   130    1
    81    55    52   ar
    82    20    18   ar
    83    53    51   ar
    84    52    50   ar
    85   130   131    2
    86    18    19   ar
    87    18    17    1
    88    11     9    1
    89    34    32    1
    90    51    50   ar
    91    33    31    1
    92    50    49    1
    93    32    31    1
    94    17    16    1
    95     9     8    2
    96     9    10    1
    97     8     7    1
    98    31    28    1
    99    49    46    1
   100    46    45    1
   101    46    47    1
   102    16    13    1
   103    28    29    1
   104    28    27    1
   105    30    29    2
   106    48    47    2
   107     7     6    1
   108    29    35   am
   109     6     5    1
   110    15    14    2
   111    13    14    1
   112    13    12    1
   113    14    21   am
   114     5     2    1
   115    22    21    1
   116    22    25    1
   117    22    23    1
   118    26    25    1
   119     2     1    1
   120     2     3    1
   121    35    36    1
   122     4     3    2
   123    44    43   ar
   124    44    42   ar
   125    43    41   ar
   126    24    23    2
   127    36    37    1
   128    36    39    1
   129    42    40   ar
   130    41    40   ar
   131    40    39    1
   132    38    37    2
