@<TRIPOS>MOLECULE
tmp/5l8rB14.pdb
 172 167 0 0 0
SMALL
GASTEIGER

@<TRIPOS>ATOM
      1  N         22.0430   18.9150  120.0710 N.3    57  MET57      -0.1230
      2  CA        22.0450   19.2790  121.4840 C.3    57  MET57       0.1702
      3  C         22.3240   20.7680  121.6590 C.2    57  MET57       0.2592
      4  O         21.6250   21.4600  122.4160 O.2    57  MET57      -0.2718
      5  CB        23.0630   18.4260  122.2430 C.3    57  MET57       0.0401
      6  CG        22.5900   16.9970  122.4950 C.3    57  MET57       0.0596
      7  SD        23.7000   15.9920  123.5060 S.3    57  MET57      -0.1393
      8  CE        24.9470   15.5660  122.2920 C.3    57  MET57       0.0692
      9  N         23.3320   21.2850  120.9470 N.am   58  LEU58      -0.1980
     10  CA        23.5670   22.7260  120.9580 C.3    58  LEU58       0.1596
     11  C         22.3370   23.4860  120.4740 C.2    58  LEU58       0.2287
     12  O         21.9850   24.5370  121.0250 O.2    58  LEU58      -0.2864
     13  CB        24.7800   23.0660  120.0930 C.3    58  LEU58       0.0297
     14  CG        26.1200   22.5140  120.5730 C.3    58  LEU58       0.0022
     15  CD1       27.1930   22.7520  119.5250 C.3    58  LEU58       0.0001
     16  CD2       26.5080   23.1480  121.8960 C.3    58  LEU58       0.0001
     17  N         19.1030   22.3990  120.5600 N.3    60  ALA60      -0.1231
     18  CA        18.0720   22.2960  121.5850 C.3    60  ALA60       0.1694
     19  C         18.3080   23.3130  122.6930 C.2    60  ALA60       0.2591
     20  O         17.3570   23.9220  123.2030 O.2    60  ALA60      -0.2718
     21  CB        18.0310   20.8760  122.1490 C.3    60  ALA60       0.0304
     22  N         19.5740   23.5270  123.0620 N.am   61  ALA61      -0.1980
     23  CA        19.8840   24.5740  124.0310 C.3    61  ALA61       0.1597
     24  C         19.5180   25.9510  123.4890 C.2    61  ALA61       0.2287
     25  O         18.8040   26.7180  124.1440 O.2    61  ALA61      -0.2864
     26  CB        21.3630   24.5180  124.4090 C.3    61  ALA61       0.0319
     27  N         15.5730   26.2550  123.2350 N.3    64  PHE64      -0.1241
     28  CA        14.7190   26.1000  124.4040 C.3    64  PHE64       0.1605
     29  C         15.1300   27.0080  125.5540 C.2    64  PHE64       0.2264
     30  O         14.2620   27.5880  126.2120 O.2    64  PHE64      -0.2867
     31  CB        14.7040   24.6320  124.8300 C.3    64  PHE64       0.0534
     32  CG        14.1040   23.7180  123.7980 C.ar   64  PHE64      -0.0203
     33  CD1       13.0130   24.1280  123.0550 C.ar   64  PHE64      -0.0042
     34  CD2       14.6430   22.4660  123.5530 C.ar   64  PHE64      -0.0042
     35  CE1       12.4560   23.3080  122.0940 C.ar   64  PHE64      -0.0003
     36  CE2       14.0940   21.6410  122.5910 C.ar   64  PHE64      -0.0003
     37  CZ        12.9980   22.0610  121.8620 C.ar   64  PHE64      -0.0000
     38  N         39.5560   19.5230  123.0290 N.3   144  PHE144     -0.1227
     39  CA        38.2650   18.8540  122.9910 C.3   144  PHE144      0.1736
     40  C         38.0030   17.9760  124.2060 C.2   144  PHE144      0.2595
     41  O         36.8780   17.4890  124.3660 O.2   144  PHE144     -0.2718
     42  CB        38.1530   18.0250  121.7090 C.3   144  PHE144      0.0547
     43  CG        38.4270   18.8180  120.4680 C.ar  144  PHE144     -0.0202
     44  CD1       37.5020   19.7390  120.0060 C.ar  144  PHE144     -0.0042
     45  CD2       39.6170   18.6640  119.7760 C.ar  144  PHE144     -0.0042
     46  CE1       37.7490   20.4810  118.8700 C.ar  144  PHE144     -0.0003
     47  CE2       39.8710   19.4030  118.6390 C.ar  144  PHE144     -0.0003
     48  CZ        38.9350   20.3140  118.1850 C.ar  144  PHE144     -0.0000
     49  N         38.9980   17.7730  125.0640 N.am  145  ASP145     -0.1960
     50  CA        38.8100   17.0230  126.2970 C.3   145  ASP145      0.1825
     51  C         39.7430   17.5750  127.3700 C.2   145  ASP145      0.2464
     52  O         40.6050   16.8450  127.8790 O.2   145  ASP145     -0.2730
     53  CB        39.0660   15.5310  126.0610 C.3   145  ASP145      0.1450
     54  CG        38.5750   14.6610  127.2030 C.2   145  ASP145      0.3671
     55  OD1       37.4030   14.8120  127.6080 O.co2 145  ASP145     -0.2456
     56  OD2       39.3630   13.8270  127.6980 O.co2 145  ASP145     -0.2456
     57  N         39.6080   18.8540  127.7430 N.am  146  PRO146     -0.2715
     58  CA        40.5580   19.4280  128.7070 C.3   146  PRO146      0.1536
     59  C         40.4700   18.8000  130.0820 C.2   146  PRO146      0.2598
     60  O         41.5010   18.6610  130.7510 O.2   146  PRO146     -0.2715
     61  CB        40.1690   20.9110  128.7400 C.3   146  PRO146      0.0310
     62  CG        38.7340   20.9190  128.3730 C.3   146  PRO146      0.0237
     63  CD        38.5670   19.8230  127.3600 C.3   146  PRO146      0.0939
     64  N         39.2770   18.4140  130.5270 N.am  147  LEU147     -0.1964
     65  CA        39.1160   17.8080  131.8410 C.3   147  LEU147      0.1728
     66  C         39.4940   16.3330  131.8680 C.2   147  LEU147      0.2617
     67  O         39.4730   15.7240  132.9440 O.2   147  LEU147     -0.2715
     68  CB        37.6760   17.9800  132.3230 C.3   147  LEU147      0.0311
     69  CG        37.1770   19.4130  132.4870 C.3   147  LEU147      0.0022
     70  CD1       35.7710   19.4160  133.0580 C.3   147  LEU147      0.0001
     71  CD2       38.1230   20.1950  133.3760 C.3   147  LEU147      0.0001
     72  N         39.8320   15.7460  130.7220 N.am  148  GLY148     -0.1940
     73  CA        40.2400   14.3600  130.6720 C.3   148  GLY148      0.2014
     74  C         39.1450   13.3460  130.9060 C.2   148  GLY148      0.2638
     75  O         39.4440   12.1470  130.9540 O.2   148  GLY148     -0.2714
     76  N         37.8860   13.7750  131.0460 N.am  149  TRP149     -0.1973
     77  CA        36.7870   12.8360  131.2460 C.3   149  TRP149      0.1640
     78  C         36.6360   11.8550  130.0890 C.2   149  TRP149      0.2290
     79  O         35.8620   10.8990  130.2080 O.2   149  TRP149     -0.2864
     80  CB        35.4600   13.5860  131.4430 C.3   149  TRP149      0.0576
     81  CG        35.2630   14.2620  132.7910 C.ar  149  TRP149      0.0006
     82  CD1       35.8560   15.4120  133.2240 C.ar  149  TRP149      0.0946
     83  CD2       34.3830   13.8450  133.8500 C.ar  149  TRP149      0.0152
     84  NE1       35.4170   15.7290  134.4860 N.ar  149  TRP149     -0.2442
     85  CE2       34.5130   14.7840  134.8950 C.ar  149  TRP149      0.0810
     86  CE3       33.5070   12.7660  134.0190 C.ar  149  TRP149      0.0012
     87  CZ2       33.8010   14.6750  136.0930 C.ar  149  TRP149      0.0191
     88  CZ3       32.8000   12.6610  135.2110 C.ar  149  TRP149      0.0001
     89  CH2       32.9520   13.6110  136.2300 C.ar  149  TRP149      0.0015
     90  N         21.1730   11.3690  124.6360 N.3   167  ASN167     -0.1240
     91  CA        20.8580   12.7920  124.7240 C.3   167  ASN167      0.1653
     92  C         20.7760   13.4220  123.3410 C.2   167  ASN167      0.2266
     93  O         19.8920   14.2460  123.0760 O.2   167  ASN167     -0.2867
     94  CB        21.9010   13.5140  125.5760 C.3   167  ASN167      0.1155
     95  CG        21.8020   13.1610  127.0420 C.2   167  ASN167      0.2627
     96  OD1       20.9670   13.7020  127.7660 O.2   167  ASN167     -0.2716
     97  ND2       22.6570   12.2510  127.4910 N.am  167  ASN167     -0.0877
     98  N         17.4860   12.3800  121.5250 N.3   170  LEU170     -0.1231
     99  CA        16.4170   13.1970  122.0890 C.3   170  LEU170      0.1693
    100  C         16.4730   14.6250  121.5570 C.2   170  LEU170      0.2591
    101  O         15.4390   15.2160  121.2230 O.2   170  LEU170     -0.2718
    102  CB        16.5070   13.1930  123.6130 C.3   170  LEU170      0.0284
    103  CG        15.3900   13.9440  124.3350 C.3   170  LEU170      0.0019
    104  CD1       14.0440   13.3350  123.9830 C.3   170  LEU170      0.0001
    105  CD2       15.6130   13.9320  125.8400 C.3   170  LEU170      0.0001
    106  N         17.6810   15.1820  121.4440 N.am  171  ALA171     -0.1980
    107  CA        17.8240   16.5690  121.0190 C.3   171  ALA171      0.1597
    108  C         17.4790   16.7460  119.5460 C.2   171  ALA171      0.2287
    109  O         16.9180   17.7770  119.1590 O.2   171  ALA171     -0.2864
    110  CB        19.2420   17.0550  121.3000 C.3   171  ALA171      0.0319
    111  N         15.1910   14.9190  117.8990 N.3   173  LEU173     -0.1231
    112  CA        13.7320   14.9160  117.9040 C.3   173  LEU173      0.1693
    113  C         13.1600   16.2190  118.4460 C.2   173  LEU173      0.2591
    114  O         12.1150   16.6780  117.9740 O.2   173  LEU173     -0.2718
    115  CB        13.2180   13.7330  118.7190 C.3   173  LEU173      0.0284
    116  CG        13.5750   12.3790  118.1160 C.3   173  LEU173      0.0019
    117  CD1       13.0080   11.2640  118.9650 C.3   173  LEU173      0.0001
    118  CD2       13.0550   12.2950  116.6950 C.3   173  LEU173      0.0001
    119  N         13.8320   16.8350  119.4220 N.am  174  ALA174     -0.1980
    120  CA        13.3120   18.0570  120.0330 C.3   174  ALA174      0.1597
    121  C         13.4690   19.2650  119.1180 C.2   174  ALA174      0.2287
    122  O         12.5490   20.0850  119.0100 O.2   174  ALA174     -0.2864
    123  CB        14.0030   18.3080  121.3730 C.3   174  ALA174      0.0319
    124  N         11.1100   19.0300  116.6020 N.3   177  GLY177     -0.1210
    125  CA         9.8330   19.2640  117.2550 C.3   177  GLY177      0.1956
    126  C          9.4610   20.7320  117.2970 C.2   177  GLY177      0.2611
    127  O          8.3660   21.1190  116.8850 O.2   177  GLY177     -0.2717
    128  N         10.3700   21.5730  117.7990 N.am  178  ALA178     -0.1979
    129  CA        10.1070   23.0080  117.8220 C.3   178  ALA178      0.1597
    130  C          9.9260   23.5610  116.4160 C.2   178  ALA178      0.2287
    131  O          9.1350   24.4900  116.2110 O.2   178  ALA178     -0.2864
    132  CB        11.2350   23.7430  118.5440 C.3   178  ALA178      0.0319
    133  N          6.4370   22.5060  115.2380 N.3   181  GLN181     -0.1245
    134  CA         5.4980   23.2210  116.0950 C.3   181  GLN181      0.1566
    135  C          5.3370   24.6640  115.6410 C.2   181  GLN181      0.2260
    136  O          4.2150   25.1410  115.4320 O.2   181  GLN181     -0.2867
    137  CB         5.9720   23.1840  117.5440 C.3   181  GLN181      0.0367
    138  CG         5.7050   21.9010  118.2810 C.3   181  GLN181      0.0905
    139  CD         6.4650   21.8540  119.5810 C.2   181  GLN181      0.2608
    140  OE1        7.5600   22.4010  119.6860 O.2   181  GLN181     -0.2717
    141  NE2        5.8850   21.2240  120.5850 N.am  181  GLN181     -0.0878
    142  N          8.1100   27.3450  121.2080 N.3   189  PRO189     -0.2102
    143  CA         7.8140   26.0330  121.8060 C.3   189  PRO189      0.1504
    144  C          7.3120   26.1240  123.2330 C.2   189  PRO189      0.2575
    145  O          6.4560   25.3240  123.6320 O.2   189  PRO189     -0.2718
    146  CB         9.1600   25.3030  121.7210 C.3   189  PRO189      0.0282
    147  CG        10.1730   26.3990  121.7440 C.3   189  PRO189      0.0208
    148  CD         9.5530   27.5430  120.9860 C.3   189  PRO189      0.0893
    149  N          7.8140   27.0830  124.0130 N.am  190  ILE190     -0.1980
    150  CA         7.4070   27.1940  125.4080 C.3   190  ILE190      0.1595
    151  C          5.9320   27.5690  125.5140 C.2   190  ILE190      0.2287
    152  O          5.2460   27.1640  126.4640 O.2   190  ILE190     -0.2864
    153  CB         8.3190   28.2000  126.1370 C.3   190  ILE190      0.0276
    154  CG1        7.9820   28.2560  127.6260 C.3   190  ILE190      0.0022
    155  CG2        8.2370   29.5740  125.4870 C.3   190  ILE190      0.0022
    156  CD1        8.1890   26.9360  128.3370 C.3   190  ILE190      0.0001
    157  N          3.6900   26.5090  123.3340 N.3   192  ASN192     -0.1225
    158  CA         3.0330   25.2280  123.1040 C.3   192  ASN192      0.1785
    159  C          3.0270   24.3940  124.3770 C.2   192  ASN192      0.2597
    160  O          2.0260   23.7400  124.6990 O.2   192  ASN192     -0.2718
    161  CB         3.7300   24.4770  121.9690 C.3   192  ASN192      0.1169
    162  CG         3.7130   25.2490  120.6640 C.2   192  ASN192      0.2627
    163  OD1        2.7510   25.9550  120.3620 O.2   192  ASN192     -0.2716
    164  ND2        4.7790   25.1190  119.8830 N.am  192  ASN192     -0.0877
    165  N          4.1320   24.4240  125.1250 N.am  193  LEU193     -0.1980
    166  CA         4.2120   23.6760  126.3740 C.3   193  LEU193      0.1596
    167  C          3.1880   24.1780  127.3820 C.2   193  LEU193      0.2287
    168  O          2.4800   23.3850  128.0100 O.2   193  LEU193     -0.2864
    169  CB         5.6230   23.7690  126.9550 C.3   193  LEU193      0.0297
    170  CG         5.7540   23.1820  128.3620 C.3   193  LEU193      0.0022
    171  CD1        5.4480   21.6940  128.3410 C.3   193  LEU193      0.0001
    172  CD2        7.1300   23.4470  128.9520 C.3   193  LEU193      0.0001
@<TRIPOS>BOND
     1   133   134    1
     2   136   135    2
     3   135   134    1
     4   134   137    1
     5   131   130    2
     6   130   129    1
     7   124   125    1
     8   118   116    1
     9   127   126    2
    10   125   126    1
    11   126   128   am
    12   137   138    1
    13   128   129    1
    14   129   132    1
    15   111   112    1
    16   112   113    1
    17   112   115    1
    18   114   113    2
    19   116   115    1
    20   116   117    1
    21    48    47   ar
    22    48    46   ar
    23   138   139    1
    24   113   119   am
    25    47    45   ar
    26    46    44   ar
    27   122   121    2
    28   121   120    1
    29   109   108    2
    30   119   120    1
    31    15    14    1
    32   108   107    1
    33   139   140    2
    34   139   141   am
    35    45    43   ar
    36   164   162   am
    37    44    43   ar
    38   120   123    1
    39     1     2    1
    40    13    14    1
    41    13    10    1
    42   163   162    2
    43    43    42    1
    44    11    10    1
    45    11    12    2
    46    17    18    1
    47    14    16    1
    48   162   161    1
    49     9    10    1
    50     9     3   am
    51   148   142    1
    52   148   147    1
    53   107   110    1
    54   107   106    1
    55   142   143    1
    56   101   100    2
    57   106   100   am
    58     2     3    1
    59     2     5    1
    60    98    99    1
    61   100    99    1
    62    18    21    1
    63    18    19    1
    64     3     4    2
    65    42    39    1
    66   146   147    1
    67   146   143    1
    68   143   144    1
    69    37    35   ar
    70    37    36   ar
    71   161   158    1
    72    99   102    1
    73    35    33   ar
    74     5     6    1
    75     8     7    1
    76     6     7    1
    77    36    34   ar
    78    19    22   am
    79    19    20    2
    80    39    38    1
    81    39    40    1
    82    33    32   ar
    83    22    23    1
    84    93    92    2
    85   158   157    1
    86   158   159    1
    87   144   145    2
    88   144   149   am
    89    27    28    1
    90    92    91    1
    91    24    23    1
    92    24    25    2
    93    34    32   ar
    94   102   103    1
    95    32    31    1
    96   104   103    1
    97   149   150    1
    98    23    26    1
    99    40    41    2
   100    40    49   am
   101   103   105    1
   102   159   160    2
   103   159   165   am
   104    28    31    1
   105    28    29    1
   106    90    91    1
   107    91    94    1
   108    49    50    1
   109   165   166    1
   110   150   151    1
   111   150   153    1
   112   155   153    1
   113   151   152    2
   114    29    30    2
   115    94    95    1
   116    53    50    1
   117    53    54    1
   118   153   154    1
   119    50    51    1
   120   166   169    1
   121   166   167    1
   122   169   170    1
   123    95    97   am
   124    95    96    2
   125    54    55   ar
   126    54    56   ar
   127    63    57    1
   128    63    62    1
   129    51    57   am
   130    51    52    2
   131   167   168    2
   132   154   156    1
   133    57    58    1
   134   171   170    1
   135   170   172    1
   136    62    61    1
   137    58    61    1
   138    58    59    1
   139    59    64   am
   140    59    60    2
   141    78    79    2
   142    78    77    1
   143    64    65    1
   144    73    72    1
   145    73    74    1
   146    72    66   am
   147    74    75    2
   148    74    76   am
   149    76    77    1
   150    77    80    1
   151    80    81    1
   152    65    66    1
   153    65    68    1
   154    66    67    2
   155    68    69    1
   156    69    70    1
   157    69    71    1
   158    81    82   ar
   159    81    83   ar
   160    82    84   ar
   161    83    86   ar
   162    83    85   ar
   163    86    88   ar
   164    84    85   ar
   165    85    87   ar
   166    88    89   ar
   167    87    89   ar
