@<TRIPOS>MOLECULE
tmp/5l8rC01.pdb
 151 145 0 0 0
SMALL
GASTEIGER

@<TRIPOS>ATOM
      1  N        -13.1970   -9.2930  123.6040 N.3    54  PHE54      -0.1241
      2  CA       -13.5350   -7.9010  123.3170 C.3    54  PHE54       0.1605
      3  C        -15.0300   -7.7360  123.0770 C.2    54  PHE54       0.2264
      4  O        -15.6290   -6.7370  123.4920 O.2    54  PHE54      -0.2867
      5  CB       -12.7510   -7.4030  122.1010 C.3    54  PHE54       0.0534
      6  CG       -11.3520   -6.9540  122.4140 C.ar   54  PHE54      -0.0203
      7  CD1      -11.1090   -6.0440  123.4310 C.ar   54  PHE54      -0.0042
      8  CD2      -10.2790   -7.4420  121.6870 C.ar   54  PHE54      -0.0042
      9  CE1       -9.8190   -5.6300  123.7150 C.ar   54  PHE54      -0.0003
     10  CE2       -8.9880   -7.0350  121.9680 C.ar   54  PHE54      -0.0003
     11  CZ        -8.7580   -6.1260  122.9810 C.ar   54  PHE54      -0.0000
     12  N        -16.8970   -7.5920  126.4190 N.3    57  LEU57      -0.1231
     13  CA       -16.7950   -6.2500  126.9870 C.3    57  LEU57       0.1693
     14  C        -17.7030   -5.2640  126.2610 C.2    57  LEU57       0.2592
     15  O        -18.4170   -4.4760  126.8920 O.2    57  LEU57      -0.2718
     16  CB       -15.3470   -5.7730  126.9320 C.3    57  LEU57       0.0284
     17  CG       -14.3420   -6.6450  127.6770 C.3    57  LEU57       0.0019
     18  CD1      -12.9500   -6.0790  127.4970 C.3    57  LEU57       0.0001
     19  CD2      -14.7130   -6.7140  129.1410 C.3    57  LEU57       0.0001
     20  N        -17.6950   -5.3070  124.9270 N.am   58  GLY58      -0.1957
     21  CA       -18.4800   -4.3550  124.1590 C.3    58  GLY58       0.1869
     22  C        -19.9710   -4.6160  124.2360 C.2    58  GLY58       0.2309
     23  O        -20.7720   -3.6780  124.2900 O.2    58  GLY58      -0.2863
     24  N        -21.5170   -5.7490  126.7540 N.3    60  VAL60      -0.1231
     25  CA       -21.9700   -5.2010  128.0320 C.3    60  VAL60       0.1692
     26  C        -21.9860   -3.6750  127.9860 C.2    60  VAL60       0.2592
     27  O        -23.0300   -3.0380  128.1820 O.2    60  VAL60      -0.2718
     28  CB       -21.0920   -5.7180  129.1840 C.3    60  VAL60       0.0266
     29  CG1      -21.4640   -5.0190  130.4840 C.3    60  VAL60       0.0020
     30  CG2      -21.2370   -7.2240  129.3220 C.3    60  VAL60       0.0020
     31  N        -20.8260   -3.0680  127.7180 N.am   61  GLY61      -0.1957
     32  CA       -20.6830   -1.6270  127.8360 C.3    61  GLY61       0.1869
     33  C        -21.4740   -0.8230  126.8270 C.2    61  GLY61       0.2309
     34  O        -21.6540    0.3840  127.0200 O.2    61  GLY61      -0.2863
     35  N        -25.0730   -0.9740  128.6160 N.3    64  ALA64      -0.1231
     36  CA       -25.1090   -0.6580  130.0440 C.3    64  ALA64       0.1679
     37  C        -25.5770    0.7650  130.3380 C.2    64  ALA64       0.2434
     38  O        -26.5880    0.9280  131.0440 O.2    64  ALA64      -0.2733
     39  CB       -23.7390   -0.9510  130.6630 C.3    64  ALA64       0.0304
     40  N        -24.9180    1.8250  129.8430 N.am   65  PRO65      -0.2729
     41  CA       -25.3140    3.1760  130.2790 C.3    65  PRO65       0.1401
     42  C        -26.7200    3.5610  129.8570 C.2    65  PRO65       0.2269
     43  O        -27.3630    4.3700  130.5380 O.2    65  PRO65      -0.2865
     44  CB       -24.2570    4.0770  129.6260 C.3    65  PRO65       0.0296
     45  CG       -23.8450    3.3360  128.4180 C.3    65  PRO65       0.0237
     46  CD       -23.8810    1.8830  128.7960 C.3    65  PRO65       0.0939
     47  N        -28.9620    1.6120  132.6110 N.3    68  LEU68      -0.1245
     48  CA       -28.8480    2.3250  133.8800 C.3    68  LEU68       0.1561
     49  C        -29.4470    3.7220  133.7870 C.2    68  LEU68       0.2260
     50  O        -29.9700    4.2430  134.7790 O.2    68  LEU68      -0.2867
     51  CB       -27.3850    2.4000  134.3180 C.3    68  LEU68       0.0270
     52  CG       -26.7090    1.0860  134.7120 C.3    68  LEU68       0.0019
     53  CD1      -25.2570    1.3240  135.0960 C.3    68  LEU68       0.0001
     54  CD2      -27.4600    0.4150  135.8490 C.3    68  LEU68       0.0001
     55  N        -27.2100    6.7950  137.4300 N.3    74  ILE74      -0.1245
     56  CA       -26.2450    7.3940  136.5120 C.3    74  ILE74       0.1561
     57  C        -26.8110    8.7140  135.9990 C.2    74  ILE74       0.2260
     58  O        -28.0040    8.7920  135.6700 O.2    74  ILE74      -0.2867
     59  CB       -25.8970    6.4290  135.3640 C.3    74  ILE74       0.0252
     60  CG1      -24.8770    7.0540  134.4100 C.3    74  ILE74       0.0019
     61  CG2      -27.1420    6.0150  134.6080 C.3    74  ILE74       0.0019
     62  CD1      -24.4900    6.1500  133.2580 C.3    74  ILE74       0.0001
     63  N        -24.4610   11.4910  130.9890 N.3    78  THR78      -0.1218
     64  CA       -23.5300   10.4400  130.6040 C.3    78  THR78       0.1862
     65  C        -24.2210    9.1640  130.1370 C.2    78  THR78       0.2287
     66  O        -23.5580    8.3010  129.5530 O.2    78  THR78      -0.2866
     67  CB       -22.5960   10.1020  131.7740 C.3    78  THR78       0.1770
     68  OG1      -23.3650    9.5910  132.8700 O.3    78  THR78      -0.2211
     69  CG2      -21.8390   11.3400  132.2300 C.3    78  THR78       0.0375
     70  N        -26.1070    7.3010  127.6550 N.3    80  LEU80      -0.1245
     71  CA       -26.4040    7.4390  126.2370 C.3    80  LEU80       0.1561
     72  C        -26.4700    6.0640  125.5870 C.2    80  LEU80       0.2260
     73  O        -26.2800    5.0290  126.2340 O.2    80  LEU80      -0.2867
     74  CB       -25.3490    8.3020  125.5320 C.3    80  LEU80       0.0270
     75  CG       -25.1710    9.7300  126.0440 C.3    80  LEU80       0.0019
     76  CD1      -23.9070   10.3440  125.4670 C.3    80  LEU80       0.0001
     77  CD2      -26.3890   10.5710  125.6980 C.3    80  LEU80       0.0001
     78  N        -24.6840    3.5120  122.7810 N.3    82  TRP82      -0.1241
     79  CA       -23.2860    3.2590  122.4470 C.3    82  TRP82       0.1605
     80  C        -22.8440    4.0790  121.2410 C.2    82  TRP82       0.2264
     81  O        -21.6980    4.5380  121.1800 O.2    82  TRP82      -0.2867
     82  CB       -23.0750    1.7710  122.1870 C.3    82  TRP82       0.0550
     83  CG       -23.9670    1.2370  121.1180 C.ar   82  TRP82       0.0003
     84  CD1      -25.2290    0.7410  121.2740 C.ar   82  TRP82       0.0946
     85  CD2      -23.6740    1.1570  119.7190 C.ar   82  TRP82       0.0152
     86  NE1      -25.7380    0.3530  120.0580 N.ar   82  TRP82      -0.2442
     87  CE2      -24.8010    0.5980  119.0880 C.ar   82  TRP82       0.0810
     88  CE3      -22.5650    1.5010  118.9400 C.ar   82  TRP82       0.0012
     89  CZ2      -24.8520    0.3760  117.7150 C.ar   82  TRP82       0.0191
     90  CZ3      -22.6180    1.2810  117.5780 C.ar   82  TRP82       0.0001
     91  CH2      -23.7530    0.7230  116.9790 C.ar   82  TRP82       0.0015
     92  N        -22.3440    7.9610  121.8970 N.3    85  THR85      -0.1218
     93  CA       -21.3570    8.2560  122.9220 C.3    85  THR85       0.1862
     94  C        -20.3290    9.2870  122.4770 C.2    85  THR85       0.2287
     95  O        -19.6110    9.8350  123.3210 O.2    85  THR85      -0.2866
     96  CB       -20.6570    6.9610  123.3200 C.3    85  THR85       0.1770
     97  OG1      -21.6310    5.9240  123.4950 O.3    85  THR85      -0.2211
     98  CG2      -19.9380    7.1500  124.6030 C.3    85  THR85       0.0375
     99  N        -18.5910    8.0800  119.7570 N.3    87  VAL87      -0.1245
    100  CA       -17.9560    7.1470  118.8320 C.3    87  VAL87       0.1561
    101  C        -18.2040    7.5860  117.3970 C.2    87  VAL87       0.2260
    102  O        -17.2710    7.7480  116.6030 O.2    87  VAL87      -0.2867
    103  CB       -18.4810    5.7210  119.0790 C.3    87  VAL87       0.0252
    104  CG1      -17.5310    4.6850  118.4970 C.3    87  VAL87       0.0019
    105  CG2      -18.7110    5.5000  120.5620 C.3    87  VAL87       0.0019
    106  N        -20.1960   13.7380  122.7070 N.3    94  TYR94      -0.1241
    107  CA       -20.1150   14.2270  124.0750 C.3    94  TYR94       0.1605
    108  C        -18.7420   14.8450  124.2840 C.2    94  TYR94       0.2264
    109  O        -17.7480   14.3680  123.7270 O.2    94  TYR94      -0.2867
    110  CB       -20.3560   13.0990  125.0890 C.3    94  TYR94       0.0534
    111  CG       -20.2340   13.5180  126.5380 C.ar   94  TYR94      -0.0201
    112  CD1      -21.3310   14.0150  127.2360 C.ar   94  TYR94      -0.0009
    113  CD2      -19.0280   13.4040  127.2150 C.ar   94  TYR94      -0.0009
    114  CE1      -21.2250   14.3930  128.5680 C.ar   94  TYR94       0.0417
    115  CE2      -18.9120   13.7770  128.5440 C.ar   94  TYR94       0.0417
    116  CZ       -20.0130   14.2710  129.2150 C.ar   94  TYR94       0.1957
    117  OH       -19.8980   14.6440  130.5340 O.3    94  TYR94      -0.2866
    118  N        -15.8140   15.2350  126.5090 N.3    96  TYR96      -0.1227
    119  CA       -15.1070   14.6820  127.6520 C.3    96  TYR96       0.1736
    120  C        -13.9860   15.6350  128.0590 C.2    96  TYR96       0.2595
    121  O        -13.8920   16.7650  127.5730 O.2    96  TYR96      -0.2718
    122  CB       -14.5680   13.2910  127.3230 C.3    96  TYR96       0.0548
    123  CG       -15.6310   12.3180  126.8830 C.ar   96  TYR96      -0.0200
    124  CD1      -16.2770   11.5060  127.8040 C.ar   96  TYR96      -0.0009
    125  CD2      -15.9920   12.2130  125.5470 C.ar   96  TYR96      -0.0009
    126  CE1      -17.2510   10.6190  127.4070 C.ar   96  TYR96       0.0417
    127  CE2      -16.9650   11.3300  125.1400 C.ar   96  TYR96       0.0417
    128  CZ       -17.5900   10.5350  126.0740 C.ar   96  TYR96       0.1957
    129  OH       -18.5610    9.6530  125.6720 O.3    96  TYR96      -0.2866
    130  N        -13.1120   15.1800  128.9550 N.am   97  TRP97      -0.1976
    131  CA       -11.9440   15.9670  129.3240 C.3    97  TRP97       0.1640
    132  C        -10.9410   16.1020  128.1860 C.2    97  TRP97       0.2290
    133  O         -9.9500   16.8230  128.3470 O.2    97  TRP97      -0.2864
    134  CB       -11.2610   15.3490  130.5440 C.3    97  TRP97       0.0576
    135  CG       -10.6720   13.9990  130.2750 C.ar   97  TRP97       0.0006
    136  CD1      -11.3040   12.7940  130.3730 C.ar   97  TRP97       0.0946
    137  CD2       -9.3300   13.7150  129.8590 C.ar   97  TRP97       0.0152
    138  NE1      -10.4390   11.7770  130.0440 N.ar   97  TRP97      -0.2442
    139  CE2       -9.2210   12.3170  129.7250 C.ar   97  TRP97       0.0810
    140  CE3       -8.2100   14.5080  129.5870 C.ar   97  TRP97       0.0012
    141  CZ2       -8.0390   11.6960  129.3330 C.ar   97  TRP97       0.0191
    142  CZ3       -7.0390   13.8900  129.1980 C.ar   97  TRP97       0.0001
    143  CH2       -6.9620   12.4980  129.0740 C.ar   97  TRP97       0.0015
    144  N         -7.9420   11.4750  122.8960 N.3   103  LEU103     -0.1245
    145  CA        -8.3550   10.2090  123.4920 C.3   103  LEU103      0.1561
    146  C         -7.9750    9.0360  122.6020 C.2   103  LEU103      0.2260
    147  O         -7.5420    7.9880  123.0950 O.2   103  LEU103     -0.2867
    148  CB        -9.8620   10.2070  123.7400 C.3   103  LEU103      0.0270
    149  CG       -10.3880   11.1120  124.8480 C.3   103  LEU103      0.0019
    150  CD1      -11.9050   11.0800  124.8840 C.3   103  LEU103      0.0001
    151  CD2       -9.8060   10.6990  126.1900 C.3   103  LEU103      0.0001
@<TRIPOS>BOND
     1   102   101    2
     2    91    90   ar
     3    91    89   ar
     4   101   100    1
     5    90    88   ar
     6    89    87   ar
     7   104   103    1
     8   100   103    1
     9   100    99    1
    10    88    85   ar
    11   103   105    1
    12    87    85   ar
    13    87    86   ar
    14    85    83   ar
    15    86    84   ar
    16    83    84   ar
    17    83    82    1
    18    81    80    2
    19    80    79    1
    20     8    10   ar
    21     8     6   ar
    22    92    93    1
    23    10    11   ar
    24     5     6    1
    25     5     2    1
    26    82    79    1
    27     6     7   ar
    28    79    78    1
    29    94    93    1
    30    94    95    2
    31   146   147    2
    32   146   145    1
    33   106   107    1
    34   144   145    1
    35    93    96    1
    36    11     9   ar
    37     3     2    1
    38     3     4    2
    39     2     1    1
    40    96    97    1
    41    96    98    1
    42     7     9   ar
    43   145   148    1
    44   109   108    2
    45   148   149    1
    46   107   108    1
    47   107   110    1
    48    21    22    1
    49    21    20    1
    50    22    23    2
    51   149   150    1
    52   149   151    1
    53    20    14   am
    54   110   111    1
    55   127   125   ar
    56   127   128   ar
    57    76    75    1
    58    74    75    1
    59    74    71    1
    60   125   123   ar
    61    72    73    2
    62    72    71    1
    63   129   128    1
    64    77    75    1
    65   128   126   ar
    66    71    70    1
    67    14    15    2
    68    14    13    1
    69    12    13    1
    70   118   119    1
    71   111   113   ar
    72   111   112   ar
    73    24    25    1
    74    33    34    2
    75    33    32    1
    76   123   122    1
    77   123   124   ar
    78    16    13    1
    79    16    17    1
    80   113   115   ar
    81   112   114   ar
    82   122   119    1
    83   126   124   ar
    84    18    17    1
    85   121   120    2
    86   119   120    1
    87    17    19    1
    88    31    32    1
    89    31    26   am
    90    26    25    1
    91    26    27    2
    92    25    28    1
    93   120   130   am
    94   132   133    2
    95   132   131    1
    96    45    46    1
    97    45    44    1
    98   115   116   ar
    99   114   116   ar
   100    35    36    1
   101    46    40    1
   102   130   131    1
   103   143   142   ar
   104   143   141   ar
   105    28    30    1
   106    28    29    1
   107   142   140   ar
   108   116   117    1
   109   131   134    1
   110   141   139   ar
   111    66    65    2
   112   140   137   ar
   113    44    41    1
   114   139   137   ar
   115   139   138   ar
   116    40    41    1
   117    40    37   am
   118    42    41    1
   119    42    43    2
   120   137   135   ar
   121   138   136   ar
   122    36    37    1
   123    36    39    1
   124    65    64    1
   125   135   136   ar
   126   135   134    1
   127    37    38    2
   128    64    63    1
   129    64    67    1
   130    67    69    1
   131    67    68    1
   132    47    48    1
   133    62    60    1
   134    49    48    1
   135    49    50    2
   136    48    51    1
   137    51    52    1
   138    60    59    1
   139    61    59    1
   140    52    53    1
   141    52    54    1
   142    59    56    1
   143    58    57    2
   144    57    56    1
   145    56    55    1
