@<TRIPOS>MOLECULE
tmp/5l8rP04.pdb
 71 67 0 0 0
SMALL
GASTEIGER

@<TRIPOS>ATOM
      1  N        -19.0500  -36.0080   58.9000 N.3     3  VAL3       -0.1231
      2  CA       -19.4290  -35.5690   57.5620 C.3     3  VAL3        0.1692
      3  C        -18.2250  -35.3860   56.6370 C.2     3  VAL3        0.2591
      4  O        -18.3280  -35.6320   55.4310 O.2     3  VAL3       -0.2718
      5  CB       -20.2510  -34.2710   57.6680 C.3     3  VAL3        0.0266
      6  CG1      -20.5220  -33.6780   56.2980 C.3     3  VAL3        0.0020
      7  CG2      -21.5580  -34.5330   58.4030 C.3     3  VAL3        0.0020
      8  N        -17.0810  -34.9650   57.1650 N.am    4  VAL4       -0.1980
      9  CA       -15.9080  -34.6820   56.3480 C.3     4  VAL4        0.1595
     10  C        -14.9910  -35.8950   56.3500 C.2     4  VAL4        0.2287
     11  O        -14.6760  -36.4490   57.4130 O.2     4  VAL4       -0.2864
     12  CB       -15.1670  -33.4340   56.8480 C.3     4  VAL4        0.0276
     13  CG1      -14.1040  -33.0210   55.8410 C.3     4  VAL4        0.0022
     14  CG2      -16.1550  -32.3120   57.0970 C.3     4  VAL4        0.0022
     15  N        -10.0060  -32.4240   50.7670 N.3    16  LEU16      -0.1245
     16  CA       -10.9880  -33.0580   51.6330 C.3    16  LEU16       0.1561
     17  C        -12.2850  -33.2490   50.8600 C.2    16  LEU16       0.2260
     18  O        -12.5170  -32.6170   49.8260 O.2    16  LEU16      -0.2867
     19  CB       -11.2590  -32.2350   52.9020 C.3    16  LEU16       0.0270
     20  CG       -10.1430  -32.0300   53.9300 C.3    16  LEU16       0.0019
     21  CD1      -10.6250  -31.1470   55.0740 C.3    16  LEU16       0.0001
     22  CD2       -9.6420  -33.3610   54.4640 C.3    16  LEU16       0.0001
     23  N        -16.3320  -32.9100   51.2570 N.3    18  THR18      -0.1204
     24  CA       -17.3500  -32.2010   52.0190 C.3    18  THR18       0.1979
     25  C        -18.6570  -32.2650   51.2530 C.2    18  THR18       0.2460
     26  O        -18.6910  -32.7060   50.1000 O.2    18  THR18      -0.2732
     27  CB       -16.9390  -30.7340   52.2450 C.3    18  THR18       0.1783
     28  OG1      -16.9730  -30.0260   50.9990 O.3    18  THR18      -0.2211
     29  CG2      -15.5390  -30.6490   52.8340 C.3    18  THR18       0.0376
     30  N        -19.7670  -31.8410   51.8690 N.am   19  PRO19      -0.2717
     31  CA       -20.9950  -31.6560   51.0780 C.3    19  PRO19       0.1535
     32  C        -20.8030  -30.7180   49.9000 C.2    19  PRO19       0.2598
     33  O        -21.5100  -30.8420   48.8940 O.2    19  PRO19      -0.2715
     34  CB       -21.9870  -31.0870   52.1010 C.3    19  PRO19       0.0310
     35  CG       -21.5130  -31.6090   53.4070 C.3    19  PRO19       0.0237
     36  CD       -20.0150  -31.6810   53.3140 C.3    19  PRO19       0.0939
     37  N        -19.8520  -29.7890   49.9890 N.am   20  VAL20      -0.1964
     38  CA       -19.6050  -28.8750   48.8800 C.3    20  VAL20       0.1727
     39  C        -18.8930  -29.5950   47.7390 C.2    20  VAL20       0.2616
     40  O        -19.2320  -29.4130   46.5640 O.2    20  VAL20      -0.2715
     41  CB       -18.8070  -27.6540   49.3730 C.3    20  VAL20       0.0290
     42  CG1      -18.6320  -26.6480   48.2590 C.3    20  VAL20       0.0023
     43  CG2      -19.5020  -27.0080   50.5610 C.3    20  VAL20       0.0023
     44  N        -17.9000  -30.4250   48.0630 N.am   21  THR21      -0.1951
     45  CA       -17.0890  -31.0690   47.0280 C.3    21  THR21       0.1897
     46  C        -17.7860  -32.3040   46.4680 C.2    21  THR21       0.2313
     47  O        -18.1620  -32.3440   45.2930 O.2    21  THR21      -0.2863
     48  CB       -15.7100  -31.4410   47.5850 C.3    21  THR21       0.1794
     49  OG1      -15.8650  -32.2980   48.7260 O.3    21  THR21      -0.2208
     50  CG2      -14.9280  -30.1890   47.9730 C.3    21  THR21       0.0378
     51  N        -20.8920  -34.5080   46.5990 N.3    23  SER23      -0.1217
     52  CA       -22.2930  -34.6040   46.9520 C.3    23  SER23       0.1889
     53  C        -23.0160  -35.0470   45.6910 C.2    23  SER23       0.2288
     54  O        -22.6280  -34.6280   44.5910 O.2    23  SER23      -0.2866
     55  CB       -22.8550  -33.2690   47.4530 C.3    23  SER23       0.2089
     56  OG       -24.2560  -33.3250   47.6400 O.3    23  SER23      -0.2183
     57  N        -25.9170  -34.2150   44.4000 N.3    25  LEU25      -0.1231
     58  CA       -26.3840  -33.0290   43.6860 C.3    25  LEU25       0.1693
     59  C        -25.2240  -32.3030   43.0050 C.2    25  LEU25       0.2591
     60  O        -25.2830  -31.9850   41.8080 O.2    25  LEU25      -0.2718
     61  CB       -27.1110  -32.1020   44.6610 C.3    25  LEU25       0.0284
     62  CG       -27.7730  -30.8360   44.1170 C.3    25  LEU25       0.0019
     63  CD1      -28.9000  -31.2010   43.1600 C.3    25  LEU25       0.0001
     64  CD2      -28.2860  -29.9690   45.2610 C.3    25  LEU25       0.0001
     65  N        -24.1500  -32.0490   43.7530 N.am   26  VAL26      -0.1980
     66  CA       -23.0150  -31.3210   43.1980 C.3    26  VAL26       0.1595
     67  C        -22.3340  -32.1430   42.1110 C.2    26  VAL26       0.2287
     68  O        -22.0150  -31.6300   41.0320 O.2    26  VAL26      -0.2864
     69  CB       -22.0290  -30.9290   44.3170 C.3    26  VAL26       0.0276
     70  CG1      -20.7920  -30.2660   43.7320 C.3    26  VAL26       0.0022
     71  CG2      -22.7020  -30.0090   45.3280 C.3    26  VAL26       0.0022
@<TRIPOS>BOND
     1    68    67    2
     2    60    59    2
     3    67    66    1
     4    59    58    1
     5    59    65   am
     6    63    62    1
     7    66    65    1
     8    66    69    1
     9    58    57    1
    10    58    61    1
    11    70    69    1
    12    62    61    1
    13    62    64    1
    14    69    71    1
    15    54    53    2
    16    47    46    2
    17    53    52    1
    18    46    45    1
    19    40    39    2
    20    51    52    1
    21    52    55    1
    22    45    48    1
    23    45    44    1
    24    55    56    1
    25    48    50    1
    26    48    49    1
    27    39    44   am
    28    39    38    1
    29    42    41    1
    30    38    41    1
    31    38    37    1
    32    33    32    2
    33    41    43    1
    34    18    17    2
    35    32    37   am
    36    32    31    1
    37    26    25    2
    38    15    16    1
    39    17    16    1
    40    28    27    1
    41    31    30    1
    42    31    34    1
    43    25    30   am
    44    25    24    1
    45    23    24    1
    46    16    19    1
    47    30    36    1
    48    24    27    1
    49    34    35    1
    50    27    29    1
    51    19    20    1
    52    36    35    1
    53    20    22    1
    54    20    21    1
    55     4     3    2
    56    13    12    1
    57     6     5    1
    58     9    10    1
    59     9    12    1
    60     9     8    1
    61    10    11    2
    62     3     8   am
    63     3     2    1
    64    12    14    1
    65     2     5    1
    66     2     1    1
    67     5     7    1
