@<TRIPOS>MOLECULE
tmp/5l8rK09.pdb
 113 110 0 0 0
SMALL
GASTEIGER

@<TRIPOS>ATOM
      1  N         48.4470   42.1490    8.0420 N.3     3  PRO3       -0.2102
      2  CA        48.2960   40.7200    8.3670 C.3     3  PRO3        0.1504
      3  C         49.4020   39.8500    7.8010 C.2     3  PRO3        0.2576
      4  O         49.9140   38.9780    8.5110 O.2     3  PRO3       -0.2718
      5  CB        46.9260   40.3690    7.7660 C.3     3  PRO3        0.0282
      6  CG        46.6780   41.4110    6.7340 C.3     3  PRO3        0.0208
      7  CD        47.3150   42.6620    7.2530 C.3     3  PRO3        0.0893
      8  N         49.7890   40.0600    6.5420 N.am    4  SER4       -0.1953
      9  CA        50.8530   39.2530    5.9530 C.3     4  SER4        0.1924
     10  C         52.1560   39.4060    6.7280 C.2     4  SER4        0.2314
     11  O         52.9130   38.4400    6.8870 O.2     4  SER4       -0.2863
     12  CB        51.0490   39.6410    4.4890 C.3     4  SER4        0.2116
     13  OG        49.8830   39.3600    3.7370 O.3     4  SER4       -0.2180
     14  N         51.6750   37.5760   10.2960 N.3     7  ILE7       -0.1231
     15  CA        51.5340   36.1360   10.1160 C.3     7  ILE7        0.1692
     16  C         52.8400   35.5320    9.6180 C.2     7  ILE7        0.2592
     17  O         53.2660   34.4630   10.0780 O.2     7  ILE7       -0.2718
     18  CB        50.3580   35.8370    9.1690 C.3     7  ILE7        0.0266
     19  CG1       49.0440   36.2860    9.8100 C.3     7  ILE7        0.0019
     20  CG2       50.2990   34.3560    8.8350 C.3     7  ILE7        0.0020
     21  CD1       47.8750   36.2900    8.8650 C.3     7  ILE7        0.0001
     22  N         53.5080   36.2170    8.6900 N.am    8  SER8       -0.1952
     23  CA        54.7740   35.7100    8.1750 C.3     8  SER8        0.1924
     24  C         55.8610   35.7450    9.2420 C.2     8  SER8        0.2314
     25  O         56.6590   34.8080    9.3520 O.2     8  SER8       -0.2863
     26  CB        55.1920   36.5110    6.9440 C.3     8  SER8        0.2116
     27  OG        54.1790   36.4690    5.9530 O.3     8  SER8       -0.2180
     28  N         54.9060   33.0100   12.0300 N.3    11  THR11      -0.1203
     29  CA        55.0610   31.6450   11.5360 C.3    11  THR11       0.1994
     30  C         56.5200   31.3300   11.2240 C.2    11  THR11       0.2618
     31  O         56.9940   30.2190   11.4930 O.2    11  THR11      -0.2717
     32  CB        54.1750   31.4380   10.3090 C.3    11  THR11       0.1784
     33  OG1       52.8080   31.6340   10.6860 O.3    11  THR11      -0.2211
     34  CG2       54.3460   30.0370    9.7460 C.3    11  THR11       0.0376
     35  N         57.2540   32.3000   10.6730 N.am   12  GLY12      -0.1942
     36  CA        58.6730   32.0910   10.4340 C.3    12  GLY12       0.2014
     37  C         59.4570   31.9000   11.7180 C.2    12  GLY12       0.2638
     38  O         60.3450   31.0460   11.7940 O.2    12  GLY12      -0.2714
     39  N         59.1360   32.6880   12.7480 N.am   13  LEU13      -0.1977
     40  CA        59.8050   32.5370   14.0360 C.3    13  LEU13       0.1596
     41  C         59.4290   31.2230   14.7070 C.2    13  LEU13       0.2287
     42  O         60.2660   30.5960   15.3630 O.2    13  LEU13      -0.2864
     43  CB        59.4680   33.7150   14.9500 C.3    13  LEU13       0.0297
     44  CG        60.0920   35.0690   14.6140 C.3    13  LEU13       0.0022
     45  CD1       59.5600   36.1380   15.5530 C.3    13  LEU13       0.0001
     46  CD2       61.6110   35.0080   14.6800 C.3    13  LEU13       0.0001
     47  N         58.4390   28.3050   13.1560 N.3    15  LEU15      -0.1231
     48  CA        59.1930   27.2840   12.4330 C.3    15  LEU15       0.1693
     49  C         60.6690   27.3300   12.8050 C.2    15  LEU15       0.2592
     50  O         61.3140   26.2850   12.9580 O.2    15  LEU15      -0.2718
     51  CB        59.0180   27.4700   10.9240 C.3    15  LEU15       0.0284
     52  CG        57.6250   27.2650   10.3260 C.3    15  LEU15       0.0019
     53  CD1       57.6090   27.6870    8.8680 C.3    15  LEU15       0.0001
     54  CD2       57.1740   25.8180   10.4720 C.3    15  LEU15       0.0001
     55  N         61.2150   28.5370   12.9680 N.am   16  PHE16      -0.1976
     56  CA        62.6290   28.6780   13.2940 C.3    16  PHE16       0.1639
     57  C         62.9440   28.0830   14.6610 C.2    16  PHE16       0.2290
     58  O         63.8930   27.3040   14.8080 O.2    16  PHE16      -0.2864
     59  CB        63.0300   30.1520   13.2420 C.3    16  PHE16       0.0560
     60  CG        64.4500   30.4050   13.6560 C.ar   16  PHE16      -0.0200
     61  CD1       65.4870   30.2510   12.7510 C.ar   16  PHE16      -0.0042
     62  CD2       64.7490   30.7980   14.9510 C.ar   16  PHE16      -0.0042
     63  CE1       66.7960   30.4810   13.1310 C.ar   16  PHE16      -0.0003
     64  CE2       66.0550   31.0300   15.3350 C.ar   16  PHE16      -0.0003
     65  CZ        67.0790   30.8710   14.4250 C.ar   16  PHE16      -0.0000
     66  N         65.6430   24.9950   14.9520 N.3    20  PHE20      -0.1241
     67  CA        67.0040   25.1400   15.4530 C.3    20  PHE20       0.1605
     68  C         67.0930   25.2590   16.9720 C.2    20  PHE20       0.2264
     69  O         68.2040   25.2310   17.5120 O.2    20  PHE20      -0.2867
     70  CB        67.6780   26.3680   14.8270 C.3    20  PHE20       0.0534
     71  CG        67.7870   26.3120   13.3290 C.ar   20  PHE20      -0.0203
     72  CD1       68.7060   25.4760   12.7150 C.ar   20  PHE20      -0.0042
     73  CD2       66.9840   27.1130   12.5340 C.ar   20  PHE20      -0.0042
     74  CE1       68.8100   25.4290   11.3350 C.ar   20  PHE20      -0.0003
     75  CE2       67.0850   27.0720   11.1540 C.ar   20  PHE20      -0.0003
     76  CZ        67.9980   26.2270   10.5550 C.ar   20  PHE20      -0.0000
     77  N         56.2390   21.0340   10.4440 N.3    71  VAL71      -0.1231
     78  CA        55.7610   22.2390    9.7680 C.3    71  VAL71       0.1692
     79  C         54.3470   22.5720   10.2180 C.2    71  VAL71       0.2591
     80  O         54.0420   23.7120   10.5800 O.2    71  VAL71      -0.2718
     81  CB        55.8210   22.0620    8.2400 C.3    71  VAL71       0.0266
     82  CG1       55.2650   23.2950    7.5400 C.3    71  VAL71       0.0020
     83  CG2       57.2330   21.7920    7.7870 C.3    71  VAL71       0.0020
     84  N         53.4620   21.5750   10.1990 N.am   72  LEU72      -0.1980
     85  CA        52.0650   21.8260   10.5330 C.3    72  LEU72       0.1596
     86  C         51.9100   22.2940   11.9750 C.2    72  LEU72       0.2287
     87  O         51.1660   23.2430   12.2500 O.2    72  LEU72      -0.2864
     88  CB        51.2370   20.5680   10.2730 C.3    72  LEU72       0.0297
     89  CG        51.1580   20.1290    8.8100 C.3    72  LEU72       0.0022
     90  CD1       50.4530   18.7890    8.6730 C.3    72  LEU72       0.0001
     91  CD2       50.4590   21.1910    7.9820 C.3    72  LEU72       0.0001
     92  N         50.5990   30.8600   13.4560 N.3    79  HIS79      -0.1241
     93  CA        49.3750   31.5150   13.0070 C.3    79  HIS79       0.1621
     94  C         48.4420   31.8480   14.1640 C.2    79  HIS79       0.2264
     95  O         47.6980   32.8330   14.0860 O.2    79  HIS79      -0.2867
     96  CB        48.6520   30.6440   11.9850 C.3    79  HIS79       0.0745
     97  CG        49.2480   30.7040   10.6140 C.ar   79  HIS79       0.0817
     98  ND1       50.5280   30.2760   10.3380 N.ar   79  HIS79      -0.2268
     99  CD2       48.7390   31.1490    9.4400 C.ar   79  HIS79       0.1154
    100  CE1       50.7800   30.4480    9.0520 C.ar   79  HIS79       0.1986
    101  NE2       49.7130   30.9810    8.4860 N.ar   79  HIS79      -0.2212
    102  N         47.4280   35.6710   14.6250 N.3    83  TYR83      -0.1241
    103  CA        46.0720   36.1900   14.7470 C.3    83  TYR83       0.1605
    104  C         45.7640   36.6610   16.1590 C.2    83  TYR83       0.2264
    105  O         44.8470   37.4690   16.3450 O.2    83  TYR83      -0.2867
    106  CB        45.0580   35.1400   14.2960 C.3    83  TYR83       0.0534
    107  CG        44.9060   35.1090   12.7980 C.ar   83  TYR83      -0.0201
    108  CD1       44.0290   35.9720   12.1550 C.ar   83  TYR83      -0.0009
    109  CD2       45.6650   34.2440   12.0210 C.ar   83  TYR83      -0.0009
    110  CE1       43.8950   35.9620   10.7820 C.ar   83  TYR83       0.0417
    111  CE2       45.5380   34.2260   10.6440 C.ar   83  TYR83       0.0417
    112  CZ        44.6510   35.0860   10.0320 C.ar   83  TYR83       0.1957
    113  OH        44.5160   35.0750    8.6660 O.3    83  TYR83      -0.2866
@<TRIPOS>BOND
     1    13    12    1
     2    12     9    1
     3    27    26    1
     4     9     8    1
     5     9    10    1
     6     8     3   am
     7    10    11    2
     8     6     7    1
     9     6     5    1
    10    26    23    1
    11     7     1    1
    12    82    81    1
    13     5     2    1
    14    83    81    1
    15     3     2    1
    16     3     4    2
    17    91    89    1
    18     1     2    1
    19    23    22    1
    20    23    24    1
    21    81    78    1
    22   101   100   ar
    23   101    99   ar
    24   113   112    1
    25    90    89    1
    26    22    16   am
    27    89    88    1
    28    20    18    1
    29    21    19    1
    30    53    52    1
    31   100    98   ar
    32    18    19    1
    33    18    15    1
    34    24    25    2
    35    99    97   ar
    36    16    17    2
    37    16    15    1
    38    34    32    1
    39    78    79    1
    40    78    77    1
    41   112   111   ar
    42   112   110   ar
    43    15    14    1
    44    84    79   am
    45    84    85    1
    46    79    80    2
    47    88    85    1
    48    32    33    1
    49    32    29    1
    50    52    54    1
    51    52    51    1
    52    98    97   ar
    53    36    35    1
    54    36    37    1
    55    85    86    1
    56    76    75   ar
    57    76    74   ar
    58    97    96    1
    59   111   109   ar
    60    35    30   am
    61   110   108   ar
    62    51    48    1
    63    75    73   ar
    64    30    31    2
    65    30    29    1
    66    74    72   ar
    67    29    28    1
    68    37    38    2
    69    37    39   am
    70    86    87    2
    71    96    93    1
    72   109   107   ar
    73   108   107   ar
    74    48    49    1
    75    48    47    1
    76    73    71   ar
    77    72    71   ar
    78    39    40    1
    79    61    63   ar
    80    61    60   ar
    81   107   106    1
    82    49    50    2
    83    49    55   am
    84    55    56    1
    85    93    92    1
    86    93    94    1
    87    63    65   ar
    88    59    56    1
    89    59    60    1
    90    56    57    1
    91    71    70    1
    92    60    62   ar
    93    40    41    1
    94    40    43    1
    95    95    94    2
    96   106   103    1
    97    65    64   ar
    98    44    46    1
    99    44    43    1
   100    44    45    1
   101   102   103    1
   102    57    58    2
   103    41    42    2
   104   103   104    1
   105    70    67    1
   106    62    64   ar
   107    66    67    1
   108    67    68    1
   109   104   105    2
   110    68    69    2
