@<TRIPOS>MOLECULE
tmp/5l8rE29.pdb
 114 110 0 0 0
SMALL
GASTEIGER

@<TRIPOS>ATOM
      1  N         26.4250   -4.8690   72.5420 N.3    36  THR36      -0.1218
      2  CA        25.2770   -4.0370   72.8800 C.3    36  THR36       0.1862
      3  C         23.9510   -4.7680   72.7130 C.2    36  THR36       0.2287
      4  O         22.9550   -4.3510   73.3150 O.2    36  THR36      -0.2866
      5  CB        25.2760   -2.7620   72.0320 C.3    36  THR36       0.1770
      6  OG1       25.3240   -3.1000   70.6400 O.3    36  THR36      -0.2211
      7  CG2       26.4740   -1.8850   72.3880 C.3    36  THR36       0.0375
      8  N         21.8630   -5.4790   75.7980 N.3    39  ILE39      -0.1231
      9  CA        21.0320   -4.4440   76.4100 C.3    39  ILE39       0.1692
     10  C         19.6070   -4.5030   75.8740 C.2    39  ILE39       0.2592
     11  O         18.6390   -4.3000   76.6180 O.2    39  ILE39      -0.2718
     12  CB        21.6660   -3.0570   76.1900 C.3    39  ILE39       0.0266
     13  CG1       22.9590   -2.9480   76.9900 C.3    39  ILE39       0.0019
     14  CG2       20.6920   -1.9350   76.5670 C.3    39  ILE39       0.0020
     15  CD1       23.8900   -1.9120   76.4540 C.3    39  ILE39       0.0001
     16  N         19.4460   -4.8020   74.5860 N.am   40  TRP40      -0.1976
     17  CA        18.0930   -4.8670   74.0500 C.3    40  TRP40       0.1640
     18  C         17.3770   -6.1270   74.5220 C.2    40  TRP40       0.2290
     19  O         16.2030   -6.0700   74.9160 O.2    40  TRP40      -0.2864
     20  CB        18.1280   -4.7780   72.5280 C.3    40  TRP40       0.0576
     21  CG        18.8290   -3.5420   72.0460 C.ar   40  TRP40       0.0006
     22  CD1       19.9550   -3.4860   71.2800 C.ar   40  TRP40       0.0946
     23  CD2       18.4690   -2.1850   72.3280 C.ar   40  TRP40       0.0152
     24  NE1       20.3090   -2.1820   71.0520 N.ar   40  TRP40      -0.2442
     25  CE2       19.4150   -1.3610   71.6870 C.ar   40  TRP40       0.0810
     26  CE3       17.4310   -1.5860   73.0520 C.ar   40  TRP40       0.0012
     27  CZ2       19.3560    0.0350   71.7470 C.ar   40  TRP40       0.0191
     28  CZ3       17.3730   -0.2040   73.1080 C.ar   40  TRP40       0.0001
     29  CH2       18.3310    0.5910   72.4590 C.ar   40  TRP40       0.0015
     30  N         28.9400    0.9070   61.0520 N.3   689  ILE689     -0.1245
     31  CA        29.4190    0.8840   62.4270 C.3   689  ILE689      0.1561
     32  C         30.8470    0.3680   62.4910 C.2   689  ILE689      0.2260
     33  O         31.6230    0.8040   63.3400 O.2   689  ILE689     -0.2867
     34  CB        28.4680    0.0530   63.3110 C.3   689  ILE689      0.0252
     35  CG1       27.1530    0.7980   63.5200 C.3   689  ILE689      0.0019
     36  CG2       29.1140   -0.2780   64.6590 C.3   689  ILE689      0.0019
     37  CD1       26.2000    0.0840   64.4480 C.3   689  ILE689      0.0001
     38  N         32.8710    3.4660   61.9680 N.3   692  ILE692     -0.1231
     39  CA        32.8190    4.3340   63.1460 C.3   692  ILE692      0.1692
     40  C         33.6660    3.7600   64.2850 C.2   692  ILE692      0.2591
     41  O         34.4060    4.4880   64.9690 O.2   692  ILE692     -0.2718
     42  CB        31.3490    4.5440   63.5620 C.3   692  ILE692      0.0266
     43  CG1       30.5910    5.2690   62.4490 C.3   692  ILE692      0.0019
     44  CG2       31.2420    5.3110   64.8680 C.3   692  ILE692      0.0020
     45  CD1       29.1140    5.3290   62.6670 C.3   692  ILE692      0.0001
     46  N         33.5780    2.4430   64.4940 N.am  693  VAL693     -0.1980
     47  CA        34.3810    1.7630   65.5060 C.3   693  VAL693      0.1595
     48  C         35.8650    1.9470   65.2220 C.2   693  VAL693      0.2287
     49  O         36.6570    2.2000   66.1370 O.2   693  VAL693     -0.2864
     50  CB        33.9980    0.2700   65.5760 C.3   693  VAL693      0.0276
     51  CG1       35.0780   -0.5410   66.2970 C.3   693  VAL693      0.0022
     52  CG2       32.6500    0.0970   66.2560 C.3   693  VAL693      0.0022
     53  N         36.8680    5.1870   66.5550 N.3   696  HIS696     -0.1241
     54  CA        37.0040    5.2370   68.0090 C.3   696  HIS696      0.1621
     55  C         38.2740    4.5510   68.4990 C.2   696  HIS696      0.2264
     56  O         38.9360    5.0490   69.4190 O.2   696  HIS696     -0.2867
     57  CB        35.7960    4.6040   68.6620 C.3   696  HIS696      0.0745
     58  CG        34.5730    5.4330   68.5360 C.ar  696  HIS696      0.0817
     59  ND1       34.0820    5.8410   67.3160 N.ar  696  HIS696     -0.2268
     60  CD2       33.7530    5.9550   69.4730 C.ar  696  HIS696      0.1154
     61  CE1       32.9990    6.5700   67.5090 C.ar  696  HIS696      0.1986
     62  NE2       32.7760    6.6470   68.8080 N.ar  696  HIS696     -0.2212
     63  N         38.9960    5.2070   72.3780 N.3   701  VAL701     -0.1231
     64  CA        37.7080    5.4770   73.0040 C.3   701  VAL701      0.1692
     65  C         36.6600    4.5010   72.4700 C.2   701  VAL701      0.2592
     66  O         35.4520    4.7660   72.5130 O.2   701  VAL701     -0.2718
     67  CB        37.3130    6.9510   72.7940 C.3   701  VAL701      0.0266
     68  CG1       36.8200    7.2040   71.3640 C.3   701  VAL701      0.0020
     69  CG2       36.3040    7.3900   73.8430 C.3   701  VAL701      0.0020
     70  N         37.1120    3.3530   71.9840 N.am  702  ALA702     -0.1966
     71  CA        36.1770    2.2950   71.6210 C.3   702  ALA702      0.1713
     72  C         35.6620    1.6170   72.8830 C.2   702  ALA702      0.2458
     73  O         36.4550    1.2950   73.7710 O.2   702  ALA702     -0.2730
     74  CB        36.8410    1.2670   70.7130 C.3   702  ALA702      0.0333
     75  N         34.3590    1.3830   73.0000 N.am  703  PRO703     -0.2727
     76  CA        33.8150    0.7800   74.2190 C.3   703  PRO703      0.1402
     77  C         34.0050   -0.7270   74.2430 C.2   703  PRO703      0.2269
     78  O         34.1080   -1.3850   73.2060 O.2   703  PRO703     -0.2865
     79  CB        32.3280    1.1340   74.1420 C.3   703  PRO703      0.0296
     80  CG        32.0600    1.0930   72.6870 C.3   703  PRO703      0.0237
     81  CD        33.3040    1.6420   72.0090 C.3   703  PRO703      0.0939
     82  N         31.7170   -2.8980   75.6060 N.3   705  THR705     -0.1218
     83  CA        30.4500   -3.4010   75.0920 C.3   705  THR705      0.1862
     84  C         30.3940   -3.1010   73.6010 C.2   705  THR705      0.2287
     85  O         30.0390   -1.9890   73.1970 O.2   705  THR705     -0.2866
     86  CB        29.2660   -2.7690   75.8270 C.3   705  THR705      0.1770
     87  OG1       29.3660   -3.0460   77.2290 O.3   705  THR705     -0.2211
     88  CG2       27.9580   -3.3360   75.3140 C.3   705  THR705      0.0375
     89  N         29.6850   -2.2280   69.9740 N.3   707  PRO707     -0.2102
     90  CA        28.4730   -1.7340   69.3070 C.3   707  PRO707      0.1504
     91  C         28.0420   -2.6650   68.1810 C.2   707  PRO707      0.2575
     92  O         28.8590   -3.1030   67.3680 O.2   707  PRO707     -0.2718
     93  CB        28.8870   -0.3490   68.7830 C.3   707  PRO707      0.0282
     94  CG        30.3660   -0.2920   68.9130 C.3   707  PRO707      0.0208
     95  CD        30.7570   -1.2220   70.0040 C.3   707  PRO707      0.0893
     96  N         26.7420   -2.9440   68.1300 N.am  708  ARG708     -0.1980
     97  CA        26.1400   -3.7830   67.1070 C.3   708  ARG708      0.1597
     98  C         24.8960   -3.0950   66.5690 C.2   708  ARG708      0.2287
     99  O         24.1650   -2.4360   67.3120 O.2   708  ARG708     -0.2864
    100  CB        25.7500   -5.1690   67.6610 C.3   708  ARG708      0.0334
    101  CG        26.9130   -6.0490   68.1190 C.3   708  ARG708      0.0492
    102  CD        27.6150   -6.6760   66.9340 C.3   708  ARG708      0.2205
    103  NE        28.6260   -7.6480   67.3330 N.pl3 708  ARG708     -0.0865
    104  CZ        29.9250   -7.3790   67.4360 C.cat 708  ARG708      0.5346
    105  NH1       30.3740   -6.1620   67.1760 N.pl3 708  ARG708      0.1354
    106  NH2       30.7770   -8.3270   67.7960 N.pl3 708  ARG708      0.1354
    107  N         21.0390   -3.0840   65.3040 N.3   710  LEU710     -0.1245
    108  CA        19.8860   -3.7840   65.8540 C.3   710  LEU710      0.1561
    109  C         19.6660   -5.1110   65.1310 C.2   710  LEU710      0.2260
    110  O         20.0520   -5.2870   63.9710 O.2   710  LEU710     -0.2867
    111  CB        18.6390   -2.9120   65.7480 C.3   710  LEU710      0.0270
    112  CG        18.8280   -1.4770   66.2400 C.3   710  LEU710      0.0019
    113  CD1       17.5560   -0.6560   66.0480 C.3   710  LEU710      0.0001
    114  CD2       19.2690   -1.4690   67.6920 C.3   710  LEU710      0.0001
@<TRIPOS>BOND
     1    30    31    1
     2    38    39    1
     3    31    32    1
     4    31    34    1
     5    43    45    1
     6    43    42    1
     7    32    33    2
     8    39    42    1
     9    39    40    1
    10    34    35    1
    11    34    36    1
    12    35    37    1
    13    42    44    1
    14   110   109    2
    15    40    46   am
    16    40    41    2
    17    46    47    1
    18   109   108    1
    19    48    47    1
    20    48    49    2
    21   107   108    1
    22    47    50    1
    23    50    52    1
    24    50    51    1
    25   111   108    1
    26   111   112    1
    27   113   112    1
    28   112   114    1
    29    53    54    1
    30    98    97    1
    31    98    99    2
    32   102   103    1
    33   102   101    1
    34    97   100    1
    35    97    96    1
    36   105   104    1
    37    59    61   ar
    38    59    58   ar
    39   103   104    2
    40    92    91    2
    41   104   106    1
    42    61    62   ar
    43   100   101    1
    44    54    55    1
    45    54    57    1
    46    96    91   am
    47    91    90    1
    48    55    56    2
    49    58    57    1
    50    58    60   ar
    51    93    94    1
    52    93    90    1
    53    62    60   ar
    54    94    95    1
    55    90    89    1
    56    89    95    1
    57     6     5    1
    58    74    71    1
    59    24    22   ar
    60    24    25   ar
    61    22    21   ar
    62    68    67    1
    63    71    70    1
    64    71    72    1
    65    25    27   ar
    66    25    23   ar
    67    27    29   ar
    68    70    65   am
    69    81    80    1
    70    81    75    1
    71     5     7    1
    72     5     2    1
    73    21    23   ar
    74    21    20    1
    75    23    26   ar
    76    63    64    1
    77    29    28   ar
    78    65    66    2
    79    65    64    1
    80    20    17    1
    81     1     2    1
    82    80    79    1
    83     3     2    1
    84     3     4    2
    85    67    64    1
    86    67    69    1
    87    72    75   am
    88    72    73    2
    89    75    76    1
    90    26    28   ar
    91    85    84    2
    92    78    77    2
    93    84    83    1
    94    17    18    1
    95    17    16    1
    96    79    76    1
    97    76    77    1
    98    18    19    2
    99    16    10   am
   100    83    82    1
   101    83    86    1
   102    88    86    1
   103     8     9    1
   104    86    87    1
   105    10     9    1
   106    10    11    2
   107    12     9    1
   108    12    14    1
   109    12    13    1
   110    15    13    1
