@<TRIPOS>MOLECULE
tmp/5l8rE50.pdb
 255 251 0 0 0
SMALL
GASTEIGER

@<TRIPOS>ATOM
      1  N        -12.9750    0.1950   47.6090 N.3   443  PHE443     -0.1241
      2  CA       -12.0580    1.2760   47.2560 C.3   443  PHE443      0.1605
      3  C        -12.0810    1.5750   45.7580 C.2   443  PHE443      0.2264
      4  O        -12.0160    2.7460   45.3490 O.2   443  PHE443     -0.2867
      5  CB       -10.6550    0.9040   47.7290 C.3   443  PHE443      0.0534
      6  CG        -9.5750    1.7940   47.2100 C.ar  443  PHE443     -0.0203
      7  CD1       -9.3190    3.0160   47.8070 C.ar  443  PHE443     -0.0042
      8  CD2       -8.7870    1.3920   46.1470 C.ar  443  PHE443     -0.0042
      9  CE1       -8.3060    3.8310   47.3380 C.ar  443  PHE443     -0.0003
     10  CE2       -7.7740    2.1990   45.6760 C.ar  443  PHE443     -0.0003
     11  CZ        -7.5310    3.4200   46.2710 C.ar  443  PHE443     -0.0000
     12  N        -14.4140    4.2180   44.9280 N.3   446  TYR446     -0.1241
     13  CA       -13.8470    5.5480   45.1030 C.3   446  TYR446      0.1605
     14  C        -13.0360    5.9540   43.8840 C.2   446  TYR446      0.2264
     15  O        -13.1890    7.0670   43.3690 O.2   446  TYR446     -0.2867
     16  CB       -12.9740    5.5940   46.3510 C.3   446  TYR446      0.0534
     17  CG       -13.7350    5.6380   47.6460 C.ar  446  TYR446     -0.0201
     18  CD1      -13.9970    6.8470   48.2760 C.ar  446  TYR446     -0.0009
     19  CD2      -14.1800    4.4730   48.2480 C.ar  446  TYR446     -0.0009
     20  CE1      -14.6850    6.8910   49.4700 C.ar  446  TYR446      0.0417
     21  CE2      -14.8690    4.5060   49.4390 C.ar  446  TYR446      0.0417
     22  CZ       -15.1150    5.7150   50.0470 C.ar  446  TYR446      0.1957
     23  OH       -15.7950    5.7430   51.2360 O.3   446  TYR446     -0.2866
     24  N        -18.0740    3.9780   52.6620 N.3   526  VAL526     -0.1245
     25  CA       -17.1530    3.9670   53.7990 C.3   526  VAL526      0.1561
     26  C        -17.2720    2.6610   54.5810 C.2   526  VAL526      0.2260
     27  O        -16.2610    2.0650   54.9800 O.2   526  VAL526     -0.2867
     28  CB       -17.3830    5.1870   54.7100 C.3   526  VAL526      0.0252
     29  CG1      -16.3710    5.1850   55.8350 C.3   526  VAL526      0.0019
     30  CG2      -17.2540    6.4750   53.9200 C.3   526  VAL526      0.0019
     31  N        -15.4510    0.0500   53.1160 N.3   529  ILE529     -0.1245
     32  CA       -14.0300    0.2410   53.3980 C.3   529  ILE529      0.1561
     33  C        -13.6720   -0.3810   54.7440 C.2   529  ILE529      0.2260
     34  O        -12.6550   -1.0750   54.8730 O.2   529  ILE529     -0.2867
     35  CB       -13.6550    1.7350   53.3410 C.3   529  ILE529      0.0252
     36  CG1      -13.7360    2.2540   51.9050 C.3   529  ILE529      0.0019
     37  CG2      -12.2540    1.9540   53.8990 C.3   529  ILE529      0.0019
     38  CD1      -12.6940    1.6660   50.9810 C.3   529  ILE529      0.0001
     39  N        -13.5410   -4.0950   54.4200 N.3   532  PHE532     -0.1227
     40  CA       -12.3040   -4.4420   53.7280 C.3   532  PHE532      0.1736
     41  C        -11.0970   -4.4460   54.6700 C.2   532  PHE532      0.2596
     42  O        -10.4030   -5.4630   54.8180 O.2   532  PHE532     -0.2718
     43  CB       -12.0920   -3.4620   52.5730 C.3   532  PHE532      0.0547
     44  CG       -10.7270   -3.5220   51.9760 C.ar  532  PHE532     -0.0202
     45  CD1      -10.2650   -4.6910   51.3990 C.ar  532  PHE532     -0.0042
     46  CD2       -9.9030   -2.4090   51.9840 C.ar  532  PHE532     -0.0042
     47  CE1       -9.0040   -4.7550   50.8490 C.ar  532  PHE532     -0.0003
     48  CE2       -8.6390   -2.4640   51.4310 C.ar  532  PHE532     -0.0003
     49  CZ        -8.1920   -3.6410   50.8640 C.ar  532  PHE532     -0.0000
     50  N        -10.8440   -3.3080   55.3250 N.am  533  THR533     -0.1953
     51  CA        -9.6610   -3.1770   56.1700 C.3   533  THR533      0.1897
     52  C         -9.6580   -4.2110   57.2930 C.2   533  THR533      0.2313
     53  O         -8.6200   -4.8320   57.5790 O.2   533  THR533     -0.2863
     54  CB        -9.5760   -1.7560   56.7400 C.3   533  THR533      0.1794
     55  OG1      -10.6940   -1.5050   57.6010 O.3   533  THR533     -0.2208
     56  CG2       -9.5670   -0.7140   55.6220 C.3   533  THR533      0.0378
     57  N         -1.9410   -2.6640   59.4250 N.3   589  TRP589     -0.1241
     58  CA        -3.3030   -2.6980   58.9100 C.3   589  TRP589      0.1605
     59  C         -4.3260   -2.3390   59.9740 C.2   589  TRP589      0.2264
     60  O         -5.3790   -1.7840   59.6440 O.2   589  TRP589     -0.2867
     61  CB        -3.6050   -4.0680   58.3020 C.3   589  TRP589      0.0550
     62  CG        -3.2530   -4.1020   56.8590 C.ar  589  TRP589      0.0003
     63  CD1       -2.0410   -4.4060   56.3140 C.ar  589  TRP589      0.0946
     64  CD2       -4.1150   -3.7750   55.7680 C.ar  589  TRP589      0.0152
     65  NE1       -2.1030   -4.3100   54.9440 N.ar  589  TRP589     -0.2442
     66  CE2       -3.3660   -3.9210   54.5850 C.ar  589  TRP589      0.0810
     67  CE3       -5.4520   -3.3840   55.6750 C.ar  589  TRP589      0.0012
     68  CZ2       -3.9070   -3.6860   53.3300 C.ar  589  TRP589      0.0191
     69  CZ3       -5.9880   -3.1490   54.4280 C.ar  589  TRP589      0.0001
     70  CH2       -5.2180   -3.3020   53.2720 C.ar  589  TRP589      0.0015
     71  N         -3.6070   -0.0260   62.0890 N.3   591  TYR591     -0.1227
     72  CA        -3.4530    1.4240   61.9840 C.3   591  TYR591      0.1736
     73  C         -4.2730    1.9850   60.8240 C.2   591  TYR591      0.2595
     74  O         -4.9620    3.0010   60.9670 O.2   591  TYR591     -0.2718
     75  CB        -1.9780    1.7960   61.8250 C.3   591  TYR591      0.0548
     76  CG        -1.8020    3.2580   61.5080 C.ar  591  TYR591     -0.0200
     77  CD1       -1.9770    4.2250   62.4920 C.ar  591  TYR591     -0.0009
     78  CD2       -1.5000    3.6800   60.2190 C.ar  591  TYR591     -0.0009
     79  CE1       -1.8440    5.5700   62.2050 C.ar  591  TYR591      0.0417
     80  CE2       -1.3670    5.0270   59.9210 C.ar  591  TYR591      0.0417
     81  CZ        -1.5380    5.9670   60.9180 C.ar  591  TYR591      0.1957
     82  OH        -1.4050    7.3070   60.6260 O.3   591  TYR591     -0.2866
     83  N         -4.1980    1.3370   59.6640 N.am  592  ASN592     -0.1974
     84  CA        -4.9550    1.7700   58.4960 C.3   592  ASN592      0.1688
     85  C         -6.4570    1.7520   58.7730 C.2   592  ASN592      0.2292
     86  O         -7.1580    2.7570   58.5750 O.2   592  ASN592     -0.2864
     87  CB        -4.6020    0.8570   57.3200 C.3   592  ASN592      0.1181
     88  CG        -4.9580    1.4510   55.9870 C.2   592  ASN592      0.2629
     89  OD1       -5.1860    2.6540   55.8700 O.2   592  ASN592     -0.2716
     90  ND2       -5.0020    0.6060   54.9590 N.am  592  ASN592     -0.0877
     91  N         -7.5150    4.2510   61.4960 N.3   595  SER595     -0.1202
     92  CA        -7.3750    5.6010   60.9650 C.3   595  SER595      0.2020
     93  C         -8.5810    5.9740   60.1160 C.2   595  SER595      0.2618
     94  O         -9.1960    7.0280   60.3190 O.2   595  SER595     -0.2717
     95  CB        -6.0840    5.7250   60.1540 C.3   595  SER595      0.2103
     96  OG        -4.9530    5.8830   60.9970 O.3   595  SER595     -0.2182
     97  N         -8.9460    5.1100   59.1640 N.am  596  VAL596     -0.1979
     98  CA       -10.1040    5.4270   58.3350 C.3   596  VAL596      0.1595
     99  C        -11.3720    5.4810   59.1790 C.2   596  VAL596      0.2287
    100  O        -12.2890    6.2580   58.8860 O.2   596  VAL596     -0.2864
    101  CB       -10.2260    4.4240   57.1710 C.3   596  VAL596      0.0276
    102  CG1      -11.5170    4.6550   56.3830 C.3   596  VAL596      0.0022
    103  CG2       -9.0240    4.5470   56.2580 C.3   596  VAL596      0.0022
    104  N        -11.3210    8.9520   61.0240 N.3   599  PHE599     -0.1241
    105  CA       -11.5840    9.9820   60.0200 C.3   599  PHE599      0.1605
    106  C        -13.0540    9.9840   59.6140 C.2   599  PHE599      0.2264
    107  O        -13.6620   11.0500   59.4430 O.2   599  PHE599     -0.2867
    108  CB       -10.7010    9.7750   58.7890 C.3   599  PHE599      0.0534
    109  CG        -9.2850   10.2080   58.9770 C.ar  599  PHE599     -0.0203
    110  CD1       -8.8520   10.7120   60.1880 C.ar  599  PHE599     -0.0042
    111  CD2       -8.3840   10.1230   57.9320 C.ar  599  PHE599     -0.0042
    112  CE1       -7.5350   11.1100   60.3630 C.ar  599  PHE599     -0.0003
    113  CE2       -7.0710   10.5260   58.0930 C.ar  599  PHE599     -0.0003
    114  CZ        -6.6440   11.0170   59.3130 C.ar  599  PHE599     -0.0000
    115  N        -11.7780   10.2470   46.7150 N.3   634  ILE634     -0.1245
    116  CA       -10.5300   10.3640   47.4700 C.3   634  ILE634      0.1561
    117  C        -10.0490   11.8080   47.4800 C.2   634  ILE634      0.2260
    118  O         -9.5530   12.3120   48.4990 O.2   634  ILE634     -0.2867
    119  CB        -9.4590    9.4150   46.8980 C.3   634  ILE634      0.0252
    120  CG1       -9.9750    7.9710   46.8780 C.3   634  ILE634      0.0019
    121  CG2       -8.1810    9.5050   47.7130 C.3   634  ILE634      0.0019
    122  CD1      -10.4620    7.4650   48.2210 C.3   634  ILE634      0.0001
    123  N        -11.6120   13.6170   50.2630 N.3   637  TRP637     -0.1227
    124  CA       -10.9550   13.3940   51.5470 C.3   637  TRP637      0.1737
    125  C         -9.6850   14.2250   51.6620 C.2   637  TRP637      0.2595
    126  O         -9.4210   14.8290   52.7090 O.2   637  TRP637     -0.2718
    127  CB       -10.6480   11.9050   51.7310 C.3   637  TRP637      0.0564
    128  CG       -11.8550   11.1200   52.1210 C.ar  637  TRP637      0.0003
    129  CD1      -12.7690   10.5430   51.2840 C.ar  637  TRP637      0.0946
    130  CD2      -12.3030   10.8510   53.4520 C.ar  637  TRP637      0.0152
    131  NE1      -13.7550    9.9260   52.0140 N.ar  637  TRP637     -0.2442
    132  CE2      -13.4930   10.1010   53.3480 C.ar  637  TRP637      0.0810
    133  CE3      -11.8160   11.1730   54.7220 C.ar  637  TRP637      0.0012
    134  CZ2      -14.1980    9.6650   54.4670 C.ar  637  TRP637      0.0191
    135  CZ3      -12.5190   10.7400   55.8300 C.ar  637  TRP637      0.0001
    136  CH2      -13.6980    9.9950   55.6950 C.ar  637  TRP637      0.0015
    137  N         -8.8880   14.2710   50.5920 N.am  638  LEU638     -0.1980
    138  CA        -7.6610   15.0570   50.6240 C.3   638  LEU638      0.1596
    139  C         -7.9590   16.5380   50.8330 C.2   638  LEU638      0.2287
    140  O         -7.2680   17.2140   51.6030 O.2   638  LEU638     -0.2864
    141  CB        -6.8790   14.8470   49.3280 C.3   638  LEU638      0.0297
    142  CG        -5.5800   15.6370   49.1600 C.3   638  LEU638      0.0022
    143  CD1       -4.4280   14.9520   49.8880 C.3   638  LEU638      0.0001
    144  CD2       -5.2570   15.8490   47.6860 C.3   638  LEU638      0.0001
    145  N         -8.7880   16.6940   54.9620 N.3   642  LEU642     -0.1231
    146  CA        -7.4290   16.8980   55.4540 C.3   642  LEU642      0.1693
    147  C         -6.9750   18.3420   55.2560 C.2   642  LEU642      0.2592
    148  O         -6.6010   19.0220   56.2170 O.2   642  LEU642     -0.2718
    149  CB        -6.4720   15.9240   54.7660 C.3   642  LEU642      0.0284
    150  CG        -6.5740   14.4610   55.1990 C.3   642  LEU642      0.0019
    151  CD1       -5.4430   13.6470   54.5840 C.3   642  LEU642      0.0001
    152  CD2       -6.5460   14.3430   56.7140 C.3   642  LEU642      0.0001
    153  N         -7.0020   18.8280   54.0130 N.am  643  TRP643     -0.1976
    154  CA        -6.5120   20.1780   53.7400 C.3   643  TRP643      0.1640
    155  C         -7.3210   21.2290   54.4910 C.2   643  TRP643      0.2290
    156  O         -6.7590   22.1960   55.0190 O.2   643  TRP643     -0.2864
    157  CB        -6.5410   20.4580   52.2360 C.3   643  TRP643      0.0576
    158  CG        -6.0340   21.8150   51.8720 C.ar  643  TRP643      0.0006
    159  CD1       -4.7370   22.1710   51.6500 C.ar  643  TRP643      0.0946
    160  CD2       -6.8140   23.0050   51.6900 C.ar  643  TRP643      0.0152
    161  NE1       -4.6580   23.5110   51.3470 N.ar  643  TRP643     -0.2442
    162  CE2       -5.9200   24.0440   51.3580 C.ar  643  TRP643      0.0810
    163  CE3       -8.1800   23.2910   51.7720 C.ar  643  TRP643      0.0012
    164  CZ2       -6.3470   25.3500   51.1130 C.ar  643  TRP643      0.0191
    165  CZ3       -8.6040   24.5910   51.5250 C.ar  643  TRP643      0.0001
    166  CH2       -7.6900   25.6020   51.2000 C.ar  643  TRP643      0.0015
    167  N         -7.0350   20.7850   58.6550 N.3   646  ALA646     -0.1245
    168  CA        -5.6900   20.9500   59.1960 C.3   646  ALA646      0.1562
    169  C         -5.3010   22.4100   59.3770 C.2   646  ALA646      0.2260
    170  O         -4.1930   22.6850   59.8540 O.2   646  ALA646     -0.2867
    171  CB        -4.6600   20.2660   58.2960 C.3   646  ALA646      0.0290
    172  N         -2.1030   23.9680   61.7940 N.3   650  ILE650     -0.1245
    173  CA        -1.0100   24.7080   61.1650 C.3   650  ILE650      0.1561
    174  C         -1.1150   26.2060   61.4170 C.2   650  ILE650      0.2260
    175  O         -0.1950   26.9560   61.0540 O.2   650  ILE650     -0.2867
    176  CB        -0.9480   24.4160   59.6510 C.3   650  ILE650      0.0252
    177  CG1       -2.1630   25.0060   58.9340 C.3   650  ILE650      0.0019
    178  CG2       -0.8640   22.9120   59.4090 C.3   650  ILE650      0.0019
    179  CD1       -2.2780   24.5870   57.4750 C.3   650  ILE650      0.0001
    180  N          2.0360   17.9830   65.9120 N.3   664  PHE664     -0.1241
    181  CA         1.7710   17.6900   64.5090 C.3   664  PHE664      0.1605
    182  C          3.0780   17.4660   63.7520 C.2   664  PHE664      0.2264
    183  O          3.3180   16.3930   63.1760 O.2   664  PHE664     -0.2867
    184  CB         0.9710   18.8530   63.9170 C.3   664  PHE664      0.0534
    185  CG         0.3260   18.5600   62.5980 C.ar  664  PHE664     -0.0203
    186  CD1       -0.6130   17.5460   62.4770 C.ar  664  PHE664     -0.0042
    187  CD2        0.6210   19.3380   61.4840 C.ar  664  PHE664     -0.0042
    188  CE1       -1.2260   17.2890   61.2580 C.ar  664  PHE664     -0.0003
    189  CE2        0.0100   19.0940   60.2600 C.ar  664  PHE664     -0.0003
    190  CZ        -0.9160   18.0640   60.1470 C.ar  664  PHE664     -0.0000
    191  N          4.8330   13.8270   62.5290 N.3   668  HIS668     -0.1241
    192  CA         5.2910   13.6320   61.1550 C.3   668  HIS668      0.1621
    193  C          6.7530   13.1990   61.1290 C.2   668  HIS668      0.2264
    194  O          7.1370   12.2920   60.3750 O.2   668  HIS668     -0.2867
    195  CB         5.1240   14.9190   60.3470 C.3   668  HIS668      0.0745
    196  CG         3.7520   15.1340   59.7950 C.ar  668  HIS668      0.0817
    197  ND1        2.7130   15.6290   60.5530 N.ar  668  HIS668     -0.2268
    198  CD2        3.2610   14.9670   58.5440 C.ar  668  HIS668      0.1154
    199  CE1        1.6360   15.7400   59.7950 C.ar  668  HIS668      0.1986
    200  NE2        1.9390   15.3370   58.5750 N.ar  668  HIS668     -0.2212
    201  N          7.3260    9.5990   62.3250 N.3   671  TRP671     -0.1241
    202  CA         6.7610    8.6800   61.3420 C.3   671  TRP671      0.1605
    203  C          7.6980    8.5070   60.1570 C.2   671  TRP671      0.2264
    204  O          7.9620    7.3810   59.7180 O.2   671  TRP671     -0.2867
    205  CB         5.3980    9.1810   60.8720 C.3   671  TRP671      0.0550
    206  CG         4.7550    8.3400   59.8090 C.ar  671  TRP671      0.0003
    207  CD1        3.8900    7.2990   60.0000 C.ar  671  TRP671      0.0946
    208  CD2        4.8970    8.4860   58.3870 C.ar  671  TRP671      0.0152
    209  NE1        3.4800    6.7900   58.7860 N.ar  671  TRP671     -0.2442
    210  CE2        4.0820    7.5000   57.7810 C.ar  671  TRP671      0.0810
    211  CE3        5.6230    9.3610   57.5670 C.ar  671  TRP671      0.0012
    212  CZ2        3.9830    7.3560   56.3980 C.ar  671  TRP671      0.0191
    213  CZ3        5.5120    9.2300   56.1910 C.ar  671  TRP671      0.0001
    214  CH2        4.7030    8.2270   55.6190 C.ar  671  TRP671      0.0015
    215  N          6.4730    4.1560   63.3840 N.3   723  TYR723     -0.1241
    216  CA         5.4130    4.3810   62.4100 C.3   723  TYR723      0.1605
    217  C          4.0830    4.6230   63.1160 C.2   723  TYR723      0.2264
    218  O          3.3960    5.6170   62.8510 O.2   723  TYR723     -0.2867
    219  CB         5.3310    3.1840   61.4590 C.3   723  TYR723      0.0534
    220  CG         4.5540    3.4210   60.1830 C.ar  723  TYR723     -0.0201
    221  CD1        5.2000    3.4890   58.9550 C.ar  723  TYR723     -0.0009
    222  CD2        3.1680    3.5540   60.2050 C.ar  723  TYR723     -0.0009
    223  CE1        4.4860    3.6910   57.7860 C.ar  723  TYR723      0.0417
    224  CE2        2.4500    3.7600   59.0470 C.ar  723  TYR723      0.0417
    225  CZ         3.1110    3.8290   57.8440 C.ar  723  TYR723      0.1957
    226  OH         2.3840    4.0300   56.7010 O.3   723  TYR723     -0.2866
    227  N          2.1680    8.3070   63.1970 N.3   727  GLY727     -0.1225
    228  CA         0.8530    8.4610   62.5930 C.3   727  GLY727      0.1811
    229  C         -0.2130    8.8060   63.6160 C.2   727  GLY727      0.2280
    230  O         -0.9770    9.7670   63.4490 O.2   727  GLY727     -0.2866
    231  N          0.2020   12.2610   65.0800 N.3   730  THR730     -0.1203
    232  CA        -0.1590   13.2490   64.0710 C.3   730  THR730      0.1994
    233  C         -1.6680   13.4530   64.0290 C.2   730  THR730      0.2618
    234  O         -2.1590   14.5870   64.1360 O.2   730  THR730     -0.2717
    235  CB         0.3510   12.8170   62.7000 C.3   730  THR730      0.1784
    236  OG1        1.7820   12.8350   62.6880 O.3   730  THR730     -0.2211
    237  CG2       -0.1760   13.7590   61.6390 C.3   730  THR730      0.0376
    238  N         -2.4240   12.3590   63.8840 N.am  731  THR731     -0.1952
    239  CA        -3.8780   12.4850   63.9210 C.3   731  THR731      0.1897
    240  C         -4.3490   13.0500   65.2550 C.2   731  THR731      0.2313
    241  O         -5.3510   13.7710   65.3060 O.2   731  THR731     -0.2863
    242  CB        -4.5260   11.1300   63.6230 C.3   731  THR731      0.1794
    243  OG1       -4.3260   10.8170   62.2390 O.3   731  THR731     -0.2208
    244  CG2       -6.0270   11.1470   63.8990 C.3   731  THR731      0.0378
    245  N         -3.7830   16.9130   65.0730 N.3   734  PHE734     -0.1241
    246  CA        -4.7890   17.3390   64.1050 C.3   734  PHE734      0.1605
    247  C         -6.1850   17.4180   64.7310 C.2   734  PHE734      0.2264
    248  O         -6.8510   18.4650   64.6960 O.2   734  PHE734     -0.2867
    249  CB        -4.7450   16.3610   62.9270 C.3   734  PHE734      0.0534
    250  CG        -5.9280   16.4280   62.0130 C.ar  734  PHE734     -0.0203
    251  CD1       -6.3960   17.6410   61.5320 C.ar  734  PHE734     -0.0042
    252  CD2       -6.5450   15.2580   61.5920 C.ar  734  PHE734     -0.0042
    253  CE1       -7.4720   17.6840   60.6710 C.ar  734  PHE734     -0.0003
    254  CE2       -7.6140   15.2950   60.7310 C.ar  734  PHE734     -0.0003
    255  CZ        -8.0860   16.5110   60.2690 C.ar  734  PHE734     -0.0000
@<TRIPOS>BOND
     1    15    14    2
     2    14    13    1
     3    12    13    1
     4    13    16    1
     5     4     3    2
     6    10     8   ar
     7    10    11   ar
     8     3     2    1
     9     8     6   ar
    10    11     9   ar
    11    16    17    1
    12   115   116    1
    13   120   119    1
    14   120   122    1
    15   119   116    1
    16   119   121    1
    17     6     5    1
    18     6     7   ar
    19     2     1    1
    20     2     5    1
    21     9     7   ar
    22   116   117    1
    23   117   118    2
    24    17    19   ar
    25    17    18   ar
    26   144   142    1
    27    19    21   ar
    28    18    20   ar
    29   142   141    1
    30   142   143    1
    31   141   138    1
    32    21    22   ar
    33    20    22   ar
    34    22    23    1
    35   123   124    1
    36   137   138    1
    37   137   125   am
    38   138   139    1
    39   139   140    2
    40    47    49   ar
    41    47    45   ar
    42    49    48   ar
    43    38    36    1
    44   164   166   ar
    45   164   162   ar
    46   166   165   ar
    47   129   131   ar
    48   129   128   ar
    49   161   162   ar
    50   161   159   ar
    51   162   160   ar
    52    45    44   ar
    53    48    46   ar
    54   165   163   ar
    55   124   125    1
    56   124   127    1
    57   159   158   ar
    58   125   126    2
    59   160   163   ar
    60   160   158   ar
    61   127   128    1
    62   158   157    1
    63    36    35    1
    64    44    46   ar
    65    44    43    1
    66   131   132   ar
    67   128   130   ar
    68   157   154    1
    69    43    40    1
    70    24    25    1
    71    31    32    1
    72    70    68   ar
    73    70    69   ar
    74    68    66   ar
    75    35    32    1
    76    35    37    1
    77   132   130   ar
    78   132   134   ar
    79    32    33    1
    80   130   133   ar
    81    40    39    1
    82    40    41    1
    83   154   153    1
    84   154   155    1
    85    25    26    1
    86    25    28    1
    87    30    28    1
    88   153   147   am
    89    69    67   ar
    90   134   136   ar
    91   155   156    2
    92    26    27    2
    93   151   150    1
    94    66    65   ar
    95    66    64   ar
    96    41    42    2
    97    41    50   am
    98    28    29    1
    99   133   135   ar
   100    33    34    2
   101   149   150    1
   102   149   146    1
   103    65    63   ar
   104    90    88   am
   105   145   146    1
   106   150   152    1
   107   147   146    1
   108   147   148    2
   109    50    51    1
   110   214   213   ar
   111   214   212   ar
   112    56    54    1
   113    67    64   ar
   114   136   135   ar
   115    64    62   ar
   116    89    88    2
   117    88    87    1
   118    51    54    1
   119    51    52    1
   120   213   211   ar
   121   103   101    1
   122    63    62   ar
   123   102   101    1
   124   212   210   ar
   125   226   225    1
   126    54    55    1
   127    62    61    1
   128   101    98    1
   129    52    53    2
   130    87    84    1
   131   179   177    1
   132   211   208   ar
   133   210   208   ar
   134   210   209   ar
   135   223   225   ar
   136   223   221   ar
   137   225   224   ar
   138   111   113   ar
   139   111   109   ar
   140   113   114   ar
   141   171   168    1
   142    61    58    1
   143    98    97    1
   144    98    99    1
   145   208   206   ar
   146    84    85    1
   147    84    83    1
   148   198   200   ar
   149   198   196   ar
   150    86    85    2
   151   200   199   ar
   152   167   168    1
   153   209   207   ar
   154   108   109    1
   155   108   105    1
   156   100    99    2
   157    58    57    1
   158    58    59    1
   159   177   176    1
   160   221   220   ar
   161   109   110   ar
   162   224   222   ar
   163    97    93   am
   164   168   169    1
   165   114   112   ar
   166   169   170    2
   167   178   176    1
   168   107   106    2
   169   106   105    1
   170    60    59    2
   171   176   173    1
   172    83    73   am
   173   204   203    2
   174   196   195    1
   175   196   197   ar
   176   199   197   ar
   177   206   207   ar
   178   206   205    1
   179    80    78   ar
   180    80    81   ar
   181   105   104    1
   182    93    94    2
   183    93    92    1
   184   190   189   ar
   185   190   188   ar
   186    95    92    1
   187    95    96    1
   188   203   202    1
   189   220   222   ar
   190   220   219    1
   191   110   112   ar
   192    78    76   ar
   193   189   187   ar
   194   255   253   ar
   195   255   254   ar
   196   195   192    1
   197   194   193    2
   198    82    81    1
   199   253   251   ar
   200   254   252   ar
   201    73    74    2
   202    73    72    1
   203   205   202    1
   204    81    79   ar
   205    92    91    1
   206   175   174    2
   207   193   192    1
   208   192   191    1
   209   173   174    1
   210   173   172    1
   211   188   186   ar
   212   202   201    1
   213   219   216    1
   214   187   185   ar
   215    76    75    1
   216    76    77   ar
   217   251   250   ar
   218   252   250   ar
   219   237   235    1
   220    75    72    1
   221    72    71    1
   222   250   249    1
   223    79    77   ar
   224   243   242    1
   225   216   217    1
   226   216   215    1
   227   186   185   ar
   228   228   227    1
   229   228   229    1
   230   185   184    1
   231   236   235    1
   232   235   232    1
   233   218   217    2
   234   249   246    1
   235   183   182    2
   236   230   229    2
   237   242   244    1
   238   242   239    1
   239   182   181    1
   240   238   239    1
   241   238   233   am
   242   184   181    1
   243   239   240    1
   244   233   232    1
   245   233   234    2
   246   232   231    1
   247   246   247    1
   248   246   245    1
   249   181   180    1
   250   248   247    2
   251   240   241    2
