@<TRIPOS>MOLECULE
tmp/5l8rF19.pdb
 153 140 0 0 0
SMALL
GASTEIGER

@<TRIPOS>ATOM
      1  N         26.5420   14.3560   35.5330 N.3   341  GLY341     -0.1210
      2  CA        25.6260   14.8010   36.5670 C.3   341  GLY341      0.1956
      3  C         25.9760   16.1810   37.0850 C.2   341  GLY341      0.2611
      4  O         25.0900   17.0220   37.2890 O.2   341  GLY341     -0.2717
      5  N         27.2740   16.4370   37.2960 N.am  342  VAL342     -0.1979
      6  CA        27.7040   17.7750   37.7000 C.3   342  VAL342      0.1595
      7  C         27.2550   18.8150   36.6770 C.2   342  VAL342      0.2287
      8  O         26.6170   19.8140   37.0290 O.2   342  VAL342     -0.2864
      9  CB        29.2260   17.8220   37.9170 C.3   342  VAL342      0.0276
     10  CG1       29.6980   19.2720   37.9900 C.3   342  VAL342      0.0022
     11  CG2       29.5880   17.0930   39.1870 C.3   342  VAL342      0.0022
     12  N         23.4240   19.4610   36.7780 N.3   345  SER345     -0.1202
     13  CA        23.0470   20.4410   37.7890 C.3   345  SER345      0.2020
     14  C         23.5060   21.8360   37.3880 C.2   345  SER345      0.2618
     15  O         22.8130   22.8250   37.6500 O.2   345  SER345     -0.2717
     16  CB        23.6180   20.0560   39.1520 C.3   345  SER345      0.2103
     17  OG        22.7160   19.2200   39.8470 O.3   345  SER345     -0.2182
     18  N         24.6670   21.9300   36.7360 N.am  346  LEU346     -0.1979
     19  CA        25.1700   23.2240   36.2910 C.3   346  LEU346      0.1596
     20  C         24.2160   23.8570   35.2880 C.2   346  LEU346      0.2287
     21  O         23.8970   25.0480   35.3830 O.2   346  LEU346     -0.2864
     22  CB        26.5650   23.0610   35.6890 C.3   346  LEU346      0.0297
     23  CG        27.3640   24.3530   35.5370 C.3   346  LEU346      0.0022
     24  CD1       27.7530   24.8970   36.9070 C.3   346  LEU346      0.0001
     25  CD2       28.5900   24.1230   34.6720 C.3   346  LEU346      0.0001
     26  N         21.3000   25.2130   37.1650 N.3   349  GLN349     -0.1245
     27  CA        21.5520   26.4330   37.9220 C.3   349  GLN349      0.1566
     28  C         21.7740   27.6350   37.0100 C.2   349  GLN349      0.2260
     29  O         21.5140   28.7740   37.4150 O.2   349  GLN349     -0.2867
     30  CB        22.7600   26.2460   38.8400 C.3   349  GLN349      0.0367
     31  CG        22.5630   25.2300   39.9530 C.3   349  GLN349      0.0905
     32  CD        21.5750   25.6850   41.0070 C.2   349  GLN349      0.2608
     33  OE1       21.0800   26.8060   40.9730 O.2   349  GLN349     -0.2717
     34  NE2       21.2900   24.8130   41.9560 N.am  349  GLN349     -0.0878
     35  N         17.2330   18.8840   37.7710 N.3   375  GLN375     -0.1245
     36  CA        17.8280   18.5360   39.0580 C.3   375  GLN375      0.1566
     37  C         17.5630   17.0780   39.4150 C.2   375  GLN375      0.2260
     38  O         18.4480   16.3940   39.9500 O.2   375  GLN375     -0.2867
     39  CB        17.3360   19.4790   40.1560 C.3   375  GLN375      0.0367
     40  CG        18.0190   20.8480   40.1500 C.3   375  GLN375      0.0905
     41  CD        19.5300   20.7880   40.3970 C.2   375  GLN375      0.2608
     42  OE1       20.2640   20.0920   39.6980 O.2   375  GLN375     -0.2717
     43  NE2       19.9980   21.5420   41.3880 N.am  375  GLN375     -0.0878
     44  N         19.8160   15.0090   37.2370 N.3   378  ALA378     -0.1231
     45  CA        21.1770   15.0740   37.7610 C.3   378  ALA378      0.1694
     46  C         21.3430   14.1600   38.9660 C.2   378  ALA378      0.2592
     47  O         22.3760   13.4900   39.1110 O.2   378  ALA378     -0.2718
     48  CB        21.5390   16.5170   38.1220 C.3   378  ALA378      0.0304
     49  N         20.3350   14.1140   39.8390 N.am  379  GLY379     -0.1957
     50  CA        20.4250   13.2370   40.9960 C.3   379  GLY379      0.1869
     51  C         20.5350   11.7730   40.6080 C.2   379  GLY379      0.2309
     52  O         21.4430   11.0570   41.0600 O.2   379  GLY379     -0.2863
     53  N         23.8710   10.9560   39.2670 N.3   382  MET382     -0.1230
     54  CA        24.9190   10.8540   40.2810 C.3   382  MET382      0.1702
     55  C         24.8770    9.5000   40.9880 C.2   382  MET382      0.2593
     56  O         25.9130    8.8180   41.1170 O.2   382  MET382     -0.2718
     57  CB        24.7940   12.0020   41.2850 C.3   382  MET382      0.0401
     58  CG        25.1640   13.3700   40.7180 C.3   382  MET382      0.0596
     59  SD        26.8910   13.4900   40.2110 S.3   382  MET382     -0.1393
     60  CE        27.6980   12.8010   41.6540 C.3   382  MET382      0.0692
     61  N         23.6850    9.0890   41.4510 N.am  383  THR383     -0.1953
     62  CA        23.5770    7.7800   42.0950 C.3   383  THR383      0.1897
     63  C         24.0940    6.6810   41.1800 C.2   383  THR383      0.2313
     64  O         24.8130    5.7800   41.6270 O.2   383  THR383     -0.2863
     65  CB        22.1340    7.4810   42.5060 C.3   383  THR383      0.1794
     66  OG1       21.3190    7.3430   41.3370 O.3   383  THR383     -0.2208
     67  CG2       21.5880    8.5920   43.3780 C.3   383  THR383      0.0378
     68  N         27.9550    6.4890   41.1430 N.3   386  PHE386     -0.1241
     69  CA        28.5450    5.7520   42.2590 C.3   386  PHE386      0.1605
     70  C         28.2580    4.2600   42.1460 C.2   386  PHE386      0.2264
     71  O         29.1200    3.4240   42.4670 O.2   386  PHE386     -0.2867
     72  CB        28.0420    6.3090   43.5880 C.3   386  PHE386      0.0534
     73  CG        28.7180    7.5830   43.9980 C.ar  386  PHE386     -0.0203
     74  CD1       29.9550    7.5580   44.6180 C.ar  386  PHE386     -0.0042
     75  CD2       28.1220    8.8100   43.7490 C.ar  386  PHE386     -0.0042
     76  CE1       30.5830    8.7390   44.9950 C.ar  386  PHE386     -0.0003
     77  CE2       28.7390    9.9910   44.1250 C.ar  386  PHE386     -0.0003
     78  CZ        29.9710    9.9560   44.7470 C.ar  386  PHE386     -0.0000
     79  N         20.6950   21.1370   52.3390 N.3   522  ILE522     -0.1245
     80  CA        21.2350   20.6290   51.0820 C.3   522  ILE522      0.1561
     81  C         22.6220   20.0360   51.2990 C.2   522  ILE522      0.2260
     82  O         22.9390   18.9550   50.7830 O.2   522  ILE522     -0.2867
     83  CB        21.2460   21.7500   50.0220 C.3   522  ILE522      0.0252
     84  CG1       19.8150   22.1030   49.6160 C.3   522  ILE522      0.0019
     85  CG2       22.0750   21.3510   48.8170 C.3   522  ILE522      0.0019
     86  CD1       19.7190   23.2430   48.6200 C.3   522  ILE522      0.0001
     87  N         23.5900   16.1280   50.4010 N.3   526  LEU526     -0.1245
     88  CA        24.7520   15.7550   49.6030 C.3   526  LEU526      0.1561
     89  C         25.7020   14.8710   50.4030 C.2   526  LEU526      0.2260
     90  O         26.2250   13.8750   49.8850 O.2   526  LEU526     -0.2867
     91  CB        25.4720   17.0100   49.0990 C.3   526  LEU526      0.0270
     92  CG        24.7040   17.9570   48.1640 C.3   526  LEU526      0.0019
     93  CD1       25.6120   19.0630   47.6440 C.3   526  LEU526      0.0001
     94  CD2       24.0750   17.2020   47.0080 C.3   526  LEU526      0.0001
     95  N         23.8120   11.2360   51.2100 N.3   529  THR529     -0.1203
     96  CA        23.7670   10.4570   49.9790 C.3   529  THR529      0.1994
     97  C         25.1700   10.0140   49.5840 C.2   529  THR529      0.2618
     98  O         25.4040    8.8370   49.2750 O.2   529  THR529     -0.2717
     99  CB        23.1130   11.2870   48.8690 C.3   529  THR529      0.1784
    100  OG1       21.9340   11.9190   49.3850 O.3   529  THR529     -0.2211
    101  CG2       22.7170   10.4060   47.6880 C.3   529  THR529      0.0376
    102  N         26.1260   10.9460   49.6290 N.am  530  THR530     -0.1952
    103  CA        27.5080   10.6110   49.3060 C.3   530  THR530      0.1897
    104  C         28.0670    9.5870   50.2850 C.2   530  THR530      0.2313
    105  O         28.8330    8.7020   49.8910 O.2   530  THR530     -0.2863
    106  CB        28.3680   11.8820   49.2890 C.3   530  THR530      0.1794
    107  OG1       27.9070   12.7520   48.2510 O.3   530  THR530     -0.2208
    108  CG2       29.8370   11.5630   49.0430 C.3   530  THR530      0.0378
    109  N         26.6100    6.1010   49.3060 N.3   533  LEU533     -0.1231
    110  CA        27.1850    5.5800   48.0690 C.3   533  LEU533      0.1693
    111  C         28.6660    5.2390   48.2270 C.2   533  LEU533      0.2591
    112  O         29.1330    4.2200   47.7040 O.2   533  LEU533     -0.2718
    113  CB        26.9750    6.5860   46.9380 C.3   533  LEU533      0.0284
    114  CG        25.5120    6.7140   46.5070 C.3   533  LEU533      0.0019
    115  CD1       25.2770    7.9190   45.6040 C.3   533  LEU533      0.0001
    116  CD2       25.0740    5.4380   45.8190 C.3   533  LEU533      0.0001
    117  N         29.4200    6.0740   48.9380 N.am  534  VAL534     -0.1980
    118  CA        30.8520    5.8400   49.0880 C.3   534  VAL534      0.1595
    119  C         31.0990    4.6160   49.9560 C.2   534  VAL534      0.2287
    120  O         31.9490    3.7740   49.6400 O.2   534  VAL534     -0.2864
    121  CB        31.5380    7.0980   49.6570 C.3   534  VAL534      0.0276
    122  CG1       32.9280    6.7750   50.2000 C.3   534  VAL534      0.0022
    123  CG2       31.6240    8.1780   48.5870 C.3   534  VAL534      0.0022
    124  N         18.6900   10.6660   47.8480 N.3   582  MET582     -0.1245
    125  CA        18.7340   11.5770   46.7130 C.3   582  MET582      0.1570
    126  C         17.3750   12.2260   46.4840 C.2   582  MET582      0.2261
    127  O         17.2910   13.4390   46.2700 O.2   582  MET582     -0.2867
    128  CB        19.1960   10.8530   45.4500 C.3   582  MET582      0.0387
    129  CG        19.2680   11.7940   44.2710 C.3   582  MET582      0.0595
    130  SD        18.2340   11.3780   42.8640 S.3   582  MET582     -0.1393
    131  CE        16.7900   10.6360   43.5730 C.3   582  MET582      0.0692
    132  N         17.0600   14.8950   49.0130 N.3   585  THR585     -0.1203
    133  CA        17.9080   16.0520   48.7500 C.3   585  THR585      0.1994
    134  C         17.3430   16.9130   47.6290 C.2   585  THR585      0.2617
    135  O         17.1970   18.1290   47.7830 O.2   585  THR585     -0.2717
    136  CB        19.3220   15.5870   48.4030 C.3   585  THR585      0.1784
    137  OG1       19.8460   14.8150   49.4900 O.3   585  THR585     -0.2211
    138  CG2       20.2310   16.7790   48.1360 C.3   585  THR585      0.0376
    139  N         17.0290   16.2980   46.4870 N.am  586  ILE586     -0.1979
    140  CA        16.4540   17.0400   45.3690 C.3   586  ILE586      0.1595
    141  C         15.0700   17.5640   45.7300 C.2   586  ILE586      0.2287
    142  O         14.6180   18.5800   45.1860 O.2   586  ILE586     -0.2864
    143  CB        16.4180   16.1580   44.1050 C.3   586  ILE586      0.0276
    144  CG1       17.7960   15.5580   43.8360 C.3   586  ILE586      0.0022
    145  CG2       15.9470   16.9540   42.8960 C.3   586  ILE586      0.0022
    146  CD1       18.9120   16.5590   43.8090 C.3   586  ILE586      0.0001
    147  N         16.0270   20.7550   47.4750 N.3   589  VAL589     -0.1245
    148  CA        16.5150   21.6990   46.4740 C.3   589  VAL589      0.1561
    149  C         15.3480   22.3130   45.7140 C.2   589  VAL589      0.2260
    150  O         15.2420   23.5400   45.5690 O.2   589  VAL589     -0.2867
    151  CB        17.4890   20.9900   45.5180 C.3   589  VAL589      0.0252
    152  CG1       17.7890   21.8690   44.3270 C.3   589  VAL589      0.0019
    153  CG2       18.7690   20.5870   46.2520 C.3   589  VAL589      0.0019
@<TRIPOS>BOND
     1    25    23    1
     2    20    21    2
     3    20    19    1
     4     1     2    1
     5    23    22    1
     6    23    24    1
     7    22    19    1
     8    19    18    1
     9     2     3    1
    10     7     8    2
    11     7     6    1
    12    18    14   am
    13    12    13    1
    14    28    29    2
    15    28    27    1
    16     3     4    2
    17     3     5   am
    18    26    27    1
    19    44    45    1
    20     5     6    1
    21    14    15    2
    22    14    13    1
    23     6     9    1
    24    45    48    1
    25    45    46    1
    26    35    36    1
    27    13    16    1
    28     9    10    1
    29     9    11    1
    30    27    30    1
    31    30    31    1
    32    46    47    2
    33    46    49   am
    34    36    37    1
    35    36    39    1
    36    16    17    1
    37    53    54    1
    38    37    38    2
    39    42    41    2
    40    49    50    1
    41    31    32    1
    42    40    39    1
    43    40    41    1
    44    59    58    1
    45    59    60    1
    46    54    55    1
    47    54    57    1
    48    41    43   am
    49    51    50    1
    50    51    52    2
    51    58    57    1
    52    33    32    2
    53    55    56    2
    54    55    61   am
    55    32    34   am
    56    68    69    1
    57    63    64    2
    58    63    62    1
    59    66    65    1
    60    61    62    1
    61    62    65    1
    62    70    69    1
    63    70    71    2
    64    69    72    1
    65    65    67    1
    66   130   131    1
    67   130   129    1
    68   145   143    1
    69    72    73    1
    70    75    73   ar
    71    75    77   ar
    72   146   144    1
    73   144   143    1
    74    73    74   ar
    75   143   140    1
    76    77    78   ar
    77   129   128    1
    78   152   151    1
    79    74    76   ar
    80    78    76   ar
    81   142   141    2
    82   140   141    1
    83   140   139    1
    84   128   125    1
    85   151   153    1
    86   151   148    1
    87   150   149    2
    88   115   114    1
    89   149   148    1
    90   116   114    1
    91   127   126    2
    92   148   147    1
    93   126   125    1
    94   139   134   am
    95   114   113    1
    96   125   124    1
    97   113   110    1
    98    94    92    1
    99   134   135    2
   100   134   133    1
   101    93    92    1
   102   101    99    1
   103   112   111    2
   104   110   111    1
   105   110   109    1
   106   138   136    1
   107    92    91    1
   108   111   117   am
   109   107   106    1
   110   136   133    1
   111   136   137    1
   112   123   121    1
   113    86    84    1
   114   133   132    1
   115    85    83    1
   116    99   100    1
   117    99    96    1
   118   117   118    1
   119   108   106    1
   120   118   121    1
   121   118   119    1
   122    91    88    1
   123    98    97    2
   124   106   103    1
   125   103   102    1
   126   103   104    1
   127    97   102   am
   128    97    96    1
   129    88    87    1
   130    88    89    1
   131    84    83    1
   132   120   119    2
   133   121   122    1
   134    90    89    2
   135   105   104    2
   136    96    95    1
   137    83    80    1
   138    82    81    2
   139    80    81    1
   140    80    79    1
