@<TRIPOS>MOLECULE
tmp/5l8rE45.pdb
 148 143 0 0 0
SMALL
GASTEIGER

@<TRIPOS>ATOM
      1  N         -8.3300  -14.6700   51.6740 N.3   432  ASN432     -0.1240
      2  CA        -7.6130  -13.9220   50.6450 C.3   432  ASN432      0.1653
      3  C         -8.5670  -13.4260   49.5650 C.2   432  ASN432      0.2266
      4  O         -8.6180  -12.2240   49.2620 O.2   432  ASN432     -0.2867
      5  CB        -6.5210  -14.8120   50.0420 C.3   432  ASN432      0.1155
      6  CG        -5.5010  -14.0310   49.2380 C.2   432  ASN432      0.2627
      7  OD1       -4.5220  -13.5230   49.7840 O.2   432  ASN432     -0.2716
      8  ND2       -5.7190  -13.9420   47.9310 N.am  432  ASN432     -0.0877
      9  N        -10.8730  -10.6870   50.6560 N.3   435  CYS435     -0.1221
     10  CA       -10.1590   -9.4250   50.7830 C.3   435  CYS435      0.1808
     11  C         -9.9840   -8.7490   49.4320 C.2   435  CYS435      0.2601
     12  O        -10.1340   -7.5260   49.3220 O.2   435  CYS435     -0.2717
     13  CB        -8.8070   -9.6490   51.4520 C.3   435  CYS435      0.0970
     14  SG        -8.9250   -9.9470   53.2100 S.3   435  CYS435     -0.0800
     15  N         -9.6670   -9.5170   48.3870 N.am  436  ILE436     -0.1979
     16  CA        -9.5100   -8.8940   47.0740 C.3   436  ILE436      0.1595
     17  C        -10.8450   -8.3350   46.5830 C.2   436  ILE436      0.2287
     18  O        -10.9360   -7.1770   46.1430 O.2   436  ILE436     -0.2864
     19  CB        -8.9080   -9.8900   46.0710 C.3   436  ILE436      0.0276
     20  CG1       -7.5130  -10.3130   46.5230 C.3   436  ILE436      0.0022
     21  CG2       -8.8490   -9.2680   44.6910 C.3   436  ILE436      0.0022
     22  CD1       -6.9080  -11.4170   45.6780 C.3   436  ILE436      0.0001
     23  N        -11.6110   -5.1610   48.4830 N.3   439  GLY439     -0.1210
     24  CA       -10.7750   -4.0860   47.9880 C.3   439  GLY439      0.1956
     25  C        -11.3550   -3.4590   46.7380 C.2   439  GLY439      0.2611
     26  O        -11.6170   -2.2500   46.7070 O.2   439  GLY439     -0.2717
     27  N        -11.5900   -4.2800   45.7100 N.am  440  PHE440     -0.1976
     28  CA       -12.1470   -3.7480   44.4700 C.3   440  PHE440      0.1639
     29  C        -13.4900   -3.0720   44.7090 C.2   440  PHE440      0.2290
     30  O        -13.6810   -1.9070   44.3450 O.2   440  PHE440     -0.2864
     31  CB       -12.2820   -4.8570   43.4280 C.3   440  PHE440      0.0560
     32  CG       -10.9740   -5.2900   42.8400 C.ar  440  PHE440     -0.0200
     33  CD1       -9.9310   -4.3930   42.7080 C.ar  440  PHE440     -0.0042
     34  CD2      -10.7820   -6.5970   42.4300 C.ar  440  PHE440     -0.0042
     35  CE1       -8.7260   -4.7880   42.1680 C.ar  440  PHE440     -0.0003
     36  CE2       -9.5750   -7.0030   41.8940 C.ar  440  PHE440     -0.0003
     37  CZ        -8.5470   -6.1000   41.7620 C.ar  440  PHE440     -0.0000
     38  N        -12.9750    0.1950   47.6090 N.3   443  PHE443     -0.1227
     39  CA       -12.0580    1.2760   47.2560 C.3   443  PHE443      0.1736
     40  C        -12.0810    1.5750   45.7580 C.2   443  PHE443      0.2596
     41  O        -12.0160    2.7460   45.3490 O.2   443  PHE443     -0.2718
     42  CB       -10.6550    0.9040   47.7290 C.3   443  PHE443      0.0547
     43  CG        -9.5750    1.7940   47.2100 C.ar  443  PHE443     -0.0202
     44  CD1       -9.3190    3.0160   47.8070 C.ar  443  PHE443     -0.0042
     45  CD2       -8.7870    1.3920   46.1470 C.ar  443  PHE443     -0.0042
     46  CE1       -8.3060    3.8310   47.3380 C.ar  443  PHE443     -0.0003
     47  CE2       -7.7740    2.1990   45.6760 C.ar  443  PHE443     -0.0003
     48  CZ        -7.5310    3.4200   46.2710 C.ar  443  PHE443     -0.0000
     49  N        -12.1820    0.5320   44.9280 N.am  444  GLY444     -0.1957
     50  CA       -12.2730    0.7410   43.4950 C.3   444  GLY444      0.1869
     51  C        -13.4600    1.5940   43.0970 C.2   444  GLY444      0.2309
     52  O        -13.4400    2.2410   42.0470 O.2   444  GLY444     -0.2863
     53  N        -12.1600    5.0660   43.4080 N.3   447  ILE447     -0.1245
     54  CA       -11.3570    5.4160   42.2370 C.3   447  ILE447      0.1561
     55  C        -12.2580    5.6850   41.0390 C.2   447  ILE447      0.2260
     56  O        -12.0110    6.6060   40.2470 O.2   447  ILE447     -0.2867
     57  CB       -10.3240    4.3170   41.9420 C.3   447  ILE447      0.0252
     58  CG1       -9.4140    4.1210   43.1540 C.3   447  ILE447      0.0019
     59  CG2       -9.4990    4.6850   40.7250 C.3   447  ILE447      0.0019
     60  CD1       -8.7350    5.3830   43.6090 C.3   447  ILE447      0.0001
     61  N        -13.5410   -4.0950   54.4200 N.3   532  PHE532     -0.1241
     62  CA       -12.3040   -4.4420   53.7280 C.3   532  PHE532      0.1605
     63  C        -11.0970   -4.4460   54.6700 C.2   532  PHE532      0.2264
     64  O        -10.4030   -5.4630   54.8180 O.2   532  PHE532     -0.2867
     65  CB       -12.0920   -3.4620   52.5730 C.3   532  PHE532      0.0534
     66  CG       -10.7270   -3.5220   51.9760 C.ar  532  PHE532     -0.0203
     67  CD1      -10.2650   -4.6910   51.3990 C.ar  532  PHE532     -0.0042
     68  CD2       -9.9030   -2.4090   51.9840 C.ar  532  PHE532     -0.0042
     69  CE1       -9.0040   -4.7550   50.8490 C.ar  532  PHE532     -0.0003
     70  CE2       -8.6390   -2.4640   51.4310 C.ar  532  PHE532     -0.0003
     71  CZ        -8.1920   -3.6410   50.8640 C.ar  532  PHE532     -0.0000
     72  N         -8.6920   -7.6180   55.9450 N.3   536  VAL536     -0.1245
     73  CA        -7.2790   -7.7960   55.6260 C.3   536  VAL536      0.1561
     74  C         -6.4530   -7.9420   56.9020 C.2   536  VAL536      0.2260
     75  O         -5.5100   -8.7490   56.9600 O.2   536  VAL536     -0.2867
     76  CB        -6.7780   -6.6440   54.7390 C.3   536  VAL536      0.0252
     77  CG1       -5.2930   -6.8170   54.4330 C.3   536  VAL536      0.0019
     78  CG2       -7.5920   -6.5890   53.4530 C.3   536  VAL536      0.0019
     79  N         -6.9330  -11.3730   57.9630 N.3   539  LEU539     -0.1231
     80  CA        -6.1630  -12.2530   57.0910 C.3   539  LEU539      0.1693
     81  C         -4.7210  -12.3710   57.5630 C.2   539  LEU539      0.2591
     82  O         -4.2020  -13.4780   57.7390 O.2   539  LEU539     -0.2718
     83  CB        -6.2100  -11.7470   55.6520 C.3   539  LEU539      0.0284
     84  CG        -5.2870  -12.5190   54.7070 C.3   539  LEU539      0.0019
     85  CD1       -5.8730  -13.8770   54.3460 C.3   539  LEU539      0.0001
     86  CD2       -5.0100  -11.7070   53.4680 C.3   539  LEU539      0.0001
     87  N         -4.0580  -11.2360   57.7790 N.am  540  ILE540     -0.1980
     88  CA        -2.6470  -11.2740   58.1570 C.3   540  ILE540      0.1595
     89  C         -2.4690  -12.0070   59.4840 C.2   540  ILE540      0.2287
     90  O         -1.5860  -12.8640   59.6320 O.2   540  ILE540     -0.2864
     91  CB        -2.0800   -9.8450   58.2110 C.3   540  ILE540      0.0276
     92  CG1       -2.2510   -9.1760   56.8470 C.3   540  ILE540      0.0022
     93  CG2       -0.6180   -9.8470   58.6260 C.3   540  ILE540      0.0022
     94  CD1       -2.1740   -7.6820   56.8950 C.3   540  ILE540      0.0001
     95  N         -3.6380  -15.8510   59.3410 N.3   543  LYS543     -0.1245
     96  CA        -2.5990  -16.5460   58.5930 C.3   543  LYS543      0.1561
     97  C         -1.3540  -16.7220   59.4470 C.2   543  LYS543      0.2260
     98  O         -0.7230  -17.7850   59.4270 O.2   543  LYS543     -0.2867
     99  CB        -2.2780  -15.7800   57.3130 C.3   543  LYS543      0.0271
    100  CG        -1.0550  -16.2700   56.5610 C.3   543  LYS543      0.0035
    101  CD        -0.8370  -15.4350   55.3080 C.3   543  LYS543      0.0206
    102  CE         0.3950  -15.8630   54.5290 C.3   543  LYS543      0.1093
    103  NZ         1.6720  -15.5430   55.2270 N.3   543  LYS543     -0.1314
    104  N          3.2180   -7.1280   60.6080 N.3   585  LEU585     -0.1245
    105  CA         2.4760   -6.6930   59.4280 C.3   585  LEU585      0.1561
    106  C          1.0350   -6.3220   59.7620 C.2   585  LEU585      0.2260
    107  O          0.4820   -5.3960   59.1620 O.2   585  LEU585     -0.2867
    108  CB         2.5090   -7.7750   58.3490 C.3   585  LEU585      0.0270
    109  CG         3.8380   -7.9080   57.6060 C.3   585  LEU585      0.0019
    110  CD1        3.7320   -8.9830   56.5440 C.3   585  LEU585      0.0001
    111  CD2        4.2940   -6.5730   56.9980 C.3   585  LEU585      0.0001
    112  N          0.3170   -2.5440   61.0940 N.3   588  PHE588     -0.1227
    113  CA         0.1100   -1.5150   60.0810 C.3   588  PHE588      0.1736
    114  C         -1.3370   -1.4920   59.6040 C.2   588  PHE588      0.2595
    115  O         -1.9120   -0.4200   59.3880 O.2   588  PHE588     -0.2718
    116  CB         1.0420   -1.7430   58.8950 C.3   588  PHE588      0.0547
    117  CG         2.4930   -1.5530   59.2100 C.ar  588  PHE588     -0.0202
    118  CD1        3.0640   -0.2890   59.1680 C.ar  588  PHE588     -0.0042
    119  CD2        3.2920   -2.6390   59.5280 C.ar  588  PHE588     -0.0042
    120  CE1        4.4070   -0.1140   59.4500 C.ar  588  PHE588     -0.0003
    121  CE2        4.6350   -2.4730   59.8200 C.ar  588  PHE588     -0.0003
    122  CZ         5.1950   -1.2100   59.7800 C.ar  588  PHE588     -0.0000
    123  N         -1.9410   -2.6640   59.4250 N.am  589  TRP589     -0.1976
    124  CA        -3.3030   -2.6980   58.9100 C.3   589  TRP589      0.1640
    125  C         -4.3260   -2.3390   59.9740 C.2   589  TRP589      0.2290
    126  O         -5.3790   -1.7840   59.6440 O.2   589  TRP589     -0.2864
    127  CB        -3.6050   -4.0680   58.3020 C.3   589  TRP589      0.0576
    128  CG        -3.2530   -4.1020   56.8590 C.ar  589  TRP589      0.0006
    129  CD1       -2.0410   -4.4060   56.3140 C.ar  589  TRP589      0.0946
    130  CD2       -4.1150   -3.7750   55.7680 C.ar  589  TRP589      0.0152
    131  NE1       -2.1030   -4.3100   54.9440 N.ar  589  TRP589     -0.2442
    132  CE2       -3.3660   -3.9210   54.5850 C.ar  589  TRP589      0.0810
    133  CE3       -5.4520   -3.3840   55.6750 C.ar  589  TRP589      0.0012
    134  CZ2       -3.9070   -3.6860   53.3300 C.ar  589  TRP589      0.0191
    135  CZ3       -5.9880   -3.1490   54.4280 C.ar  589  TRP589      0.0001
    136  CH2       -5.2180   -3.3020   53.2720 C.ar  589  TRP589      0.0015
    137  N          6.4730    4.1560   63.3840 N.3   723  TYR723     -0.1241
    138  CA         5.4130    4.3810   62.4100 C.3   723  TYR723      0.1605
    139  C          4.0830    4.6230   63.1160 C.2   723  TYR723      0.2264
    140  O          3.3960    5.6170   62.8510 O.2   723  TYR723     -0.2867
    141  CB         5.3310    3.1840   61.4590 C.3   723  TYR723      0.0534
    142  CG         4.5540    3.4210   60.1830 C.ar  723  TYR723     -0.0201
    143  CD1        5.2000    3.4890   58.9550 C.ar  723  TYR723     -0.0009
    144  CD2        3.1680    3.5540   60.2050 C.ar  723  TYR723     -0.0009
    145  CE1        4.4860    3.6910   57.7860 C.ar  723  TYR723      0.0417
    146  CE2        2.4500    3.7600   59.0470 C.ar  723  TYR723      0.0417
    147  CZ         3.1110    3.8290   57.8440 C.ar  723  TYR723      0.1957
    148  OH         2.3840    4.0300   56.7010 O.3   723  TYR723     -0.2866
@<TRIPOS>BOND
     1    56    55    2
     2    59    57    1
     3    55    54    1
     4    37    36   ar
     5    37    35   ar
     6    36    34   ar
     7    57    54    1
     8    57    58    1
     9    52    51    2
    10    35    33   ar
    11    54    53    1
    12    34    32   ar
    13    33    32   ar
    14    32    31    1
    15    51    50    1
    16    58    60    1
    17    31    28    1
    18    50    49    1
    19    30    29    2
    20    28    29    1
    21    28    27    1
    22    21    19    1
    23    49    40   am
    24    41    40    2
    25    47    45   ar
    26    47    48   ar
    27    22    20    1
    28    27    25   am
    29    40    39    1
    30    19    20    1
    31    19    16    1
    32    18    17    2
    33    45    43   ar
    34    48    46   ar
    35    17    16    1
    36    26    25    2
    37    25    24    1
    38    16    15    1
    39    43    42    1
    40    43    44   ar
    41    39    38    1
    42    39    42    1
    43    46    44   ar
    44     8     6   am
    45    24    23    1
    46    15    11   am
    47     6     7    2
    48     6     5    1
    49     4     3    2
    50    12    11    2
    51    11    10    1
    52     3     2    1
    53     5     2    1
    54     2     1    1
    55     9    10    1
    56    10    13    1
    57    69    71   ar
    58    69    67   ar
    59    71    70   ar
    60    67    66   ar
    61    70    68   ar
    62    13    14    1
    63    66    68   ar
    64    66    65    1
    65    65    62    1
    66   136   134   ar
    67   136   135   ar
    68   134   132   ar
    69    78    76    1
    70    86    84    1
    71    62    61    1
    72    62    63    1
    73    85    84    1
    74   135   133   ar
    75    77    76    1
    76   102   103    1
    77   102   101    1
    78   132   131   ar
    79   132   130   ar
    80    63    64    2
    81    84    83    1
    82    76    73    1
    83   131   129   ar
    84   101   100    1
    85    73    72    1
    86    73    74    1
    87    83    80    1
    88   133   130   ar
    89   130   128   ar
    90   129   128   ar
    91   110   109    1
    92   100    99    1
    93   148   147    1
    94    92    94    1
    95    92    91    1
    96   128   127    1
    97    74    75    2
    98   111   109    1
    99    80    81    1
   100    80    79    1
   101    99    96    1
   102    81    82    2
   103    81    87   am
   104   109   108    1
   105    87    88    1
   106   145   147   ar
   107   145   143   ar
   108   147   146   ar
   109    88    91    1
   110    88    89    1
   111    91    93    1
   112   127   124    1
   113   108   105    1
   114    96    95    1
   115    96    97    1
   116   116   117    1
   117   116   113    1
   118   124   123    1
   119   124   125    1
   120   143   142   ar
   121   146   144   ar
   122   107   106    2
   123   118   117   ar
   124   118   120   ar
   125   117   119   ar
   126   115   114    2
   127   123   114   am
   128    98    97    2
   129   105   106    1
   130   105   104    1
   131   120   122   ar
   132    89    90    2
   133   119   121   ar
   134   114   113    1
   135   126   125    2
   136   122   121   ar
   137   113   112    1
   138   142   144   ar
   139   142   141    1
   140   141   138    1
   141   138   139    1
   142   138   137    1
   143   140   139    2
