@<TRIPOS>MOLECULE
tmp/5l8rC04.pdb
 114 115 0 0 0
SMALL
GASTEIGER

@<TRIPOS>ATOM
      1  N        -24.6840    3.5120  122.7810 N.3    82  TRP82      -0.1241
      2  CA       -23.2860    3.2590  122.4470 C.3    82  TRP82       0.1605
      3  C        -22.8440    4.0790  121.2410 C.2    82  TRP82       0.2264
      4  O        -21.6980    4.5380  121.1800 O.2    82  TRP82      -0.2867
      5  CB       -23.0750    1.7710  122.1870 C.3    82  TRP82       0.0550
      6  CG       -23.9670    1.2370  121.1180 C.ar   82  TRP82       0.0003
      7  CD1      -25.2290    0.7410  121.2740 C.ar   82  TRP82       0.0946
      8  CD2      -23.6740    1.1570  119.7190 C.ar   82  TRP82       0.0152
      9  NE1      -25.7380    0.3530  120.0580 N.ar   82  TRP82      -0.2442
     10  CE2      -24.8010    0.5980  119.0880 C.ar   82  TRP82       0.0810
     11  CE3      -22.5650    1.5010  118.9400 C.ar   82  TRP82       0.0012
     12  CZ2      -24.8520    0.3760  117.7150 C.ar   82  TRP82       0.0191
     13  CZ3      -22.6180    1.2810  117.5780 C.ar   82  TRP82       0.0001
     14  CH2      -23.7530    0.7230  116.9790 C.ar   82  TRP82       0.0015
     15  N        -20.2700    9.5940  121.1900 N.3    86  GLY86      -0.1210
     16  CA       -19.1460   10.2870  120.6040 C.3    86  GLY86       0.1956
     17  C        -18.3080    9.3850  119.7370 C.2    86  GLY86       0.2612
     18  O        -17.3930    9.8680  119.0580 O.2    86  GLY86      -0.2717
     19  N        -18.5910    8.0800  119.7570 N.am   87  VAL87      -0.1965
     20  CA       -17.9560    7.1470  118.8320 C.3    87  VAL87       0.1727
     21  C        -18.2040    7.5860  117.3970 C.2    87  VAL87       0.2616
     22  O        -17.2710    7.7480  116.6030 O.2    87  VAL87      -0.2715
     23  CB       -18.4810    5.7210  119.0790 C.3    87  VAL87       0.0290
     24  CG1      -17.5310    4.6850  118.4970 C.3    87  VAL87       0.0023
     25  CG2      -18.7110    5.5000  120.5620 C.3    87  VAL87       0.0023
     26  N        -19.4700    7.7890  117.0500 N.am   88  ILE88      -0.1964
     27  CA       -19.8640    8.2590  115.7260 C.3    88  ILE88       0.1712
     28  C        -20.3890    9.6820  115.8770 C.2    88  ILE88       0.2458
     29  O        -21.5120    9.8740  116.3660 O.2    88  ILE88      -0.2730
     30  CB       -20.9130    7.3290  115.0990 C.3    88  ILE88       0.0289
     31  CG1      -20.4150    5.8820  115.1300 C.3    88  ILE88       0.0022
     32  CG2      -21.2250    7.7610  113.6790 C.3    88  ILE88       0.0023
     33  CD1      -21.4820    4.8610  114.8070 C.3    88  ILE88       0.0001
     34  N        -19.6140   10.6960  115.4980 N.am   89  PRO89      -0.2716
     35  CA       -20.0360   12.0950  115.7060 C.3    89  PRO89       0.1521
     36  C        -21.3910   12.4040  115.0850 C.2    89  PRO89       0.2440
     37  O        -22.2230   13.0500  115.7400 O.2    89  PRO89      -0.2731
     38  CB       -18.9050   12.9040  115.0500 C.3    89  PRO89       0.0310
     39  CG       -17.7040   12.0240  115.1960 C.3    89  PRO89       0.0237
     40  CD       -18.2050   10.6020  115.0750 C.3    89  PRO89       0.0939
     41  N        -21.6760   11.9820  113.8410 N.am   90  PRO90      -0.2727
     42  CA       -23.0160   12.2610  113.2920 C.3    90  PRO90       0.1402
     43  C        -24.1430   11.5520  114.0260 C.2    90  PRO90       0.2269
     44  O        -25.2880   12.0160  113.9550 O.2    90  PRO90      -0.2865
     45  CB       -22.9130   11.7890  111.8340 C.3    90  PRO90       0.0296
     46  CG       -21.7860   10.8450  111.8170 C.3    90  PRO90       0.0237
     47  CD       -20.8120   11.3670  112.8140 C.3    90  PRO90       0.0939
     48  N        -11.4280   13.7480  122.0350 N.3   100  ASN100     -0.1225
     49  CA       -11.8280   12.4880  121.4080 C.3   100  ASN100      0.1785
     50  C        -10.8080   12.0020  120.3790 C.2   100  ASN100      0.2597
     51  O        -10.7420   10.8010  120.0960 O.2   100  ASN100     -0.2718
     52  CB       -13.2200   12.6060  120.7730 C.3   100  ASN100      0.1169
     53  CG       -14.2780   13.0550  121.7670 C.2   100  ASN100      0.2627
     54  OD1      -14.0810   12.9750  122.9810 O.2   100  ASN100     -0.2716
     55  ND2      -15.4090   13.5260  121.2560 N.am  100  ASN100     -0.0877
     56  N        -10.0110   12.9100  119.8130 N.am  101  TYR101     -0.1976
     57  CA        -8.8660   12.4970  119.0060 C.3   101  TYR101      0.1639
     58  C         -7.6210   12.2950  119.8590 C.2   101  TYR101      0.2290
     59  O         -6.8770   11.3290  119.6520 O.2   101  TYR101     -0.2864
     60  CB        -8.5800   13.5200  117.9050 C.3   101  TYR101      0.0560
     61  CG        -9.5950   13.5060  116.7910 C.ar  101  TYR101     -0.0198
     62  CD1       -9.5040   12.5860  115.7570 C.ar  101  TYR101     -0.0009
     63  CD2      -10.6500   14.4080  116.7740 C.ar  101  TYR101     -0.0009
     64  CE1      -10.4330   12.5660  114.7360 C.ar  101  TYR101      0.0417
     65  CE2      -11.5840   14.3960  115.7570 C.ar  101  TYR101      0.0417
     66  CZ       -11.4690   13.4740  114.7390 C.ar  101  TYR101      0.1957
     67  OH       -12.3980   13.4550  113.7240 O.3   101  TYR101     -0.2866
     68  N         -7.9420   11.4750  122.8960 N.3   103  LEU103     -0.1231
     69  CA        -8.3550   10.2090  123.4920 C.3   103  LEU103      0.1693
     70  C         -7.9750    9.0360  122.6020 C.2   103  LEU103      0.2592
     71  O         -7.5420    7.9880  123.0950 O.2   103  LEU103     -0.2718
     72  CB        -9.8620   10.2070  123.7400 C.3   103  LEU103      0.0284
     73  CG       -10.3880   11.1120  124.8480 C.3   103  LEU103      0.0019
     74  CD1      -11.9050   11.0800  124.8840 C.3   103  LEU103      0.0001
     75  CD2       -9.8060   10.6990  126.1900 C.3   103  LEU103      0.0001
     76  N         -8.1340    9.1930  121.2850 N.am  104  PHE104     -0.1976
     77  CA        -7.8230    8.1030  120.3650 C.3   104  PHE104      0.1639
     78  C         -6.3240    7.8470  120.2910 C.2   104  PHE104      0.2290
     79  O         -5.8870    6.6920  120.2810 O.2   104  PHE104     -0.2864
     80  CB        -8.3800    8.4090  118.9770 C.3   104  PHE104      0.0560
     81  CG        -8.0340    7.3740  117.9470 C.ar  104  PHE104     -0.0200
     82  CD1       -8.5930    6.1110  118.0060 C.ar  104  PHE104     -0.0042
     83  CD2       -7.1560    7.6640  116.9180 C.ar  104  PHE104     -0.0042
     84  CE1       -8.2850    5.1520  117.0650 C.ar  104  PHE104     -0.0003
     85  CE2       -6.8420    6.7090  115.9700 C.ar  104  PHE104     -0.0003
     86  CZ        -7.4080    5.4510  116.0450 C.ar  104  PHE104     -0.0000
     87  N         -5.4430    6.0620  123.5920 N.3   107  GLU107     -0.1231
     88  CA        -5.8520    4.6620  123.6090 C.3   107  GLU107      0.1699
     89  C         -5.0220    3.8240  122.6470 C.2   107  GLU107      0.2592
     90  O         -4.7360    2.6570  122.9340 O.2   107  GLU107     -0.2718
     91  CB        -7.3420    4.5340  123.2800 C.3   107  GLU107      0.0402
     92  CG        -7.6740    4.6860  121.8070 C.3   107  GLU107      0.1161
     93  CD        -9.1100    4.3550  121.4910 C.2   107  GLU107      0.3649
     94  OE1       -9.7900    3.7770  122.3550 O.co2 107  GLU107     -0.2457
     95  OE2       -9.5620    4.6750  120.3780 O.co2 107  GLU107     -0.2457
     96  N         -4.6160    4.3940  121.5100 N.am  108  MET108     -0.1979
     97  CA        -3.7550    3.6530  120.5990 C.3   108  MET108      0.1605
     98  C         -2.3470    3.4990  121.1510 C.2   108  MET108      0.2287
     99  O         -1.6300    2.5790  120.7410 O.2   108  MET108     -0.2864
    100  CB        -3.7130    4.3290  119.2270 C.3   108  MET108      0.0413
    101  CG        -5.0440    4.3100  118.4930 C.3   108  MET108      0.0598
    102  SD        -5.8260    2.6840  118.4800 S.3   108  MET108     -0.1393
    103  CE        -4.8360    1.8300  117.2640 C.3   108  MET108      0.0692
    104  N        -25.1970   -3.3570  116.1620 N.3   188  PHE188     -0.1241
    105  CA       -24.9310   -2.6220  114.9280 C.3   188  PHE188      0.1605
    106  C        -26.1740   -2.5420  114.0480 C.2   188  PHE188      0.2264
    107  O        -26.5820   -1.4530  113.6280 O.2   188  PHE188     -0.2867
    108  CB       -23.7800   -3.2730  114.1600 C.3   188  PHE188      0.0534
    109  CG       -22.4460   -3.1450  114.8370 C.ar  188  PHE188     -0.0203
    110  CD1      -22.2540   -2.2330  115.8620 C.ar  188  PHE188     -0.0042
    111  CD2      -21.3790   -3.9350  114.4400 C.ar  188  PHE188     -0.0042
    112  CE1      -21.0240   -2.1170  116.4840 C.ar  188  PHE188     -0.0003
    113  CE2      -20.1460   -3.8240  115.0550 C.ar  188  PHE188     -0.0003
    114  CZ       -19.9680   -2.9140  116.0790 C.ar  188  PHE188     -0.0000
@<TRIPOS>BOND
     1    46    45    1
     2    46    47    1
     3    45    42    1
     4    47    41    1
     5    42    41    1
     6    42    43    1
     7   107   106    2
     8    32    30    1
     9    67    66    1
    10    41    36   am
    11    44    43    2
    12   106   105    1
    13   108   109    1
    14   108   105    1
    15   111   109   ar
    16   111   113   ar
    17    64    66   ar
    18    64    62   ar
    19    66    65   ar
    20    33    31    1
    21   109   110   ar
    22   105   104    1
    23    38    39    1
    24    38    35    1
    25   113   114   ar
    26    40    39    1
    27    40    34    1
    28    36    35    1
    29    36    37    2
    30    30    31    1
    31    30    27    1
    32    34    35    1
    33    34    28   am
    34    27    28    1
    35    27    26    1
    36    62    61   ar
    37    65    63   ar
    38   110   112   ar
    39    28    29    2
    40    85    86   ar
    41    85    83   ar
    42    86    84   ar
    43   114   112   ar
    44    22    21    2
    45    63    61   ar
    46    61    60    1
    47    83    81   ar
    48    14    13   ar
    49    14    12   ar
    50    26    21   am
    51    84    82   ar
    52   103   102    1
    53    21    20    1
    54    13    11   ar
    55    12    10   ar
    56    60    57    1
    57    81    82   ar
    58    81    80    1
    59   102   101    1
    60   101   100    1
    61    24    23    1
    62    20    23    1
    63    20    19    1
    64    11     8   ar
    65    80    77    1
    66    57    56    1
    67    57    58    1
    68    18    17    2
    69    23    25    1
    70    10     8   ar
    71    10     9   ar
    72   100    97    1
    73    59    58    2
    74     8     6   ar
    75    17    19   am
    76    17    16    1
    77    56    50   am
    78     9     7   ar
    79    51    50    2
    80    79    78    2
    81    78    77    1
    82    77    76    1
    83    95    93   ar
    84    50    49    1
    85    97    98    1
    86    97    96    1
    87    16    15    1
    88    99    98    2
    89    52    49    1
    90    52    53    1
    91     6     7   ar
    92     6     5    1
    93     4     3    2
    94     3     2    1
    95    55    53   am
    96    76    70   am
    97    49    48    1
    98    93    92    1
    99    93    94   ar
   100    96    89   am
   101    53    54    2
   102    92    91    1
   103     5     2    1
   104     2     1    1
   105    70    71    2
   106    70    69    1
   107    89    90    2
   108    89    88    1
   109    68    69    1
   110    91    88    1
   111    69    72    1
   112    87    88    1
   113    72    73    1
   114    73    74    1
   115    73    75    1
