@<TRIPOS>MOLECULE
tmp/5l8rE01.pdb
 103 100 0 0 0
SMALL
GASTEIGER

@<TRIPOS>ATOM
      1  N        -12.4870  -26.9640   96.5110 N.3     3  VAL3       -0.1231
      2  CA       -11.9020  -25.6410   96.3150 C.3     3  VAL3        0.1692
      3  C        -11.5770  -25.0110   97.6630 C.2     3  VAL3        0.2592
      4  O        -12.3800  -25.0560   98.6040 O.2     3  VAL3       -0.2718
      5  CB       -12.8620  -24.7600   95.4980 C.3     3  VAL3        0.0266
      6  CG1      -12.2640  -23.3900   95.2630 C.3     3  VAL3        0.0020
      7  CG2      -13.2000  -25.4330   94.1760 C.3     3  VAL3        0.0020
      8  N        -10.3850  -24.4250   97.7630 N.am    4  LYS4       -0.1966
      9  CA        -9.8900  -23.9320   99.0410 C.3     4  LYS4        0.1728
     10  C         -8.7510  -22.9520   98.8010 C.2     4  LYS4        0.2616
     11  O         -8.1710  -22.8950   97.7130 O.2     4  LYS4       -0.2715
     12  CB        -9.4110  -25.0820   99.9320 C.3     4  LYS4        0.0311
     13  CG        -8.1640  -25.7630   99.4000 C.3     4  LYS4        0.0038
     14  CD        -7.7630  -26.9540  100.2470 C.3     4  LYS4        0.0206
     15  CE        -8.7240  -28.1110  100.0580 C.3     4  LYS4        0.1093
     16  NZ        -8.2880  -29.3170  100.8110 N.3     4  LYS4       -0.1314
     17  N         -8.4300  -22.1920   99.8460 N.am    5  ILE5       -0.1977
     18  CA        -7.3180  -21.2460   99.8110 C.3     5  ILE5        0.1596
     19  C         -6.0090  -22.0220   99.9170 C.2     5  ILE5        0.2287
     20  O         -5.7810  -22.7430  100.8930 O.2     5  ILE5       -0.2864
     21  CB        -7.4350  -20.2120  100.9390 C.3     5  ILE5        0.0276
     22  CG1       -8.6640  -19.3210  100.7380 C.3     5  ILE5        0.0022
     23  CG2       -6.1620  -19.3850  101.0300 C.3     5  ILE5        0.0022
     24  CD1       -9.0600  -18.5460  101.9750 C.3     5  ILE5        0.0001
     25  N         -4.7580  -23.3290   93.0660 N.3   180  TRP180     -0.1241
     26  CA        -5.5660  -22.1550   93.3810 C.3   180  TRP180      0.1605
     27  C         -5.8900  -21.3570   92.1220 C.2   180  TRP180      0.2264
     28  O         -7.0360  -20.9440   91.9100 O.2   180  TRP180     -0.2867
     29  CB        -4.8300  -21.2880   94.4050 C.3   180  TRP180      0.0550
     30  CG        -5.5860  -20.0820   94.8660 C.ar  180  TRP180      0.0003
     31  CD1       -6.4210  -20.0000   95.9430 C.ar  180  TRP180      0.0946
     32  CD2       -5.5620  -18.7740   94.2780 C.ar  180  TRP180      0.0152
     33  NE1       -6.9280  -18.7290   96.0530 N.ar  180  TRP180     -0.2442
     34  CE2       -6.4110  -17.9550   95.0460 C.ar  180  TRP180      0.0810
     35  CE3       -4.9090  -18.2190   93.1730 C.ar  180  TRP180      0.0012
     36  CZ2       -6.6270  -16.6110   94.7440 C.ar  180  TRP180      0.0191
     37  CZ3       -5.1210  -16.8860   92.8800 C.ar  180  TRP180      0.0001
     38  CH2       -5.9740  -16.0970   93.6630 C.ar  180  TRP180      0.0015
     39  N         -8.5100  -23.0410   89.6710 N.3   183  ASP183     -0.1239
     40  CA        -9.9090  -23.1420   90.0840 C.3   183  ASP183      0.1674
     41  C        -10.7070  -22.1200   89.2820 C.2   183  ASP183      0.2266
     42  O        -11.0140  -21.0120   89.7320 O.2   183  ASP183     -0.2867
     43  CB       -10.0630  -22.9480   91.5870 C.3   183  ASP183      0.1410
     44  CG        -9.8150  -24.2280   92.3610 C.2   183  ASP183      0.3668
     45  OD1       -9.7090  -25.2980   91.7230 O.co2 183  ASP183     -0.2456
     46  OD2       -9.7350  -24.1690   93.6020 O.co2 183  ASP183     -0.2456
     47  N        -14.4730  -21.3300   90.4580 N.3   186  SER186     -0.1217
     48  CA       -14.4620  -20.3740   91.5590 C.3   186  SER186      0.1889
     49  C        -14.1770  -18.9630   91.0570 C.2   186  SER186      0.2288
     50  O        -14.8390  -18.0000   91.4660 O.2   186  SER186     -0.2866
     51  CB       -13.4230  -20.8010   92.5980 C.3   186  SER186      0.2089
     52  OG       -13.6090  -20.1370   93.8340 O.3   186  SER186     -0.2183
     53  N        -16.7830  -15.8190   91.1370 N.3   190  HIS190     -0.1241
     54  CA       -16.5220  -14.6290   91.9410 C.3   190  HIS190      0.1621
     55  C        -16.3910  -13.3670   91.1010 C.2   190  HIS190      0.2264
     56  O        -16.6470  -12.2680   91.6050 O.2   190  HIS190     -0.2867
     57  CB       -15.2600  -14.8180   92.7780 C.3   190  HIS190      0.0745
     58  CG       -15.3810  -15.8960   93.8020 C.ar  190  HIS190      0.0817
     59  ND1      -15.1880  -17.2260   93.5020 N.ar  190  HIS190     -0.2268
     60  CD2      -15.6920  -15.8470   95.1170 C.ar  190  HIS190      0.1154
     61  CE1      -15.3610  -17.9500   94.5930 C.ar  190  HIS190      0.1986
     62  NE2      -15.6780  -17.1380   95.5830 N.ar  190  HIS190     -0.2212
     63  N        -19.3910  -11.6200   92.3360 N.3   194  GLY194     -0.1225
     64  CA       -18.7410  -10.7720   93.3210 C.3   194  GLY194      0.1811
     65  C        -18.2290   -9.4590   92.7680 C.2   194  GLY194      0.2280
     66  O        -18.5560   -8.3950   93.3000 O.2   194  GLY194     -0.2866
     67  N        -21.6020   -7.1190   92.5720 N.3   198  LEU198     -0.1245
     68  CA       -21.5660   -6.2420   93.7370 C.3   198  LEU198      0.1561
     69  C        -20.9950   -4.8750   93.3900 C.2   198  LEU198      0.2260
     70  O        -21.3170   -3.8850   94.0560 O.2   198  LEU198     -0.2867
     71  CB       -20.7650   -6.8890   94.8660 C.3   198  LEU198      0.0270
     72  CG       -21.3270   -8.2040   95.4130 C.3   198  LEU198      0.0019
     73  CD1      -20.5290   -8.6710   96.6180 C.3   198  LEU198      0.0001
     74  CD2      -22.7990   -8.0570   95.7670 C.3   198  LEU198      0.0001
     75  N        -18.6390  -25.6610   92.6050 N.3   304  THR304     -0.1203
     76  CA       -17.4020  -25.5130   93.3570 C.3   304  THR304      0.1994
     77  C        -17.2940  -26.6060   94.4110 C.2   304  THR304      0.2618
     78  O        -16.7060  -27.6610   94.1560 O.2   304  THR304     -0.2717
     79  CB       -17.3170  -24.1220   93.9970 C.3   304  THR304      0.1784
     80  OG1      -18.5640  -23.7970   94.6240 O.3   304  THR304     -0.2211
     81  CG2      -16.9920  -23.0680   92.9480 C.3   304  THR304      0.0376
     82  N        -17.8670  -26.3790   95.5910 N.am  305  ASN305     -0.1960
     83  CA       -17.7190  -27.3120   96.6970 C.3   305  ASN305      0.1819
     84  C        -19.0230  -27.9480   97.1520 C.2   305  ASN305      0.2621
     85  O        -18.9910  -28.7930   98.0530 O.2   305  ASN305     -0.2715
     86  CB       -17.0620  -26.6170   97.9000 C.3   305  ASN305      0.1195
     87  CG       -15.6100  -26.2570   97.6460 C.2   305  ASN305      0.2630
     88  OD1      -14.9890  -26.7640   96.7120 O.2   305  ASN305     -0.2716
     89  ND2      -15.0590  -25.3850   98.4850 N.am  305  ASN305     -0.0877
     90  N        -20.1630  -27.5870   96.5620 N.am  306  TRP306     -0.1974
     91  CA       -21.4530  -28.0280   97.0820 C.3   306  TRP306      0.1640
     92  C        -22.2890  -28.7770   96.0500 C.2   306  TRP306      0.2290
     93  O        -23.5170  -28.8210   96.1710 O.2   306  TRP306     -0.2864
     94  CB       -22.2300  -26.8360   97.6410 C.3   306  TRP306      0.0576
     95  CG       -21.5070  -26.1770   98.7700 C.ar  306  TRP306      0.0006
     96  CD1      -21.6410  -26.4510  100.0980 C.ar  306  TRP306      0.0946
     97  CD2      -20.5120  -25.1490   98.6710 C.ar  306  TRP306      0.0152
     98  NE1      -20.8010  -25.6510  100.8350 N.ar  306  TRP306     -0.2442
     99  CE2      -20.0950  -24.8450   99.9820 C.ar  306  TRP306      0.0810
    100  CE3      -19.9380  -24.4530   97.6020 C.ar  306  TRP306      0.0012
    101  CZ2      -19.1330  -23.8720  100.2530 C.ar  306  TRP306      0.0191
    102  CZ3      -18.9810  -23.4880   97.8740 C.ar  306  TRP306      0.0001
    103  CH2      -18.5890  -23.2070   99.1880 C.ar  306  TRP306      0.0015
@<TRIPOS>BOND
     1    41    42    2
     2    41    40    1
     3    39    40    1
     4    40    43    1
     5    47    48    1
     6    49    50    2
     7    49    48    1
     8    55    56    2
     9    55    54    1
    10    53    54    1
    11    48    51    1
    12    43    44    1
    13    45    44   ar
    14    28    27    2
    15    54    57    1
    16    27    26    1
    17    63    64    1
    18    44    46   ar
    19    67    68    1
    20    51    52    1
    21    75    76    1
    22    65    66    2
    23    65    64    1
    24    57    58    1
    25    37    35   ar
    26    37    38   ar
    27    81    79    1
    28    25    26    1
    29    35    32   ar
    30    76    79    1
    31    76    77    1
    32    26    29    1
    33    69    68    1
    34    69    70    2
    35    59    58   ar
    36    59    61   ar
    37    38    36   ar
    38    68    71    1
    39    58    60   ar
    40    79    80    1
    41    78    77    2
    42     7     5    1
    43    32    30   ar
    44    32    34   ar
    45    29    30    1
    46    77    82   am
    47    61    62   ar
    48    36    34   ar
    49    30    31   ar
    50    71    72    1
    51    34    33   ar
    52    60    62   ar
    53     6     5    1
    54    72    74    1
    55    72    73    1
    56     5     2    1
    57    82    83    1
    58    31    33   ar
    59    92    93    2
    60    92    91    1
    61     2     1    1
    62     2     3    1
    63    90    91    1
    64    90    84   am
    65    83    84    1
    66    83    86    1
    67    88    87    2
    68    91    94    1
    69    84    85    2
    70   100   102   ar
    71   100    97   ar
    72    94    95    1
    73    87    86    1
    74    87    89   am
    75     3     8   am
    76     3     4    2
    77    11    10    2
    78     8     9    1
    79   102   103   ar
    80    97    95   ar
    81    97    99   ar
    82    95    96   ar
    83    10     9    1
    84    10    17   am
    85     9    12    1
    86   103   101   ar
    87    13    12    1
    88    13    14    1
    89    18    17    1
    90    18    19    1
    91    18    21    1
    92    19    20    2
    93    99   101   ar
    94    99    98   ar
    95    15    14    1
    96    15    16    1
    97    96    98   ar
    98    22    21    1
    99    22    24    1
   100    21    23    1
