@<TRIPOS>MOLECULE
tmp/5l8rE47.pdb
 118 124 0 0 0
SMALL
GASTEIGER

@<TRIPOS>ATOM
      1  N         19.5740   -9.3070   93.5350 N.3    18  GLN18      -0.1231
      2  CA        19.2770   -9.4870   92.1240 C.3    18  GLN18       0.1698
      3  C         18.8440   -8.1970   91.4440 C.2    18  GLN18       0.2592
      4  O         18.8060   -8.1490   90.2090 O.2    18  GLN18      -0.2718
      5  CB        18.2110  -10.5720   91.9540 C.3    18  GLN18       0.0381
      6  CG        18.6840  -11.9450   92.4120 C.3    18  GLN18       0.0905
      7  CD        17.6060  -13.0010   92.3150 C.2    18  GLN18       0.2608
      8  OE1       16.4340  -12.7330   92.5740 O.2    18  GLN18      -0.2717
      9  NE2       17.9960  -14.2130   91.9350 N.am   18  GLN18      -0.0878
     10  N         18.5190   -7.1540   92.2150 N.am   19  TRP19      -0.1976
     11  CA        18.4350   -5.8120   91.6440 C.3    19  TRP19       0.1640
     12  C         19.7600   -5.3990   91.0170 C.2    19  TRP19       0.2290
     13  O         19.7780   -4.6680   90.0210 O.2    19  TRP19      -0.2864
     14  CB        18.0490   -4.7970   92.7180 C.3    19  TRP19       0.0576
     15  CG        16.6240   -4.8320   93.1570 C.ar   19  TRP19       0.0006
     16  CD1       15.9230   -5.9170   93.5860 C.ar   19  TRP19       0.0946
     17  CD2       15.7320   -3.7140   93.2500 C.ar   19  TRP19       0.0152
     18  NE1       14.6410   -5.5500   93.9230 N.ar   19  TRP19      -0.2442
     19  CE2       14.5000   -4.2010   93.7270 C.ar   19  TRP19       0.0810
     20  CE3       15.8540   -2.3510   92.9670 C.ar   19  TRP19       0.0012
     21  CZ2       13.3950   -3.3730   93.9270 C.ar   19  TRP19       0.0191
     22  CZ3       14.7560   -1.5290   93.1670 C.ar   19  TRP19       0.0001
     23  CH2       13.5430   -2.0440   93.6420 C.ar   19  TRP19       0.0015
     24  N         22.0520   -7.5130   89.7400 N.3    21  LYS21      -0.1231
     25  CA        22.4700   -8.4620   88.7100 C.3    21  LYS21       0.1678
     26  C         21.5330   -8.3380   87.5140 C.2    21  LYS21       0.2434
     27  O         20.4950   -9.0150   87.4590 O.2    21  LYS21      -0.2733
     28  CB        22.4700   -9.8940   89.2480 C.3    21  LYS21       0.0284
     29  CG        23.4470  -10.1350   90.3820 C.3    21  LYS21       0.0035
     30  CD        23.3020  -11.5480   90.9210 C.3    21  LYS21       0.0206
     31  CE        24.3480  -11.8570   91.9740 C.3    21  LYS21       0.1093
     32  NZ        24.2290  -13.2610   92.4590 N.3    21  LYS21      -0.1314
     33  N         21.8480   -7.4880   86.5340 N.am   22  PRO22      -0.2718
     34  CA        20.9390   -7.3100   85.3970 C.3    22  PRO22       0.1535
     35  C         20.7960   -8.5830   84.5800 C.2    22  PRO22       0.2599
     36  O         21.7770   -9.2680   84.2780 O.2    22  PRO22      -0.2715
     37  CB        21.6010   -6.1880   84.5880 C.3    22  PRO22       0.0310
     38  CG        22.4440   -5.4540   85.5900 C.3    22  PRO22       0.0237
     39  CD        22.9590   -6.5230   86.5020 C.3    22  PRO22       0.0939
     40  N         19.5520   -8.8880   84.2170 N.am   23  GLY23      -0.1941
     41  CA        19.2700  -10.1220   83.5130 C.3    23  GLY23       0.2014
     42  C         19.3090  -11.3470   84.3860 C.2    23  GLY23       0.2639
     43  O         19.5520  -12.4460   83.8860 O.2    23  GLY23      -0.2714
     44  N         19.0870  -11.1790   85.6920 N.am   24  HIS24      -0.1959
     45  CA        19.0930  -12.3030   86.6240 C.3    24  HIS24       0.1787
     46  C         18.1130  -13.3940   86.2080 C.2    24  HIS24       0.2620
     47  O         18.3360  -14.5740   86.5010 O.2    24  HIS24      -0.2715
     48  CB        18.7340  -11.8060   88.0200 C.3    24  HIS24       0.0785
     49  CG        17.3430  -11.2620   88.1040 C.ar   24  HIS24       0.0821
     50  ND1       17.0360   -9.9570   87.7920 N.ar   24  HIS24      -0.2267
     51  CD2       16.1690  -11.8610   88.4140 C.ar   24  HIS24       0.1154
     52  CE1       15.7360   -9.7660   87.9310 C.ar   24  HIS24       0.1986
     53  NE2       15.1860  -10.9080   88.2990 N.ar   24  HIS24      -0.2212
     54  N         17.0230  -13.0200   85.5330 N.am   25  PHE25      -0.1974
     55  CA        15.9780  -13.9840   85.2050 C.3    25  PHE25       0.1639
     56  C         16.4170  -14.9620   84.1230 C.2    25  PHE25       0.2290
     57  O         15.9050  -16.0870   84.0640 O.2    25  PHE25      -0.2864
     58  CB        14.7070  -13.2520   84.7710 C.3    25  PHE25       0.0560
     59  CG        14.9310  -12.2000   83.7060 C.ar   25  PHE25      -0.0200
     60  CD1       15.0380  -12.5520   82.3680 C.ar   25  PHE25      -0.0042
     61  CD2       14.9980  -10.8570   84.0420 C.ar   25  PHE25      -0.0042
     62  CE1       15.2250  -11.5870   81.3880 C.ar   25  PHE25      -0.0003
     63  CE2       15.1850   -9.8860   83.0660 C.ar   25  PHE25      -0.0003
     64  CZ        15.2960  -10.2540   81.7370 C.ar   25  PHE25      -0.0000
     65  N         22.9360   -7.4370   73.9730 N.3    38  TRP38      -0.1227
     66  CA        22.5320   -7.7790   75.3290 C.3    38  TRP38       0.1737
     67  C         21.5290   -6.7710   75.8880 C.2    38  TRP38       0.2595
     68  O         20.4390   -7.1440   76.3440 O.2    38  TRP38      -0.2718
     69  CB        23.7940   -7.8550   76.1940 C.3    38  TRP38       0.0564
     70  CG        23.5720   -8.2310   77.6080 C.ar   38  TRP38       0.0003
     71  CD1       23.5720   -9.4880   78.1260 C.ar   38  TRP38       0.0946
     72  CD2       23.3400   -7.3420   78.7060 C.ar   38  TRP38       0.0152
     73  NE1       23.3380   -9.4430   79.4780 N.ar   38  TRP38      -0.2442
     74  CE2       23.1890   -8.1340   79.8580 C.ar   38  TRP38       0.0810
     75  CE3       23.2340   -5.9550   78.8250 C.ar   38  TRP38       0.0012
     76  CZ2       22.9410   -7.5850   81.1120 C.ar   38  TRP38       0.0191
     77  CZ3       22.9820   -5.4120   80.0760 C.ar   38  TRP38       0.0001
     78  CH2       22.8400   -6.2240   81.1980 C.ar   38  TRP38       0.0015
     79  N         21.8630   -5.4790   75.7980 N.am   39  ILE39      -0.1966
     80  CA        21.0320   -4.4440   76.4100 C.3    39  ILE39       0.1727
     81  C         19.6070   -4.5030   75.8740 C.2    39  ILE39       0.2616
     82  O         18.6390   -4.3000   76.6180 O.2    39  ILE39      -0.2715
     83  CB        21.6660   -3.0570   76.1900 C.3    39  ILE39       0.0290
     84  CG1       22.9590   -2.9480   76.9900 C.3    39  ILE39       0.0022
     85  CG2       20.6920   -1.9350   76.5670 C.3    39  ILE39       0.0023
     86  CD1       23.8900   -1.9120   76.4540 C.3    39  ILE39       0.0001
     87  N         19.4460   -4.8020   74.5860 N.am   40  TRP40      -0.1974
     88  CA        18.0930   -4.8670   74.0500 C.3    40  TRP40       0.1640
     89  C         17.3770   -6.1270   74.5220 C.2    40  TRP40       0.2290
     90  O         16.2030   -6.0700   74.9160 O.2    40  TRP40      -0.2864
     91  CB        18.1280   -4.7780   72.5280 C.3    40  TRP40       0.0576
     92  CG        18.8290   -3.5420   72.0460 C.ar   40  TRP40       0.0006
     93  CD1       19.9550   -3.4860   71.2800 C.ar   40  TRP40       0.0946
     94  CD2       18.4690   -2.1850   72.3280 C.ar   40  TRP40       0.0152
     95  NE1       20.3090   -2.1820   71.0520 N.ar   40  TRP40      -0.2442
     96  CE2       19.4150   -1.3610   71.6870 C.ar   40  TRP40       0.0810
     97  CE3       17.4310   -1.5860   73.0520 C.ar   40  TRP40       0.0012
     98  CZ2       19.3560    0.0350   71.7470 C.ar   40  TRP40       0.0191
     99  CZ3       17.3730   -0.2040   73.1080 C.ar   40  TRP40       0.0001
    100  CH2       18.3310    0.5910   72.4590 C.ar   40  TRP40       0.0015
    101  N         17.7380   -7.8690   77.2610 N.3    42  LEU42      -0.1231
    102  CA        17.3160   -7.6610   78.6420 C.3    42  LEU42       0.1693
    103  C         15.9330   -7.0260   78.7290 C.2    42  LEU42       0.2592
    104  O         15.1450   -7.3620   79.6200 O.2    42  LEU42      -0.2718
    105  CB        18.3430   -6.7920   79.3650 C.3    42  LEU42       0.0284
    106  CG        17.9630   -6.2480   80.7410 C.3    42  LEU42       0.0019
    107  CD1       17.7220   -7.3870   81.7120 C.3    42  LEU42       0.0001
    108  CD2       19.0620   -5.3380   81.2460 C.3    42  LEU42       0.0001
    109  N         15.6090   -6.1160   77.8080 N.am   43  HIS43      -0.1976
    110  CA        14.3090   -5.4620   77.8760 C.3    43  HIS43       0.1656
    111  C         13.2390   -6.2070   77.1040 C.2    43  HIS43       0.2291
    112  O         12.0590   -6.1310   77.4690 O.2    43  HIS43      -0.2864
    113  CB        14.4090   -4.0220   77.3670 C.3    43  HIS43       0.0771
    114  CG        15.3640   -3.1850   78.1530 C.ar   43  HIS43       0.0820
    115  ND1       16.7310   -3.2930   78.0130 N.ar   43  HIS43      -0.2267
    116  CD2       15.1550   -2.2580   79.1150 C.ar   43  HIS43       0.1154
    117  CE1       17.3240   -2.4550   78.8420 C.ar   43  HIS43       0.1986
    118  NE2       16.3900   -1.8150   79.5220 N.ar   43  HIS43      -0.2212
@<TRIPOS>BOND
     1    95    93   ar
     2    95    96   ar
     3    93    92   ar
     4    96    98   ar
     5    96    94   ar
     6    98   100   ar
     7    92    94   ar
     8    92    91    1
     9    94    97   ar
    10   100    99   ar
    11    91    88    1
    12    97    99   ar
    13    65    66    1
    14    88    89    1
    15    88    87    1
    16    89    90    2
    17    87    81   am
    18    66    67    1
    19    66    69    1
    20    79    67   am
    21    79    80    1
    22    81    80    1
    23    81    82    2
    24    67    68    2
    25    83    80    1
    26    83    85    1
    27    83    84    1
    28    69    70    1
    29    86    84    1
    30   111   112    2
    31   111   110    1
    32   101   102    1
    33   113   110    1
    34   113   114    1
    35    70    71   ar
    36    70    72   ar
    37   109   110    1
    38   109   103   am
    39   115   114   ar
    40   115   117   ar
    41    71    73   ar
    42   114   116   ar
    43   102   103    1
    44   102   105    1
    45    72    75   ar
    46    72    74   ar
    47   103   104    2
    48    75    77   ar
    49   117   118   ar
    50   116   118   ar
    51   105   106    1
    52    73    74   ar
    53    74    76   ar
    54    77    78   ar
    55   106   108    1
    56   106   107    1
    57    76    78   ar
    58    62    64   ar
    59    62    60   ar
    60    64    63   ar
    61    60    59   ar
    62    63    61   ar
    63    41    40    1
    64    41    42    1
    65    59    61   ar
    66    59    58    1
    67    43    42    2
    68    57    56    2
    69    56    55    1
    70    40    35   am
    71    36    35    2
    72    42    44   am
    73    35    34    1
    74    37    34    1
    75    37    38    1
    76    58    55    1
    77    55    54    1
    78    34    33    1
    79    54    46   am
    80    38    39    1
    81    44    45    1
    82    46    47    2
    83    46    45    1
    84    39    33    1
    85    33    26   am
    86    45    48    1
    87    27    26    2
    88    26    25    1
    89    50    52   ar
    90    50    49   ar
    91    52    53   ar
    92    48    49    1
    93    49    51   ar
    94    53    51   ar
    95    25    28    1
    96    25    24    1
    97    28    29    1
    98    13    12    2
    99     4     3    2
   100    29    30    1
   101    30    31    1
   102    12    11    1
   103     3     2    1
   104     3    10   am
   105    11    10    1
   106    11    14    1
   107     9     7   am
   108     5     2    1
   109     5     6    1
   110    31    32    1
   111     2     1    1
   112     7     6    1
   113     7     8    2
   114    14    15    1
   115    20    22   ar
   116    20    17   ar
   117    15    17   ar
   118    15    16   ar
   119    22    23   ar
   120    17    19   ar
   121    16    18   ar
   122    23    21   ar
   123    19    18   ar
   124    19    21   ar
