@<TRIPOS>MOLECULE
tmp/5l8rF24.pdb
 87 83 0 0 0
SMALL
GASTEIGER

@<TRIPOS>ATOM
      1  N         53.7640   10.1790   49.5260 N.3   313  ARG313     -0.1231
      2  CA        52.5030   10.3050   50.2460 C.3   313  ARG313      0.1694
      3  C         51.3240    9.7630   49.4480 C.2   313  ARG313      0.2591
      4  O         50.2730    9.4830   50.0370 O.2   313  ARG313     -0.2718
      5  CB        52.2590   11.7600   50.6340 C.3   313  ARG313      0.0321
      6  CG        53.2870   12.2860   51.6050 C.3   313  ARG313      0.0489
      7  CD        53.0290   13.7280   51.9710 C.3   313  ARG313      0.2205
      8  NE        54.0620   14.2340   52.8670 N.pl3 313  ARG313     -0.0865
      9  CZ        54.0630   14.0360   54.1800 C.cat 313  ARG313      0.5346
     10  NH1       53.0830   13.3430   54.7470 N.pl3 313  ARG313      0.1354
     11  NH2       55.0410   14.5280   54.9280 N.pl3 313  ARG313      0.1354
     12  N         51.4720    9.6040   48.1310 N.am  314  LEU314     -0.1980
     13  CA        50.4890    8.9140   47.3040 C.3   314  LEU314      0.1596
     14  C         50.9940    7.5540   46.8300 C.2   314  LEU314      0.2287
     15  O         50.4360    6.9830   45.8880 O.2   314  LEU314     -0.2864
     16  CB        50.0890    9.7810   46.1100 C.3   314  LEU314      0.0297
     17  CG        49.4450   11.1260   46.4540 C.3   314  LEU314      0.0022
     18  CD1       48.9710   11.8230   45.1950 C.3   314  LEU314      0.0001
     19  CD2       48.2920   10.9400   47.4250 C.3   314  LEU314      0.0001
     20  N         46.9890    5.4090   43.9650 N.3   406  VAL406     -0.1245
     21  CA        45.9840    6.2080   44.6650 C.3   406  VAL406      0.1561
     22  C         44.6780    5.4280   44.8130 C.2   406  VAL406      0.2260
     23  O         44.0140    5.4760   45.8620 O.2   406  VAL406     -0.2867
     24  CB        45.7820    7.5520   43.9340 C.3   406  VAL406      0.0252
     25  CG1       47.0060    8.4370   44.1160 C.3   406  VAL406      0.0019
     26  CG2       45.5340    7.3330   42.4440 C.3   406  VAL406      0.0019
     27  N         44.7920    2.8710   47.5430 N.3   409  ARG409     -0.1231
     28  CA        44.8380    3.5680   48.8220 C.3   409  ARG409      0.1694
     29  C         43.4670    4.0810   49.2370 C.2   409  ARG409      0.2591
     30  O         43.2110    4.2290   50.4380 O.2   409  ARG409     -0.2718
     31  CB        45.8470    4.7080   48.7600 C.3   409  ARG409      0.0321
     32  CG        47.2700    4.2250   48.8940 C.3   409  ARG409      0.0489
     33  CD        48.2510    5.2380   48.3630 C.3   409  ARG409      0.2205
     34  NE        49.6090    4.8730   48.7290 N.pl3 409  ARG409     -0.0865
     35  CZ        50.2550    5.3670   49.7760 C.cat 409  ARG409      0.5346
     36  NH1       49.6700    6.2610   50.5570 N.pl3 409  ARG409      0.1354
     37  NH2       51.4880    4.9650   50.0360 N.pl3 409  ARG409      0.1354
     38  N         42.5770    4.3600   48.2760 N.am  410  MET410     -0.1979
     39  CA        41.1800    4.5960   48.6440 C.3   410  MET410      0.1605
     40  C         40.6390    3.4530   49.4970 C.2   410  MET410      0.2287
     41  O         40.0710    3.6790   50.5720 O.2   410  MET410     -0.2864
     42  CB        40.3110    4.7960   47.3960 C.3   410  MET410      0.0413
     43  CG        40.5470    6.0940   46.6180 C.3   410  MET410      0.0598
     44  SD        40.5230    7.6250   47.5870 S.3   410  MET410     -0.1393
     45  CE        42.2090    7.6320   48.1180 C.3   410  MET410      0.0692
     46  N         42.4210    1.2850   51.1010 N.3   412  GLU412     -0.1231
     47  CA        43.2840    1.0370   52.2520 C.3   412  GLU412      0.1699
     48  C         42.8930    1.8730   53.4700 C.2   412  GLU412      0.2592
     49  O         43.0360    1.4030   54.6050 O.2   412  GLU412     -0.2718
     50  CB        44.7390    1.2960   51.8630 C.3   412  GLU412      0.0402
     51  CG        45.7550    1.0240   52.9530 C.3   412  GLU412      0.1161
     52  CD        47.1800    1.2310   52.4670 C.2   412  GLU412      0.3649
     53  OE1       47.4040    1.1790   51.2370 O.co2 412  GLU412     -0.2457
     54  OE2       48.0750    1.4510   53.3100 O.co2 412  GLU412     -0.2457
     55  N         42.4000    3.0950   53.2750 N.am  413  HIS413     -0.1976
     56  CA        41.9560    3.9230   54.3930 C.3   413  HIS413      0.1656
     57  C         40.4690    4.2520   54.2740 C.2   413  HIS413      0.2291
     58  O         40.0310    5.3750   54.5330 O.2   413  HIS413     -0.2864
     59  CB        42.8090    5.1880   54.5160 C.3   413  HIS413      0.0771
     60  CG        42.5670    6.2080   53.4450 C.ar  413  HIS413      0.0820
     61  ND1       43.0820    6.0930   52.1720 N.ar  413  HIS413     -0.2267
     62  CD2       41.8840    7.3780   53.4690 C.ar  413  HIS413      0.1154
     63  CE1       42.7150    7.1400   51.4540 C.ar  413  HIS413      0.1986
     64  NE2       41.9820    7.9310   52.2170 N.ar  413  HIS413     -0.2212
     65  N         38.5580    5.7560   57.5250 N.3   416  ALA416     -0.1231
     66  CA        38.6850    7.1880   57.7690 C.3   416  ALA416      0.1694
     67  C         37.7190    7.9730   56.8880 C.2   416  ALA416      0.2591
     68  O         37.0210    8.8830   57.3580 O.2   416  ALA416     -0.2718
     69  CB        40.1290    7.6270   57.5290 C.3   416  ALA416      0.0304
     70  N         37.6570    7.6180   55.6030 N.am  417  ILE417     -0.1980
     71  CA        36.7460    8.2790   54.6710 C.3   417  ILE417      0.1595
     72  C         35.3060    8.1380   55.1480 C.2   417  ILE417      0.2287
     73  O         34.6040    9.1330   55.3770 O.2   417  ILE417     -0.2864
     74  CB        36.9280    7.7040   53.2560 C.3   417  ILE417      0.0276
     75  CG1       38.3450    7.9960   52.7520 C.3   417  ILE417      0.0022
     76  CG2       35.8700    8.2530   52.3130 C.3   417  ILE417      0.0022
     77  CD1       38.7380    7.2370   51.5050 C.3   417  ILE417      0.0001
     78  N         34.4950    9.9330   58.4870 N.3   420  HIS420     -0.1241
     79  CA        34.4100   11.3920   58.4180 C.3   420  HIS420      0.1621
     80  C         33.2010   11.8720   57.6290 C.2   420  HIS420      0.2264
     81  O         32.6370   12.9230   57.9550 O.2   420  HIS420     -0.2867
     82  CB        35.6850   11.9800   57.8200 C.3   420  HIS420      0.0745
     83  CG        36.8560   11.8920   58.7390 C.ar  420  HIS420      0.0817
     84  ND1       37.5650   10.7240   58.9250 N.ar  420  HIS420     -0.2268
     85  CD2       37.4200   12.8120   59.5560 C.ar  420  HIS420      0.1154
     86  CE1       38.5280   10.9340   59.8030 C.ar  420  HIS420      0.1986
     87  NE2       38.4580   12.1900   60.2040 N.ar  420  HIS420     -0.2212
@<TRIPOS>BOND
     1    26    24    1
     2    24    25    1
     3    24    21    1
     4    20    21    1
     5    21    22    1
     6    22    23    2
     7    18    17    1
     8    15    14    2
     9    16    17    1
    10    16    13    1
    11    17    19    1
    12    43    42    1
    13    43    44    1
    14    14    13    1
    15    13    12    1
    16    42    39    1
    17    27    28    1
    18    44    45    1
    19    12     3   am
    20    38    39    1
    21    38    29   am
    22    33    34    1
    23    33    32    1
    24    39    40    1
    25    34    35    2
    26    31    28    1
    27    31    32    1
    28    28    29    1
    29    29    30    2
    30     3     4    2
    31     3     2    1
    32    40    41    2
    33     1     2    1
    34    35    37    1
    35    35    36    1
    36     2     5    1
    37     5     6    1
    38    46    47    1
    39    53    52   ar
    40    63    61   ar
    41    63    64   ar
    42    77    75    1
    43     6     7    1
    44    50    47    1
    45    50    51    1
    46     7     8    1
    47    61    60   ar
    48    64    62   ar
    49    47    48    1
    50    76    74    1
    51    52    51    1
    52    52    54   ar
    53    75    74    1
    54     8     9    2
    55    74    71    1
    56    55    48   am
    57    55    56    1
    58    60    62   ar
    59    60    59    1
    60    48    49    2
    61     9    10    1
    62     9    11    1
    63    57    56    1
    64    57    58    2
    65    56    59    1
    66    71    72    1
    67    71    70    1
    68    72    73    2
    69    70    67   am
    70    67    68    2
    71    67    66    1
    72    65    66    1
    73    69    66    1
    74    80    81    2
    75    80    79    1
    76    82    79    1
    77    82    83    1
    78    79    78    1
    79    83    84   ar
    80    83    85   ar
    81    84    86   ar
    82    85    87   ar
    83    86    87   ar
