@<TRIPOS>MOLECULE
tmp/5l8rE04.pdb
 162 156 0 0 0
SMALL
GASTEIGER

@<TRIPOS>ATOM
      1  N        -24.0100   -3.1110   91.7820 N.3   201  LEU201     -0.1231
      2  CA       -24.9790   -2.8180   92.8340 C.3   201  LEU201      0.1693
      3  C        -24.5060   -1.6680   93.7150 C.2   201  LEU201      0.2592
      4  O        -25.2840   -0.7600   94.0420 O.2   201  LEU201     -0.2718
      5  CB       -25.2360   -4.0690   93.6740 C.3   201  LEU201      0.0284
      6  CG       -26.2470   -3.8600   94.8010 C.3   201  LEU201      0.0019
      7  CD1      -27.5720   -3.3970   94.2230 C.3   201  LEU201      0.0001
      8  CD2      -26.4260   -5.1180   95.6270 C.3   201  LEU201      0.0001
      9  N        -23.2300   -1.6940   94.1140 N.am  202  SER202     -0.1952
     10  CA       -22.6700   -0.5980   94.9000 C.3   202  SER202      0.1924
     11  C        -22.8030    0.7280   94.1650 C.2   202  SER202      0.2314
     12  O        -23.1910    1.7490   94.7560 O.2   202  SER202     -0.2863
     13  CB       -21.2030   -0.8810   95.2150 C.3   202  SER202      0.2116
     14  OG       -21.0320   -2.1990   95.7010 O.3   202  SER202     -0.2180
     15  N        -24.9830    1.5130   91.8000 N.3   204  ALA204     -0.1231
     16  CA       -26.3920    1.8850   91.8420 C.3   204  ALA204      0.1694
     17  C        -26.7370    2.5380   93.1730 C.2   204  ALA204      0.2592
     18  O        -27.5040    3.5080   93.2190 O.2   204  ALA204     -0.2718
     19  CB       -27.2730    0.6600   91.5960 C.3   204  ALA204      0.0304
     20  N        -26.1600    2.0340   94.2640 N.am  205  GLY205     -0.1957
     21  CA       -26.3520    2.6350   95.5700 C.3   205  GLY205      0.1869
     22  C        -25.8920    4.0770   95.6310 C.2   205  GLY205      0.2309
     23  O        -26.6690    4.9720   95.9980 O.2   205  GLY205     -0.2863
     24  N        -28.2950    6.3160   93.4580 N.3   208  VAL208     -0.1231
     25  CA       -29.6120    6.6350   93.9960 C.3   208  VAL208      0.1692
     26  C        -29.5080    7.4840   95.2550 C.2   208  VAL208      0.2592
     27  O        -30.4430    8.2280   95.5740 O.2   208  VAL208     -0.2718
     28  CB       -30.4310    5.3570   94.2640 C.3   208  VAL208      0.0266
     29  CG1      -30.6210    4.5770   92.9730 C.3   208  VAL208      0.0020
     30  CG2      -29.7620    4.5000   95.3230 C.3   208  VAL208      0.0020
     31  N        -28.3880    7.4160   95.9780 N.am  209  HIS209     -0.1976
     32  CA       -28.2600    8.2100   97.1930 C.3   209  HIS209      0.1656
     33  C        -27.4700    9.5000   97.0140 C.2   209  HIS209      0.2291
     34  O        -27.6280   10.4180   97.8270 O.2   209  HIS209     -0.2864
     35  CB       -27.6220    7.3730   98.3030 C.3   209  HIS209      0.0771
     36  CG       -28.5380    6.3300   98.8540 C.ar  209  HIS209      0.0820
     37  ND1      -29.5090    6.6140   99.7900 N.ar  209  HIS209     -0.2267
     38  CD2      -28.6490    5.0080   98.5860 C.ar  209  HIS209      0.1154
     39  CE1      -30.1700    5.5100  100.0840 C.ar  209  HIS209      0.1986
     40  NE2      -29.6670    4.5210   99.3660 N.ar  209  HIS209     -0.2212
     41  N        -28.5680   13.5890  102.3660 N.3   233  PHE233     -0.1227
     42  CA       -29.6460   12.8430  101.7250 C.3   233  PHE233      0.1736
     43  C        -29.8040   11.4580  102.3390 C.2   233  PHE233      0.2595
     44  O        -30.8950   10.8780  102.2880 O.2   233  PHE233     -0.2718
     45  CB       -29.3890   12.7330  100.2220 C.3   233  PHE233      0.0547
     46  CG       -29.3160   14.0600   99.5190 C.ar  233  PHE233     -0.0202
     47  CD1      -30.4660   14.6790   99.0600 C.ar  233  PHE233     -0.0042
     48  CD2      -28.0980   14.6850   99.3160 C.ar  233  PHE233     -0.0042
     49  CE1      -30.4020   15.8980   98.4150 C.ar  233  PHE233     -0.0003
     50  CE2      -28.0270   15.9030   98.6710 C.ar  233  PHE233     -0.0003
     51  CZ       -29.1800   16.5100   98.2200 C.ar  233  PHE233     -0.0000
     52  N        -28.7340   10.9130  102.9180 N.am  234  ILE234     -0.1966
     53  CA       -28.8250    9.6190  103.5850 C.3   234  ILE234      0.1727
     54  C        -29.4430    9.7670  104.9690 C.2   234  ILE234      0.2616
     55  O        -30.2320    8.9200  105.4020 O.2   234  ILE234     -0.2715
     56  CB       -27.4340    8.9650  103.6560 C.3   234  ILE234      0.0290
     57  CG1      -26.8710    8.7540  102.2480 C.3   234  ILE234      0.0022
     58  CG2      -27.4990    7.6480  104.4160 C.3   234  ILE234      0.0023
     59  CD1      -25.5000    8.1090  102.2290 C.3   234  ILE234      0.0001
     60  N        -29.1000   10.8420  105.6810 N.am  235  LEU235     -0.1977
     61  CA       -29.6100   11.0800  107.0270 C.3   235  LEU235      0.1596
     62  C        -31.0810   11.4770  106.9850 C.2   235  LEU235      0.2287
     63  O        -31.9620   10.6570  107.2590 O.2   235  LEU235     -0.2864
     64  CB       -28.7820   12.1630  107.7270 C.3   235  LEU235      0.0297
     65  CG       -27.2720   11.9140  107.7970 C.3   235  LEU235      0.0022
     66  CD1      -26.5490   13.1050  108.4030 C.3   235  LEU235      0.0001
     67  CD2      -26.9630   10.6470  108.5790 C.3   235  LEU235      0.0001
     68  N        -34.1520   11.7230  105.2330 N.3   237  ARG237     -0.1245
     69  CA       -34.8250   11.2440  104.0320 C.3   237  ARG237      0.1563
     70  C        -35.8330   12.2460  103.4880 C.2   237  ARG237      0.2260
     71  O        -36.4160   11.9960  102.4290 O.2   237  ARG237     -0.2867
     72  CB       -35.5360    9.9210  104.3150 C.3   237  ARG237      0.0307
     73  CG       -34.6930    8.9340  105.0880 C.3   237  ARG237      0.0489
     74  CD       -35.5390    7.7680  105.5550 C.3   237  ARG237      0.2205
     75  NE       -36.1410    7.0570  104.4350 N.pl3 237  ARG237     -0.0865
     76  CZ       -36.9930    6.0470  104.5640 C.cat 237  ARG237      0.5346
     77  NH1      -37.3550    5.6240  105.7690 N.pl3 237  ARG237      0.1354
     78  NH2      -37.4870    5.4650  103.4820 N.pl3 237  ARG237      0.1354
     79  N        -34.3620   13.7810  100.0830 N.3   240  LEU240     -0.1245
     80  CA       -34.6650   12.8770   98.9790 C.3   240  LEU240      0.1561
     81  C        -36.1580   12.8510   98.6850 C.2   240  LEU240      0.2260
     82  O        -36.5720   12.9710   97.5300 O.2   240  LEU240     -0.2867
     83  CB       -34.1600   11.4680   99.2960 C.3   240  LEU240      0.0270
     84  CG       -32.6540   11.2200   99.2330 C.3   240  LEU240      0.0019
     85  CD1      -32.3380    9.7780   99.5990 C.3   240  LEU240      0.0001
     86  CD2      -32.1230   11.5500   97.8520 C.3   240  LEU240      0.0001
     87  N        -40.6390    8.5110   96.7070 N.3   246  SER246     -0.1202
     88  CA       -40.7020    7.0840   97.0150 C.3   246  SER246      0.2020
     89  C        -39.9040    6.7310   98.2630 C.2   246  SER246      0.2618
     90  O        -40.2450    5.7710   98.9640 O.2   246  SER246     -0.2717
     91  CB       -40.2010    6.2680   95.8230 C.3   246  SER246      0.2103
     92  OG       -41.0280    6.4590   94.6880 O.3   246  SER246     -0.2182
     93  N        -38.8550    7.4960   98.5700 N.am  247  PHE247     -0.1975
     94  CA       -38.0280    7.2140   99.7370 C.3   247  PHE247      0.1639
     95  C        -38.7720    7.3740  101.0560 C.2   247  PHE247      0.2290
     96  O        -38.1800    7.1080  102.1060 O.2   247  PHE247     -0.2864
     97  CB       -36.7890    8.1120   99.7370 C.3   247  PHE247      0.0560
     98  CG       -35.7880    7.7580   98.6800 C.ar  247  PHE247     -0.0200
     99  CD1      -34.7890    6.8350   98.9370 C.ar  247  PHE247     -0.0042
    100  CD2      -35.8470    8.3460   97.4280 C.ar  247  PHE247     -0.0042
    101  CE1      -33.8650    6.5060   97.9650 C.ar  247  PHE247     -0.0003
    102  CE2      -34.9270    8.0220   96.4530 C.ar  247  PHE247     -0.0003
    103  CZ       -33.9340    7.0990   96.7220 C.ar  247  PHE247     -0.0000
    104  N        -39.5860    3.3990  102.9600 N.3   250  GLY250     -0.1210
    105  CA       -38.7090    2.6200  103.8100 C.3   250  GLY250      0.1956
    106  C        -38.3920    1.2580  103.2330 C.2   250  GLY250      0.2611
    107  O        -38.2850    0.2730  103.9700 O.2   250  GLY250     -0.2717
    108  N        -38.2560    1.1900  101.9110 N.am  251  ALA251     -0.1979
    109  CA       -37.9400   -0.0310  101.1750 C.3   251  ALA251      0.1597
    110  C        -38.9570   -1.1440  101.4000 C.2   251  ALA251      0.2287
    111  O        -38.6890   -2.3000  101.0500 O.2   251  ALA251     -0.2864
    112  CB       -36.5290   -0.5380  101.5040 C.3   251  ALA251      0.0319
    113  N        -40.0470   -2.7600   98.1400 N.3   254  PHE254     -0.1241
    114  CA       -39.0670   -3.6920   97.5960 C.3   254  PHE254      0.1605
    115  C        -39.3420   -5.1130   98.0720 C.2   254  PHE254      0.2264
    116  O        -39.3150   -6.0600   97.2780 O.2   254  PHE254     -0.2867
    117  CB       -37.6560   -3.2530   97.9850 C.3   254  PHE254      0.0534
    118  CG       -36.5910   -4.2360   97.6030 C.ar  254  PHE254     -0.0203
    119  CD1      -36.1580   -4.3340   96.2920 C.ar  254  PHE254     -0.0042
    120  CD2      -36.0170   -5.0580   98.5570 C.ar  254  PHE254     -0.0042
    121  CE1      -35.1740   -5.2380   95.9380 C.ar  254  PHE254     -0.0003
    122  CE2      -35.0340   -5.9640   98.2100 C.ar  254  PHE254     -0.0003
    123  CZ       -34.6120   -6.0540   96.8970 C.ar  254  PHE254     -0.0000
    124  N        -41.5980    2.4740   92.6220 N.3   262  TYR262     -0.1241
    125  CA       -40.2840    3.0870   92.4670 C.3   262  TYR262      0.1605
    126  C        -40.0600    3.6720   91.0800 C.2   262  TYR262      0.2264
    127  O        -38.9370    4.0950   90.7840 O.2   262  TYR262     -0.2867
    128  CB       -39.1720    2.0750   92.7610 C.3   262  TYR262      0.0534
    129  CG       -39.0660    1.6540   94.2050 C.ar  262  TYR262     -0.0201
    130  CD1      -38.5190    2.5010   95.1590 C.ar  262  TYR262     -0.0009
    131  CD2      -39.4980    0.4000   94.6120 C.ar  262  TYR262     -0.0009
    132  CE1      -38.4150    2.1160   96.4790 C.ar  262  TYR262      0.0417
    133  CE2      -39.3990    0.0060   95.9280 C.ar  262  TYR262      0.0417
    134  CZ       -38.8580    0.8670   96.8570 C.ar  262  TYR262      0.1957
    135  OH       -38.7600    0.4770   98.1700 O.3   262  TYR262     -0.2866
    136  N        -37.7530    7.2140   90.6340 N.3   265  PHE265     -0.1227
    137  CA       -36.3260    7.3780   90.3750 C.3   265  PHE265      0.1736
    138  C        -35.7050    6.2040   89.6280 C.2   265  PHE265      0.2595
    139  O        -34.5090    6.2490   89.3210 O.2   265  PHE265     -0.2718
    140  CB       -35.5650    7.6160   91.6870 C.3   265  PHE265      0.0547
    141  CG       -35.6240    6.4640   92.6500 C.ar  265  PHE265     -0.0202
    142  CD1      -34.6200    5.5080   92.6710 C.ar  265  PHE265     -0.0042
    143  CD2      -36.6750    6.3460   93.5460 C.ar  265  PHE265     -0.0042
    144  CE1      -34.6690    4.4490   93.5610 C.ar  265  PHE265     -0.0003
    145  CE2      -36.7290    5.2910   94.4370 C.ar  265  PHE265     -0.0003
    146  CZ       -35.7240    4.3420   94.4440 C.ar  265  PHE265     -0.0000
    147  N        -36.4720    5.1560   89.3380 N.am  266  LEU266     -0.1980
    148  CA       -36.0310    4.0530   88.4880 C.3   266  LEU266      0.1596
    149  C        -36.9210    4.0540   87.2540 C.2   266  LEU266      0.2287
    150  O        -38.1150    3.7510   87.3460 O.2   266  LEU266     -0.2864
    151  CB       -36.1090    2.7170   89.2250 C.3   266  LEU266      0.0297
    152  CG       -35.3010    2.5910   90.5180 C.3   266  LEU266      0.0022
    153  CD1      -35.4470    1.1940   91.1060 C.3   266  LEU266      0.0001
    154  CD2      -33.8340    2.9340   90.2810 C.3   266  LEU266      0.0001
    155  N        -28.7860   -1.5030   88.6020 N.3   289  LEU289     -0.1245
    156  CA       -29.5000   -2.4750   89.4240 C.3   289  LEU289      0.1561
    157  C        -29.7700   -3.7570   88.6430 C.2   289  LEU289      0.2260
    158  O        -29.4410   -4.8630   89.1000 O.2   289  LEU289     -0.2867
    159  CB       -30.8020   -1.8630   89.9380 C.3   289  LEU289      0.0270
    160  CG       -31.6320   -2.7170   90.8940 C.3   289  LEU289      0.0019
    161  CD1      -30.7680   -3.2210   92.0380 C.3   289  LEU289      0.0001
    162  CD2      -32.8070   -1.9080   91.4180 C.3   289  LEU289      0.0001
@<TRIPOS>BOND
     1   149   150    2
     2   149   148    1
     3   148   151    1
     4   148   147    1
     5   155   156    1
     6   157   158    2
     7   157   156    1
     8   151   152    1
     9   139   138    2
    10   147   138   am
    11   156   159    1
    12   138   137    1
    13   159   160    1
    14   154   152    1
    15   137   136    1
    16   137   140    1
    17   152   153    1
    18   127   126    2
    19   160   162    1
    20   160   161    1
    21   126   125    1
    22    19    16    1
    23   140   141    1
    24     1     2    1
    25    15    16    1
    26    16    17    1
    27   125   124    1
    28   125   128    1
    29   141   142   ar
    30   141   143   ar
    31   142   144   ar
    32   128   129    1
    33     2     5    1
    34     2     3    1
    35    29    28    1
    36    17    18    2
    37    17    20   am
    38    24    25    1
    39   143   145   ar
    40   144   146   ar
    41     5     6    1
    42     3     4    2
    43     3     9   am
    44    25    28    1
    45    25    26    1
    46     9    10    1
    47    11    12    2
    48    11    10    1
    49   129   131   ar
    50   129   130   ar
    51     7     6    1
    52    20    21    1
    53    28    30    1
    54   145   146   ar
    55   131   133   ar
    56    92    91    1
    57     6     8    1
    58    10    13    1
    59   130   132   ar
    60    13    14    1
    61    26    27    2
    62    26    31   am
    63    21    22    1
    64    22    23    2
    65    91    88    1
    66   133   134   ar
    67   121   119   ar
    68   121   123   ar
    69    31    32    1
    70   119   118   ar
    71   102   103   ar
    72   102   100   ar
    73   132   134   ar
    74    87    88    1
    75   103   101   ar
    76   134   135    1
    77   123   122   ar
    78    33    32    1
    79    33    34    2
    80    88    89    1
    81    32    35    1
    82   116   115    2
    83   100    98   ar
    84    82    81    2
    85   114   117    1
    86   114   115    1
    87   114   113    1
    88   118   117    1
    89   118   120   ar
    90    86    84    1
    91   101    99   ar
    92   122   120   ar
    93    51    49   ar
    94    51    50   ar
    95    89    93   am
    96    89    90    2
    97    35    36    1
    98    49    47   ar
    99    93    94    1
   100    38    36   ar
   101    38    40   ar
   102    50    48   ar
   103    98    99   ar
   104    98    97    1
   105    81    80    1
   106    36    37   ar
   107    80    83    1
   108    80    79    1
   109    47    46   ar
   110    84    83    1
   111    84    85    1
   112    48    46   ar
   113    40    39   ar
   114    46    45    1
   115    97    94    1
   116    94    95    1
   117    37    39   ar
   118    45    42    1
   119   111   110    2
   120    95    96    2
   121   109   110    1
   122   109   112    1
   123   109   108    1
   124    42    43    1
   125    42    41    1
   126   108   106   am
   127    59    57    1
   128    57    56    1
   129    44    43    2
   130    43    52   am
   131    71    70    2
   132    52    53    1
   133   104   105    1
   134   106   105    1
   135   106   107    2
   136    78    76    1
   137    70    69    1
   138    53    56    1
   139    53    54    1
   140    56    58    1
   141    69    72    1
   142    69    68    1
   143    72    73    1
   144    75    76    2
   145    75    74    1
   146    76    77    1
   147    54    55    2
   148    54    60   am
   149    73    74    1
   150    60    61    1
   151    62    61    1
   152    62    63    2
   153    61    64    1
   154    64    65    1
   155    65    66    1
   156    65    67    1
