@<TRIPOS>MOLECULE
tmp/5l8rB03.pdb
 145 143 0 0 0
SMALL
GASTEIGER

@<TRIPOS>ATOM
      1  N         30.6100    5.1210  108.8030 N.3    44  TRP44      -0.1241
      2  CA        30.2180    6.4570  108.3670 C.3    44  TRP44       0.1605
      3  C         29.0300    6.9800  109.1630 C.2    44  TRP44       0.2264
      4  O         29.0620    8.0930  109.7000 O.2    44  TRP44      -0.2867
      5  CB        29.8800    6.4290  106.8810 C.3    44  TRP44       0.0550
      6  CG        29.3890    7.7340  106.3940 C.ar   44  TRP44       0.0003
      7  CD1       28.0950    8.0920  106.1500 C.ar   44  TRP44       0.0946
      8  CD2       30.1870    8.8790  106.1100 C.ar   44  TRP44       0.0152
      9  NE1       28.0420    9.3960  105.7180 N.ar   44  TRP44      -0.2442
     10  CE2       29.3150    9.9000  105.6850 C.ar   44  TRP44       0.0810
     11  CE3       31.5570    9.1410  106.1680 C.ar   44  TRP44       0.0012
     12  CZ2       29.7700   11.1590  105.3220 C.ar   44  TRP44       0.0191
     13  CZ3       32.0040   10.3840  105.8090 C.ar   44  TRP44       0.0001
     14  CH2       31.1140   11.3820  105.3920 C.ar   44  TRP44       0.0015
     15  N         29.6820    8.1220  112.7220 N.3    47  GLN47      -0.1231
     16  CA        30.1540    9.5050  112.7480 C.3    47  GLN47       0.1698
     17  C         29.0100   10.4850  112.4970 C.2    47  GLN47       0.2592
     18  O         28.8830   11.5010  113.1990 O.2    47  GLN47      -0.2718
     19  CB        31.2730    9.7030  111.7280 C.3    47  GLN47       0.0381
     20  CG        32.5230    8.9110  112.0520 C.3    47  GLN47       0.0905
     21  CD        32.9390    9.0590  113.5020 C.2    47  GLN47       0.2608
     22  OE1       32.9700   10.1650  114.0410 O.2    47  GLN47      -0.2717
     23  NE2       33.2540    7.9400  114.1440 N.am   47  GLN47      -0.0878
     24  N         28.1530   10.1830  111.5160 N.am   48  ALA48      -0.1980
     25  CA        27.0210   11.0540  111.2120 C.3    48  ALA48       0.1597
     26  C         26.1350   11.2470  112.4350 C.2    48  ALA48       0.2287
     27  O         25.9620   12.3700  112.9170 O.2    48  ALA48      -0.2864
     28  CB        26.2170   10.4800  110.0450 C.3    48  ALA48       0.0319
     29  N         27.7020   13.5160  115.0310 N.3    51  VAL51      -0.1231
     30  CA        27.7450   14.9460  114.7280 C.3    51  VAL51       0.1692
     31  C         26.3430   15.5520  114.7750 C.2    51  VAL51       0.2592
     32  O         26.1280   16.6090  115.3800 O.2    51  VAL51      -0.2718
     33  CB        28.4290   15.1820  113.3690 C.3    51  VAL51       0.0266
     34  CG1       28.1900   16.5920  112.8890 C.3    51  VAL51       0.0020
     35  CG2       29.9200   14.9250  113.4860 C.3    51  VAL51       0.0020
     36  N         25.3710   14.8930  114.1330 N.am   52  HIS52      -0.1976
     37  CA        23.9760   15.3180  114.2340 C.3    52  HIS52       0.1656
     38  C         23.5330   15.4350  115.6840 C.2    52  HIS52       0.2291
     39  O         22.8120   16.3690  116.0510 O.2    52  HIS52      -0.2864
     40  CB        23.0610   14.3300  113.5120 C.3    52  HIS52       0.0771
     41  CG        23.2260   14.3130  112.0280 C.ar   52  HIS52       0.0820
     42  ND1       22.5180   15.1490  111.1930 N.ar   52  HIS52      -0.2267
     43  CD2       23.9970   13.5440  111.2250 C.ar   52  HIS52       0.1154
     44  CE1       22.8570   14.9030  109.9410 C.ar   52  HIS52       0.1986
     45  NE2       23.7540   13.9360  109.9320 N.ar   52  HIS52      -0.2212
     46  N         25.2870   18.6740  117.2680 N.3    55  TRP55      -0.1241
     47  CA        24.6440   19.8700  116.7290 C.3    55  TRP55       0.1605
     48  C         23.2240   20.0170  117.2510 C.2    55  TRP55       0.2264
     49  O         22.7790   21.1280  117.5550 O.2    55  TRP55      -0.2867
     50  CB        24.6240   19.8310  115.2040 C.3    55  TRP55       0.0550
     51  CG        25.9220   20.1530  114.5540 C.ar   55  TRP55       0.0003
     52  CD1       26.5850   19.3930  113.6400 C.ar   55  TRP55       0.0946
     53  CD2       26.7170   21.3280  114.7520 C.ar   55  TRP55       0.0152
     54  NE1       27.7480   20.0140  113.2570 N.ar   55  TRP55      -0.2442
     55  CE2       27.8510   21.2070  113.9240 C.ar   55  TRP55       0.0810
     56  CE3       26.5830   22.4700  115.5490 C.ar   55  TRP55       0.0012
     57  CZ2       28.8440   22.1800  113.8730 C.ar   55  TRP55       0.0191
     58  CZ3       27.5690   23.4330  115.4960 C.ar   55  TRP55       0.0001
     59  CH2       28.6850   23.2830  114.6640 C.ar   55  TRP55       0.0015
     60  N         28.1440   34.3050  106.9580 N.3    96  PHE96      -0.1241
     61  CA        28.0190   32.9320  106.5090 C.3    96  PHE96       0.1605
     62  C         29.2820   32.4750  105.8030 C.2    96  PHE96       0.2264
     63  O         29.6850   31.3160  105.9360 O.2    96  PHE96      -0.2867
     64  CB        26.8080   32.8030  105.5890 C.3    96  PHE96       0.0534
     65  CG        26.5400   31.4100  105.1740 C.ar   96  PHE96      -0.0203
     66  CD1       26.1820   30.4690  106.1190 C.ar   96  PHE96      -0.0042
     67  CD2       26.6690   31.0260  103.8540 C.ar   96  PHE96      -0.0042
     68  CE1       25.9520   29.1680  105.7580 C.ar   96  PHE96      -0.0003
     69  CE2       26.4310   29.7220  103.4810 C.ar   96  PHE96      -0.0003
     70  CZ        26.0730   28.7890  104.4330 C.ar   96  PHE96      -0.0000
     71  N         31.7510   31.7520  108.3240 N.3    99  GLU99      -0.1231
     72  CA        31.3770   30.4550  108.8740 C.3    99  GLU99       0.1699
     73  C         31.8440   29.3110  107.9800 C.2    99  GLU99       0.2592
     74  O         32.3930   28.3190  108.4690 O.2    99  GLU99      -0.2718
     75  CB        29.8620   30.4180  109.0690 C.3    99  GLU99       0.0402
     76  CG        29.2980   29.0850  109.4940 C.3    99  GLU99       0.1161
     77  CD        27.7990   29.1480  109.6950 C.2    99  GLU99       0.3649
     78  OE1       27.2380   30.2650  109.6470 O.co2  99  GLU99      -0.2457
     79  OE2       27.1810   28.0830  109.9000 O.co2  99  GLU99      -0.2457
     80  N         31.6450   29.4350  106.6670 N.am  100  LEU100     -0.1980
     81  CA        32.0550   28.3810  105.7470 C.3   100  LEU100      0.1596
     82  C         33.5660   28.2110  105.7240 C.2   100  LEU100      0.2287
     83  O         34.0570   27.0990  105.4960 O.2   100  LEU100     -0.2864
     84  CB        31.5430   28.6730  104.3360 C.3   100  LEU100      0.0297
     85  CG        30.0370   28.5650  104.0990 C.3   100  LEU100      0.0022
     86  CD1       29.7260   28.6070  102.6100 C.3   100  LEU100      0.0001
     87  CD2       29.4890   27.2980  104.7320 C.3   100  LEU100      0.0001
     88  N         34.5050   26.8640  109.7870 N.3   103  ILE103     -0.1231
     89  CA        33.8600   25.5560  109.8680 C.3   103  ILE103      0.1692
     90  C         34.3740   24.6370  108.7700 C.2   103  ILE103      0.2592
     91  O         34.5050   23.4260  108.9760 O.2   103  ILE103     -0.2718
     92  CB        32.3270   25.7140  109.8060 C.3   103  ILE103      0.0266
     93  CG1       31.8230   26.5370  110.9900 C.3   103  ILE103      0.0019
     94  CG2       31.6410   24.3570  109.7910 C.3   103  ILE103      0.0020
     95  CD1       31.9900   25.8520  112.3170 C.3   103  ILE103      0.0001
     96  N         34.6790   25.1880  107.5930 N.am  104  GLY104     -0.1957
     97  CA        35.2690   24.3780  106.5400 C.3   104  GLY104      0.1869
     98  C         36.6130   23.7970  106.9360 C.2   104  GLY104      0.2309
     99  O         36.9350   22.6590  106.5870 O.2   104  GLY104     -0.2863
    100  N         35.7330   20.9840  109.7770 N.3   107  GLU107     -0.1231
    101  CA        35.1240   19.8360  109.1170 C.3   107  GLU107      0.1699
    102  C         36.0890   19.1620  108.1510 C.2   107  GLU107      0.2592
    103  O         36.0190   17.9440  107.9570 O.2   107  GLU107     -0.2718
    104  CB        33.8570   20.2740  108.3810 C.3   107  GLU107      0.0402
    105  CG        32.6940   20.6290  109.2930 C.3   107  GLU107      0.1161
    106  CD        32.0620   19.4100  109.9380 C.2   107  GLU107      0.3649
    107  OE1       31.7650   18.4450  109.2070 O.co2 107  GLU107     -0.2457
    108  OE2       31.8710   19.4080  111.1750 O.co2 107  GLU107     -0.2457
    109  N         36.9840   19.9320  107.5290 N.am  108  GLY108     -0.1957
    110  CA        37.9600   19.3310  106.6340 C.3   108  GLY108      0.1869
    111  C         38.9370   18.4310  107.3650 C.2   108  GLY108      0.2309
    112  O         39.2580   17.3320  106.8970 O.2   108  GLY108     -0.2863
    113  N         38.3930   17.0060  110.3910 N.3   110  ARG110     -0.1231
    114  CA        37.5930   15.8600  110.8250 C.3   110  ARG110      0.1694
    115  C         37.4070   14.8640  109.6850 C.2   110  ARG110      0.2592
    116  O         37.4680   13.6420  109.8850 O.2   110  ARG110     -0.2718
    117  CB        36.2400   16.3450  111.3470 C.3   110  ARG110      0.0321
    118  CG        35.3500   15.2540  111.9140 C.3   110  ARG110      0.0489
    119  CD        34.0530   15.8370  112.4530 C.3   110  ARG110      0.2205
    120  NE        33.2000   16.3390  111.3810 N.pl3 110  ARG110     -0.0865
    121  CZ        32.2720   15.6090  110.7730 C.cat 110  ARG110      0.5346
    122  NH1       32.0810   14.3480  111.1370 N.pl3 110  ARG110      0.1354
    123  NH2       31.5370   16.1350  109.8000 N.pl3 110  ARG110      0.1354
    124  N         37.1920   15.3880  108.4790 N.am  111  TRP111     -0.1976
    125  CA        37.0660   14.5820  107.2700 C.3   111  TRP111      0.1640
    126  C         38.3170   13.7440  107.0340 C.2   111  TRP111      0.2290
    127  O         38.2400   12.5180  106.8510 O.2   111  TRP111     -0.2864
    128  CB        36.7980   15.5410  106.1110 C.3   111  TRP111      0.0576
    129  CG        36.6610   14.9890  104.7430 C.ar  111  TRP111      0.0006
    130  CD1       37.4250   15.3100  103.6670 C.ar  111  TRP111      0.0946
    131  CD2       35.6690   14.0740  104.2720 C.ar  111  TRP111      0.0152
    132  NE1       36.9890   14.6380  102.5560 N.ar  111  TRP111     -0.2442
    133  CE2       35.9110   13.8690  102.9020 C.ar  111  TRP111      0.0810
    134  CE3       34.6170   13.3870  104.8780 C.ar  111  TRP111      0.0012
    135  CZ2       35.1360   13.0150  102.1290 C.ar  111  TRP111      0.0191
    136  CZ3       33.8480   12.5530  104.1090 C.ar  111  TRP111      0.0001
    137  CH2       34.1110   12.3690  102.7520 C.ar  111  TRP111      0.0015
    138  N         38.3020   10.8340  109.4810 N.3   114  ILE114     -0.1245
    139  CA        37.4530    9.6930  109.1410 C.3   114  ILE114      0.1561
    140  C         38.0910    8.8710  108.0270 C.2   114  ILE114      0.2260
    141  O         38.1680    7.6380  108.1070 O.2   114  ILE114     -0.2867
    142  CB        36.0380   10.1540  108.7510 C.3   114  ILE114      0.0252
    143  CG1       35.3290   10.7940  109.9420 C.3   114  ILE114      0.0019
    144  CG2       35.2230    8.9750  108.2420 C.3   114  ILE114      0.0019
    145  CD1       33.9350   11.2880  109.6120 C.3   114  ILE114      0.0001
@<TRIPOS>BOND
     1   135   137   ar
     2   135   133   ar
     3   132   133   ar
     4   132   130   ar
     5    86    85    1
     6   137   136   ar
     7   133   131   ar
     8    69    67   ar
     9    69    70   ar
    10   130   129   ar
    11    67    65   ar
    12    85    84    1
    13    85    87    1
    14   136   134   ar
    15   131   129   ar
    16   131   134   ar
    17    84    81    1
    18    70    68   ar
    19   129   128    1
    20    65    64    1
    21    65    66   ar
    22    12    14   ar
    23    12    10   ar
    24    14    13   ar
    25    83    82    2
    26    64    61    1
    27    10     9   ar
    28    10     8   ar
    29     9     7   ar
    30    82    81    1
    31    81    80    1
    32    68    66   ar
    33    62    63    2
    34    62    61    1
    35    13    11   ar
    36     8    11   ar
    37     8     6   ar
    38   128   125    1
    39     7     6   ar
    40     6     5    1
    41    61    60    1
    42    97    98    1
    43    97    96    1
    44    99    98    2
    45   110   111    1
    46   110   109    1
    47    80    73   am
    48   127   126    2
    49     5     2    1
    50   112   111    2
    51   126   125    1
    52   125   124    1
    53   109   102   am
    54    96    90   am
    55   103   102    2
    56    73    74    2
    57    73    72    1
    58   140   141    2
    59   140   139    1
    60   102   101    1
    61   144   142    1
    62    71    72    1
    63     2     1    1
    64     2     3    1
    65   104   101    1
    66   104   105    1
    67   124   115   am
    68   142   139    1
    69   142   143    1
    70    90    91    2
    71    90    89    1
    72    72    75    1
    73    75    76    1
    74   101   100    1
    75   139   138    1
    76     3     4    2
    77   107   106   ar
    78   105   106    1
    79    76    77    1
    80   145   143    1
    81    78    77   ar
    82   115   116    2
    83   115   114    1
    84    77    79   ar
    85    88    89    1
    86    94    92    1
    87   123   121    1
    88    92    89    1
    89    92    93    1
    90    45    44   ar
    91    45    43   ar
    92   106   108   ar
    93    44    42   ar
    94    28    25    1
    95   113   114    1
    96   121   122    1
    97   121   120    2
    98   114   117    1
    99    93    95    1
   100    42    41   ar
   101    25    24    1
   102    25    26    1
   103    43    41   ar
   104   117   118    1
   105   120   119    1
   106    24    17   am
   107    19    20    1
   108    19    16    1
   109   118   119    1
   110    41    40    1
   111    20    21    1
   112    26    27    2
   113    17    16    1
   114    17    18    2
   115    15    16    1
   116    34    33    1
   117    54    52   ar
   118    54    55   ar
   119    33    35    1
   120    33    30    1
   121    21    22    2
   122    21    23   am
   123    40    37    1
   124    52    51   ar
   125    57    55   ar
   126    57    59   ar
   127    55    53   ar
   128    36    37    1
   129    36    31   am
   130    37    38    1
   131    51    53   ar
   132    51    50    1
   133    59    58   ar
   134    30    31    1
   135    30    29    1
   136    53    56   ar
   137    31    32    2
   138    50    47    1
   139    58    56   ar
   140    38    39    2
   141    47    48    1
   142    47    46    1
   143    48    49    2
