@<TRIPOS>MOLECULE
tmp/5l8rE27.pdb
 124 122 0 0 0
SMALL
GASTEIGER

@<TRIPOS>ATOM
      1  N         -9.0550  -22.1680   54.5010 N.3   427  ILE427     -0.1245
      2  CA        -9.4600  -20.9700   55.2420 C.3   427  ILE427      0.1561
      3  C         -8.7430  -19.7340   54.7020 C.2   427  ILE427      0.2260
      4  O         -9.3750  -18.7280   54.3420 O.2   427  ILE427     -0.2867
      5  CB        -9.2020  -21.1510   56.7490 C.3   427  ILE427      0.0252
      6  CG1      -10.0960  -22.2550   57.3210 C.3   427  ILE427      0.0019
      7  CG2       -9.4350  -19.8370   57.4860 C.3   427  ILE427      0.0019
      8  CD1       -9.8330  -22.5540   58.7830 C.3   427  ILE427      0.0001
      9  N         -9.6620  -18.6440   51.0520 N.3   430  HIS430     -0.1226
     10  CA       -10.9560  -17.9740   50.9470 C.3   430  HIS430      0.1752
     11  C        -10.9190  -16.5700   51.5390 C.2   430  HIS430      0.2595
     12  O        -11.4690  -15.6280   50.9490 O.2   430  HIS430     -0.2718
     13  CB       -12.0330  -18.8150   51.6180 C.3   430  HIS430      0.0759
     14  CG       -12.3100  -20.0900   50.8960 C.ar  430  HIS430      0.0818
     15  ND1      -12.9640  -20.1250   49.6850 N.ar  430  HIS430     -0.2268
     16  CD2      -11.9960  -21.3710   51.1940 C.ar  430  HIS430      0.1154
     17  CE1      -13.0400  -21.3750   49.2690 C.ar  430  HIS430      0.1986
     18  NE2      -12.4700  -22.1520   50.1700 N.ar  430  HIS430     -0.2212
     19  N        -10.2840  -16.4090   52.7080 N.am  431  LEU431     -0.1980
     20  CA       -10.1290  -15.0710   53.2720 C.3   431  LEU431      0.1596
     21  C         -9.3920  -14.1550   52.3020 C.2   431  LEU431      0.2287
     22  O         -9.7870  -12.9980   52.1030 O.2   431  LEU431     -0.2864
     23  CB        -9.3980  -15.1460   54.6120 C.3   431  LEU431      0.0297
     24  CG        -9.4530  -13.9010   55.4970 C.3   431  LEU431      0.0022
     25  CD1      -10.8550  -13.3140   55.5080 C.3   431  LEU431      0.0001
     26  CD2       -9.0260  -14.2550   56.9080 C.3   431  LEU431      0.0001
     27  N         -9.3580  -14.3420   48.9920 N.3   433  TRP433     -0.1227
     28  CA       -10.2920  -13.9450   47.9410 C.3   433  TRP433      0.1737
     29  C        -11.2470  -12.8520   48.4180 C.2   433  TRP433      0.2595
     30  O        -11.4330  -11.8360   47.7350 O.2   433  TRP433     -0.2718
     31  CB       -11.0850  -15.1490   47.4340 C.3   433  TRP433      0.0564
     32  CG       -12.2210  -14.7030   46.5820 C.ar  433  TRP433      0.0003
     33  CD1      -12.1460  -14.2140   45.3150 C.ar  433  TRP433      0.0946
     34  CD2      -13.6040  -14.6600   46.9470 C.ar  433  TRP433      0.0152
     35  NE1      -13.3970  -13.8790   44.8570 N.ar  433  TRP433     -0.2442
     36  CE2      -14.3120  -14.1450   45.8410 C.ar  433  TRP433      0.0810
     37  CE3      -14.3150  -15.0210   48.0940 C.ar  433  TRP433      0.0012
     38  CZ2      -15.6960  -13.9780   45.8510 C.ar  433  TRP433      0.0191
     39  CZ3      -15.6870  -14.8550   48.1040 C.ar  433  TRP433      0.0001
     40  CH2      -16.3650  -14.3360   46.9890 C.ar  433  TRP433      0.0015
     41  N        -11.8680  -13.0460   49.5880 N.am  434  VAL434     -0.1980
     42  CA       -12.8130  -12.0530   50.0990 C.3   434  VAL434      0.1595
     43  C        -12.1380  -10.6940   50.2390 C.2   434  VAL434      0.2287
     44  O        -12.7410   -9.6500   49.9650 O.2   434  VAL434     -0.2864
     45  CB       -13.4190  -12.5240   51.4340 C.3   434  VAL434      0.0276
     46  CG1      -14.2950  -11.4410   52.0400 C.3   434  VAL434      0.0022
     47  CG2      -14.2350  -13.7590   51.2210 C.3   434  VAL434      0.0022
     48  N        -11.9010   -9.1520   46.6620 N.3   437  PHE437     -0.1227
     49  CA       -13.2360   -8.7080   46.2690 C.3   437  PHE437      0.1736
     50  C        -13.6460   -7.4360   47.0030 C.2   437  PHE437      0.2595
     51  O        -14.2170   -6.5170   46.4020 O.2   437  PHE437     -0.2718
     52  CB       -14.2450   -9.8310   46.5290 C.3   437  PHE437      0.0547
     53  CG       -15.6790   -9.3980   46.4330 C.ar  437  PHE437     -0.0202
     54  CD1      -16.2840   -9.2320   45.1980 C.ar  437  PHE437     -0.0042
     55  CD2      -16.4260   -9.1640   47.5800 C.ar  437  PHE437     -0.0042
     56  CE1      -17.6090   -8.8330   45.1030 C.ar  437  PHE437     -0.0003
     57  CE2      -17.7510   -8.7660   47.4940 C.ar  437  PHE437     -0.0003
     58  CZ       -18.3430   -8.6000   46.2530 C.ar  437  PHE437     -0.0000
     59  N        -13.3540   -7.3620   48.3040 N.am  438  LEU438     -0.1980
     60  CA       -13.7440   -6.1920   49.0850 C.3   438  LEU438      0.1596
     61  C        -12.9080   -4.9720   48.7190 C.2   438  LEU438      0.2287
     62  O        -13.4340   -3.8550   48.6520 O.2   438  LEU438     -0.2864
     63  CB       -13.6360   -6.5010   50.5770 C.3   438  LEU438      0.0297
     64  CG       -14.7700   -7.3850   51.0960 C.3   438  LEU438      0.0022
     65  CD1      -14.5500   -7.7560   52.5520 C.3   438  LEU438      0.0001
     66  CD2      -16.1110   -6.6870   50.9070 C.3   438  LEU438      0.0001
     67  N        -18.5030    2.1910   54.8100 N.3   527  HIS527     -0.1241
     68  CA       -18.6870    0.9820   55.6050 C.3   527  HIS527      0.1621
     69  C        -18.0490   -0.2220   54.9310 C.2   527  HIS527      0.2264
     70  O        -17.4470   -1.0740   55.6010 O.2   527  HIS527     -0.2867
     71  CB       -20.1700    0.7290   55.8560 C.3   527  HIS527      0.0745
     72  CG       -20.7250    1.5140   57.0000 C.ar  527  HIS527      0.0817
     73  ND1      -21.4990    2.6400   56.8230 N.ar  527  HIS527     -0.2268
     74  CD2      -20.6100    1.3410   58.3370 C.ar  527  HIS527      0.1154
     75  CE1      -21.8460    3.1200   58.0020 C.ar  527  HIS527      0.1986
     76  NE2      -21.3150    2.3530   58.9370 N.ar  527  HIS527     -0.2212
     77  N        -14.5100   -0.1650   55.7610 N.3   530  HIS530     -0.1226
     78  CA       -14.2300   -0.7340   57.0770 C.3   530  HIS530      0.1752
     79  C        -14.2360   -2.2570   57.0290 C.2   530  HIS530      0.2595
     80  O        -13.3370   -2.9120   57.5760 O.2   530  HIS530     -0.2718
     81  CB       -15.2410   -0.2110   58.0970 C.3   530  HIS530      0.0759
     82  CG       -15.1450    1.2650   58.3240 C.ar  530  HIS530      0.0818
     83  ND1      -16.2450    2.0560   58.5780 N.ar  530  HIS530     -0.2268
     84  CD2      -14.0760    2.0950   58.3210 C.ar  530  HIS530      0.1154
     85  CE1      -15.8560    3.3100   58.7250 C.ar  530  HIS530      0.1986
     86  NE2      -14.5440    3.3600   58.5770 N.ar  530  HIS530     -0.2212
     87  N        -15.2450   -2.8370   56.3720 N.am  531  ALA531     -0.1980
     88  CA       -15.2560   -4.2770   56.1390 C.3   531  ALA531      0.1597
     89  C        -13.9400   -4.7340   55.5210 C.2   531  ALA531      0.2287
     90  O        -13.2660   -5.6240   56.0500 O.2   531  ALA531     -0.2864
     91  CB       -16.4340   -4.6530   55.2410 C.3   531  ALA531      0.0319
     92  N        -10.8120   -4.4210   57.9360 N.3   534  ILE534     -0.1231
     93  CA       -10.8820   -5.4270   58.9930 C.3   534  ILE534      0.1692
     94  C        -10.5550   -6.8070   58.4370 C.2   534  ILE534      0.2592
     95  O         -9.7830   -7.5660   59.0340 O.2   534  ILE534     -0.2718
     96  CB       -12.2620   -5.4050   59.6730 C.3   534  ILE534      0.0266
     97  CG1      -12.4960   -4.0570   60.3580 C.3   534  ILE534      0.0019
     98  CG2      -12.3700   -6.5430   60.6800 C.3   534  ILE534      0.0020
     99  CD1      -13.8620   -3.9200   60.9820 C.3   534  ILE534      0.0001
    100  N        -11.1150   -7.1470   57.2740 N.am  535  HIS535     -0.1976
    101  CA       -10.8620   -8.4650   56.7020 C.3   535  HIS535      0.1656
    102  C         -9.3880   -8.6690   56.3820 C.2   535  HIS535      0.2291
    103  O         -8.8690   -9.7810   56.5200 O.2   535  HIS535     -0.2864
    104  CB       -11.7150   -8.6700   55.4540 C.3   535  HIS535      0.0771
    105  CG       -13.1330   -9.0160   55.7600 C.ar  535  HIS535      0.0820
    106  ND1      -13.5660  -10.3160   55.8920 N.ar  535  HIS535     -0.2267
    107  CD2      -14.2140   -8.2330   55.9840 C.ar  535  HIS535      0.1154
    108  CE1      -14.8560  -10.3170   56.1700 C.ar  535  HIS535      0.1986
    109  NE2      -15.2740   -9.0670   56.2350 N.ar  535  HIS535     -0.2212
    110  N         -7.5510   -9.2920   59.7100 N.3   538  VAL538     -0.1245
    111  CA        -7.8370  -10.6640   60.1160 C.3   538  VAL538      0.1561
    112  C         -7.0470  -11.6470   59.2650 C.2   538  VAL538      0.2260
    113  O         -6.5330  -12.6500   59.7700 O.2   538  VAL538     -0.2867
    114  CB        -9.3500  -10.9450   60.0410 C.3   538  VAL538      0.0252
    115  CG1       -9.6350  -12.3950   60.4040 C.3   538  VAL538      0.0019
    116  CG2      -10.1100  -10.0090   60.9590 C.3   538  VAL538      0.0019
    117  N         -4.6360  -14.0990   61.3160 N.3   542  LEU542     -0.1245
    118  CA        -5.0530  -15.4970   61.2980 C.3   542  LEU542      0.1561
    119  C         -4.0790  -16.3510   60.4980 C.2   542  LEU542      0.2260
    120  O         -3.7370  -17.4690   60.9080 O.2   542  LEU542     -0.2867
    121  CB        -6.4660  -15.6130   60.7250 C.3   542  LEU542      0.0270
    122  CG        -7.1000  -17.0050   60.6720 C.3   542  LEU542      0.0019
    123  CD1       -7.3220  -17.5560   62.0720 C.3   542  LEU542      0.0001
    124  CD2       -8.4040  -16.9570   59.9000 C.3   542  LEU542      0.0001
@<TRIPOS>BOND
     1    35    33   ar
     2    35    36   ar
     3    56    54   ar
     4    56    58   ar
     5    54    53   ar
     6    33    32   ar
     7    36    38   ar
     8    36    34   ar
     9    38    40   ar
    10    58    57   ar
    11    49    52    1
    12    49    48    1
    13    49    50    1
    14    51    50    2
    15    53    52    1
    16    53    55   ar
    17    32    34   ar
    18    32    31    1
    19    34    37   ar
    20    40    39   ar
    21    50    59   am
    22    31    28    1
    23    57    55   ar
    24    30    29    2
    25    28    29    1
    26    28    27    1
    27    37    39   ar
    28    59    60    1
    29    29    41   am
    30    62    61    2
    31    61    60    1
    32    60    63    1
    33    17    15   ar
    34    17    18   ar
    35    41    42    1
    36    15    14   ar
    37    44    43    2
    38    42    43    1
    39    42    45    1
    40    18    16   ar
    41    63    64    1
    42    14    16   ar
    43    14    13    1
    44    66    64    1
    45    10     9    1
    46    10    11    1
    47    10    13    1
    48    12    11    2
    49    64    65    1
    50    47    45    1
    51    45    46    1
    52    11    19   am
    53    22    21    2
    54    21    20    1
    55    19    20    1
    56    20    23    1
    57     4     3    2
    58     1     2    1
    59    23    24    1
    60     3     2    1
    61    67    68    1
    62    69    70    2
    63    69    68    1
    64    91    88    1
    65     2     5    1
    66   104   105    1
    67   104   101    1
    68    24    25    1
    69    24    26    1
    70    89    90    2
    71    89    88    1
    72    68    71    1
    73   105   106   ar
    74   105   107   ar
    75    77    78    1
    76    71    72    1
    77   106   108   ar
    78   107   109   ar
    79    88    87    1
    80   108   109   ar
    81    87    79   am
    82   102   103    2
    83   102   101    1
    84   101   100    1
    85     5     6    1
    86     5     7    1
    87    73    72   ar
    88    73    75   ar
    89    72    74   ar
    90    79    78    1
    91    79    80    2
    92    78    81    1
    93   100    94   am
    94     6     8    1
    95    92    93    1
    96    75    76   ar
    97    81    82    1
    98    84    82   ar
    99    84    86   ar
   100    82    83   ar
   101    74    76   ar
   102    94    93    1
   103    94    95    2
   104    86    85   ar
   105    83    85   ar
   106    93    96    1
   107   112   113    2
   108   112   111    1
   109    96    97    1
   110    96    98    1
   111   110   111    1
   112   124   122    1
   113   114   111    1
   114   114   115    1
   115   114   116    1
   116    97    99    1
   117   119   120    2
   118   119   118    1
   119   122   121    1
   120   122   123    1
   121   121   118    1
   122   118   117    1
