@<TRIPOS>MOLECULE
tmp/5l8rF26.pdb
 113 113 0 0 0
SMALL
GASTEIGER

@<TRIPOS>ATOM
      1  N         20.6060   32.7360   34.0820 N.3   354  LEU354     -0.1245
      2  CA        21.0170   33.3640   32.8260 C.3   354  LEU354      0.1561
      3  C         20.2310   32.7460   31.6710 C.2   354  LEU354      0.2260
      4  O         20.7770   31.9570   30.8860 O.2   354  LEU354     -0.2867
      5  CB        22.5210   33.2100   32.6040 C.3   354  LEU354      0.0270
      6  CG        23.4380   33.8620   33.6420 C.3   354  LEU354      0.0019
      7  CD1       24.8890   33.4710   33.4060 C.3   354  LEU354      0.0001
      8  CD2       23.2880   35.3810   33.6260 C.3   354  LEU354      0.0001
      9  N         28.8090   38.0180   50.5830 N.3   461  TRP461     -0.1227
     10  CA        30.0710   38.6430   50.2160 C.3   461  TRP461      0.1737
     11  C         30.5050   38.2380   48.8130 C.2   461  TRP461      0.2595
     12  O         31.1440   39.0300   48.1130 O.2   461  TRP461     -0.2718
     13  CB        31.1310   38.2700   51.2500 C.3   461  TRP461      0.0564
     14  CG        32.4390   38.9300   51.0630 C.ar  461  TRP461      0.0003
     15  CD1       32.8260   40.1340   51.5600 C.ar  461  TRP461      0.0946
     16  CD2       33.5580   38.4120   50.3410 C.ar  461  TRP461      0.0152
     17  NE1       34.1180   40.4050   51.1880 N.ar  461  TRP461     -0.2442
     18  CE2       34.5890   39.3630   50.4350 C.ar  461  TRP461      0.0810
     19  CE3       33.7850   37.2390   49.6200 C.ar  461  TRP461      0.0012
     20  CZ2       35.8320   39.1780   49.8370 C.ar  461  TRP461      0.0191
     21  CZ3       35.0170   37.0550   49.0270 C.ar  461  TRP461      0.0001
     22  CH2       36.0270   38.0200   49.1390 C.ar  461  TRP461      0.0015
     23  N         30.1570   37.0230   48.3790 N.am  462  ILE462     -0.1980
     24  CA        30.4550   36.6230   47.0050 C.3   462  ILE462      0.1595
     25  C         29.5700   37.3820   46.0190 C.2   462  ILE462      0.2287
     26  O         30.0370   37.8380   44.9690 O.2   462  ILE462     -0.2864
     27  CB        30.3130   35.0980   46.8480 C.3   462  ILE462      0.0276
     28  CG1       31.4630   34.3800   47.5590 C.3   462  ILE462      0.0022
     29  CG2       30.2840   34.7060   45.3880 C.3   462  ILE462      0.0022
     30  CD1       31.5160   32.8930   47.2880 C.3   462  ILE462      0.0001
     31  N         30.9840   40.5650   45.6650 N.3   465  ALA465     -0.1231
     32  CA        32.1350   40.4090   44.7840 C.3   465  ALA465      0.1694
     33  C         31.7300   40.4290   43.3160 C.2   465  ALA465      0.2592
     34  O         32.5230   40.8310   42.4600 O.2   465  ALA465     -0.2718
     35  CB        32.8680   39.1120   45.1200 C.3   465  ALA465      0.0304
     36  N         30.5080   40.0020   43.0050 N.am  466  HIS466     -0.1976
     37  CA        29.9910   40.0270   41.6430 C.3   466  HIS466      0.1656
     38  C         29.4350   41.3820   41.2420 C.2   466  HIS466      0.2291
     39  O         29.0240   41.5410   40.0880 O.2   466  HIS466     -0.2864
     40  CB        28.8890   38.9860   41.4760 C.3   466  HIS466      0.0771
     41  CG        29.3330   37.5850   41.7410 C.ar  466  HIS466      0.0820
     42  ND1       30.5890   37.1260   41.4120 N.ar  466  HIS466     -0.2267
     43  CD2       28.6850   36.5400   42.3060 C.ar  466  HIS466      0.1154
     44  CE1       30.6930   35.8560   41.7570 C.ar  466  HIS466      0.1986
     45  NE2       29.5520   35.4750   42.2980 N.ar  466  HIS466     -0.2212
     46  N         35.6230   43.8010   45.4530 N.3   476  LEU476     -0.1231
     47  CA        35.8570   43.8990   44.0160 C.3   476  LEU476      0.1693
     48  C         34.5470   43.8130   43.2420 C.2   476  LEU476      0.2591
     49  O         33.6430   43.0600   43.6090 O.2   476  LEU476     -0.2718
     50  CB        36.8250   42.8020   43.5610 C.3   476  LEU476      0.0284
     51  CG        36.9010   41.5420   44.4160 C.3   476  LEU476      0.0019
     52  CD1       35.7370   40.6500   44.1080 C.3   476  LEU476      0.0001
     53  CD2       38.2090   40.8150   44.1790 C.3   476  LEU476      0.0001
     54  N         34.4370   44.6420   42.1970 N.am  477  LEU477     -0.1980
     55  CA        33.2340   44.8050   41.3740 C.3   477  LEU477      0.1596
     56  C         32.1070   45.4980   42.1380 C.2   477  LEU477      0.2287
     57  O         31.2460   46.1390   41.5290 O.2   477  LEU477     -0.2864
     58  CB        32.7500   43.4630   40.8100 C.3   477  LEU477      0.0297
     59  CG        33.2560   43.0460   39.4240 C.3   477  LEU477      0.0022
     60  CD1       34.7770   43.0230   39.3630 C.3   477  LEU477      0.0001
     61  CD2       32.6920   41.6870   39.0370 C.3   477  LEU477      0.0001
     62  N         39.9000   44.7650   39.4830 N.3   484  ALA484     -0.1245
     63  CA        38.9790   43.8860   38.7720 C.3   484  ALA484      0.1562
     64  C         37.8370   44.6670   38.1370 C.2   484  ALA484      0.2260
     65  O         37.3440   44.2860   37.0690 O.2   484  ALA484     -0.2867
     66  CB        38.4290   42.8200   39.7220 C.3   484  ALA484      0.0290
     67  N         32.2100   43.7130   29.4660 N.3   492  TRP492     -0.1227
     68  CA        30.9770   43.0710   29.9090 C.3   492  TRP492      0.1737
     69  C         30.3680   43.7180   31.1440 C.2   492  TRP492      0.2595
     70  O         29.1730   43.5300   31.3980 O.2   492  TRP492     -0.2718
     71  CB        31.2310   41.5870   30.2010 C.3   492  TRP492      0.0564
     72  CG        32.3140   41.3540   31.2190 C.ar  492  TRP492      0.0003
     73  CD1       32.2050   41.4620   32.5770 C.ar  492  TRP492      0.0946
     74  CD2       33.6710   40.9720   30.9560 C.ar  492  TRP492      0.0152
     75  NE1       33.4100   41.1720   33.1750 N.ar  492  TRP492     -0.2442
     76  CE2       34.3260   40.8690   32.2010 C.ar  492  TRP492      0.0810
     77  CE3       34.3950   40.7080   29.7890 C.ar  492  TRP492      0.0012
     78  CZ2       35.6680   40.5140   32.3100 C.ar  492  TRP492      0.0191
     79  CZ3       35.7270   40.3550   29.9010 C.ar  492  TRP492      0.0001
     80  CH2       36.3480   40.2590   31.1520 C.ar  492  TRP492      0.0015
     81  N         31.1530   44.4680   31.9120 N.am  493  LEU493     -0.1980
     82  CA        30.6880   44.9100   33.2230 C.3   493  LEU493      0.1596
     83  C         29.4710   45.8290   33.1870 C.2   493  LEU493      0.2287
     84  O         28.6350   45.7130   34.0960 O.2   493  LEU493     -0.2864
     85  CB        31.8460   45.5660   33.9840 C.3   493  LEU493      0.0297
     86  CG        32.7950   44.5640   34.6430 C.3   493  LEU493      0.0022
     87  CD1       33.8940   45.2700   35.4070 C.3   493  LEU493      0.0001
     88  CD2       32.0140   43.6350   35.5650 C.3   493  LEU493      0.0001
     89  N         26.5960   43.3930   32.6670 N.3   496  TRP496     -0.1241
     90  CA        26.5500   42.4530   33.7830 C.3   496  TRP496      0.1605
     91  C         26.0410   43.1290   35.0520 C.2   496  TRP496      0.2264
     92  O         25.0600   42.6830   35.6570 O.2   496  TRP496     -0.2867
     93  CB        27.9370   41.8500   34.0130 C.3   496  TRP496      0.0550
     94  CG        28.0320   41.0500   35.2670 C.ar  496  TRP496      0.0003
     95  CD1       28.5680   41.4490   36.4540 C.ar  496  TRP496      0.0946
     96  CD2       27.5650   39.7130   35.4630 C.ar  496  TRP496      0.0152
     97  NE1       28.4740   40.4380   37.3780 N.ar  496  TRP496     -0.2442
     98  CE2       27.8580   39.3610   36.7950 C.ar  496  TRP496      0.0810
     99  CE3       26.9280   38.7770   34.6410 C.ar  496  TRP496      0.0012
    100  CZ2       27.5370   38.1130   37.3250 C.ar  496  TRP496      0.0191
    101  CZ3       26.6120   37.5400   35.1690 C.ar  496  TRP496      0.0001
    102  CH2       26.9160   37.2180   36.4970 C.ar  496  TRP496      0.0015
    103  N         21.5340   36.0200   40.7470 N.3   508  PHE508     -0.1241
    104  CA        22.0350   36.1870   42.1130 C.3   508  PHE508      0.1605
    105  C         20.9740   36.8220   43.0120 C.2   508  PHE508      0.2264
    106  O         21.1250   37.9380   43.5130 O.2   508  PHE508     -0.2867
    107  CB        23.3340   36.9950   42.1300 C.3   508  PHE508      0.0534
    108  CG        24.4960   36.2720   41.5240 C.ar  508  PHE508     -0.0203
    109  CD1       25.1080   35.2320   42.2030 C.ar  508  PHE508     -0.0042
    110  CD2       24.9720   36.6220   40.2730 C.ar  508  PHE508     -0.0042
    111  CE1       26.1750   34.5510   41.6460 C.ar  508  PHE508     -0.0003
    112  CE2       26.0440   35.9460   39.7100 C.ar  508  PHE508     -0.0003
    113  CZ        26.6450   34.9080   40.3980 C.ar  508  PHE508     -0.0000
@<TRIPOS>BOND
     1    67    68    1
     2    77    79   ar
     3    77    74   ar
     4    79    80   ar
     5    68    71    1
     6    68    69    1
     7    71    72    1
     8     4     3    2
     9    74    72   ar
    10    74    76   ar
    11    69    70    2
    12    69    81   am
    13    80    78   ar
    14    72    73   ar
    15     3     2    1
    16    81    82    1
    17    76    78   ar
    18    76    75   ar
    19    73    75   ar
    20     5     2    1
    21     5     6    1
    22    89    90    1
    23     2     1    1
    24    83    82    1
    25    83    84    2
    26    82    85    1
    27     7     6    1
    28     8     6    1
    29    90    93    1
    30    90    91    1
    31    85    86    1
    32    93    94    1
    33    99   101   ar
    34    99    96   ar
    35    86    87    1
    36    86    88    1
    37    91    92    2
    38   101   102   ar
    39    94    96   ar
    40    94    95   ar
    41    96    98   ar
    42    95    97   ar
    43   102   100   ar
    44    98   100   ar
    45    98    97   ar
    46    65    64    2
    47    64    63    1
    48    63    62    1
    49    63    66    1
    50    61    59    1
    51    60    59    1
    52    59    58    1
    53   112   110   ar
    54   112   113   ar
    55    39    38    2
    56   110   108   ar
    57   113   111   ar
    58   103   104    1
    59    58    55    1
    60    38    37    1
    61    55    56    1
    62    55    54    1
    63    42    41   ar
    64    42    44   ar
    65    40    37    1
    66    40    41    1
    67   108   107    1
    68   108   109   ar
    69    57    56    2
    70    37    36    1
    71   111   109   ar
    72    41    43   ar
    73    44    45   ar
    74   104   107    1
    75   104   105    1
    76    54    48   am
    77    45    43   ar
    78    34    33    2
    79    36    33   am
    80   105   106    2
    81    48    49    2
    82    48    47    1
    83    33    32    1
    84    50    47    1
    85    50    51    1
    86    47    46    1
    87    52    51    1
    88    53    51    1
    89    32    35    1
    90    32    31    1
    91    26    25    2
    92    29    27    1
    93    25    24    1
    94    27    24    1
    95    27    28    1
    96    24    23    1
    97    30    28    1
    98    12    11    2
    99    23    11   am
   100    11    10    1
   101    21    22   ar
   102    21    19   ar
   103    22    20   ar
   104    19    16   ar
   105    20    18   ar
   106    10     9    1
   107    10    13    1
   108    16    18   ar
   109    16    14   ar
   110    18    17   ar
   111    14    13    1
   112    14    15   ar
   113    17    15   ar
