@<TRIPOS>MOLECULE
tmp/5l8rO04.pdb
 91 83 0 0 0
SMALL
GASTEIGER

@<TRIPOS>ATOM
      1  N        -48.6390  -10.9420  106.4910 N.3     1  ILE1       -0.1245
      2  CA       -49.1240  -11.1440  105.1320 C.3     1  ILE1        0.1561
      3  C        -49.4720   -9.7610  104.5440 C.2     1  ILE1        0.2260
      4  O        -48.6160   -8.8750  104.5240 O.2     1  ILE1       -0.2867
      5  CB       -50.3020  -12.1770  105.1210 C.3     1  ILE1        0.0252
      6  CG1      -50.7430  -12.5350  103.6920 C.3     1  ILE1        0.0019
      7  CG2      -51.4550  -11.7450  106.0430 C.3     1  ILE1        0.0019
      8  CD1      -51.9090  -13.4910  103.6350 C.3     1  ILE1        0.0001
      9  N        -49.5000  -11.4310   96.9070 N.3     5  THR5       -0.1203
     10  CA       -48.0960  -11.7070   96.6300 C.3     5  THR5        0.1994
     11  C        -47.5290  -12.7280   97.6040 C.2     5  THR5        0.2617
     12  O        -46.6600  -13.5220   97.2320 O.2     5  THR5       -0.2717
     13  CB       -47.2830  -10.4110   96.6910 C.3     5  THR5        0.1784
     14  OG1      -47.0330  -10.0660   98.0590 O.3     5  THR5       -0.2211
     15  CG2      -48.0480   -9.2730   96.0300 C.3     5  THR5        0.0376
     16  N        -48.0120  -12.7280   98.8500 N.am    6  ASN6       -0.1974
     17  CA       -47.5640  -13.7250   99.8170 C.3     6  ASN6        0.1688
     18  C        -47.9040  -15.1330   99.3490 C.2     6  ASN6        0.2292
     19  O        -47.0770  -16.0470   99.4550 O.2     6  ASN6       -0.2864
     20  CB       -48.1860  -13.4480  101.1880 C.3     6  ASN6        0.1181
     21  CG       -47.4940  -14.2070  102.3130 C.2     6  ASN6        0.2629
     22  OD1      -46.7750  -15.1790  102.0780 O.2     6  ASN6       -0.2716
     23  ND2      -47.7110  -13.7610  103.5440 N.am    6  ASN6       -0.0877
     24  N        -45.5990  -16.1210   96.5740 N.3     9  MET9       -0.1230
     25  CA       -44.2180  -16.2390   97.0300 C.3     9  MET9        0.1702
     26  C        -44.0020  -17.5270   97.8170 C.2     9  MET9        0.2592
     27  O        -43.0190  -18.2410   97.5940 O.2     9  MET9       -0.2718
     28  CB       -43.8350  -15.0180   97.8660 C.3     9  MET9        0.0401
     29  CG       -43.6120  -13.7590   97.0470 C.3     9  MET9        0.0596
     30  SD       -42.3730  -13.9780   95.7560 S.3     9  MET9       -0.1393
     31  CE       -40.9160  -14.3340   96.7350 C.3     9  MET9        0.0692
     32  N        -44.9070  -17.8380   98.7500 N.am   10  VAL10      -0.1980
     33  CA       -44.8440  -19.1270   99.4300 C.3    10  VAL10       0.1595
     34  C        -45.2100  -20.2620   98.4810 C.2    10  VAL10       0.2287
     35  O        -44.8810  -21.4240   98.7470 O.2    10  VAL10      -0.2864
     36  CB       -45.7560  -19.1270  100.6750 C.3    10  VAL10       0.0276
     37  CG1      -47.2220  -19.1810  100.2700 C.3    10  VAL10       0.0022
     38  CG2      -45.4070  -20.2840  101.6040 C.3    10  VAL10       0.0022
     39  N        -41.9310  -20.5140   96.1930 N.3    13  THR13      -0.1203
     40  CA       -40.9120  -20.8690   97.1740 C.3    13  THR13       0.1994
     41  C        -41.1110  -22.2930   97.6750 C.2    13  THR13       0.2618
     42  O        -40.2500  -23.1530   97.4840 O.2    13  THR13      -0.2717
     43  CB       -40.9280  -19.8760   98.3390 C.3    13  THR13       0.1784
     44  OG1      -40.7970  -18.5410   97.8350 O.3    13  THR13      -0.2211
     45  CG2      -39.7760  -20.1600   99.2930 C.3    13  THR13       0.0376
     46  N        -42.2600  -22.5680   98.3000 N.am   14  SER14      -0.1951
     47  CA       -42.4950  -23.8900   98.8790 C.3    14  SER14       0.1924
     48  C        -42.5570  -24.9800   97.8130 C.2    14  SER14       0.2314
     49  O        -42.2820  -26.1500   98.1050 O.2    14  SER14      -0.2863
     50  CB       -43.7860  -23.8810   99.7010 C.3    14  SER14       0.2116
     51  OG       -44.0410  -25.1580  100.2620 O.3    14  SER14      -0.2180
     52  N        -38.8440  -25.5730   97.1110 N.3    17  LEU17      -0.1245
     53  CA       -38.3540  -26.2570   98.3030 C.3    17  LEU17       0.1561
     54  C        -38.7880  -27.7140   98.3120 C.2    17  LEU17       0.2260
     55  O        -38.0100  -28.6020   98.6770 O.2    17  LEU17      -0.2867
     56  CB       -38.8640  -25.5540   99.5620 C.3    17  LEU17       0.0270
     57  CG       -38.4890  -24.0940   99.8140 C.3    17  LEU17       0.0019
     58  CD1      -39.3600  -23.5140  100.9200 C.3    17  LEU17       0.0001
     59  CD2      -37.0140  -23.9600  100.1550 C.3    17  LEU17       0.0001
     60  N        -30.9030  -23.2410  100.5190 N.3    56  LEU56      -0.1245
     61  CA       -30.7200  -21.8790  100.0260 C.3    56  LEU56       0.1561
     62  C        -31.0230  -21.7870   98.5360 C.2    56  LEU56       0.2260
     63  O        -31.7050  -20.8540   98.0890 O.2    56  LEU56      -0.2867
     64  CB       -29.2930  -21.4110  100.3110 C.3    56  LEU56       0.0270
     65  CG       -28.8330  -21.4740  101.7690 C.3    56  LEU56       0.0019
     66  CD1      -27.3450  -21.1790  101.8760 C.3    56  LEU56       0.0001
     67  CD2      -29.6380  -20.5100  102.6240 C.3    56  LEU56       0.0001
     68  N        -34.0370  -19.4970   96.9150 N.3    60  VAL60      -0.1245
     69  CA       -33.7820  -18.3940   95.9900 C.3    60  VAL60       0.1561
     70  C        -34.4850  -18.6330   94.6590 C.2    60  VAL60       0.2260
     71  O        -34.9930  -17.6950   94.0360 O.2    60  VAL60      -0.2867
     72  CB       -32.2680  -18.1800   95.8010 C.3    60  VAL60       0.0252
     73  CG1      -32.0090  -17.1250   94.7380 C.3    60  VAL60       0.0019
     74  CG2      -31.6270  -17.7620   97.1080 C.3    60  VAL60       0.0019
     75  N        -37.9260  -17.7460   94.9460 N.3    63  HIS63      -0.1241
     76  CA       -38.0820  -16.2940   94.9340 C.3    63  HIS63       0.1621
     77  C        -37.9240  -15.7030   93.5390 C.2    63  HIS63       0.2264
     78  O        -38.5540  -14.6890   93.2320 O.2    63  HIS63      -0.2867
     79  CB       -37.0810  -15.6420   95.8870 C.3    63  HIS63       0.0745
     80  CG       -37.4560  -15.7710   97.3280 C.ar   63  HIS63       0.0817
     81  ND1      -37.4530  -16.9790   97.9900 N.ar   63  HIS63      -0.2268
     82  CD2      -37.8570  -14.8470   98.2310 C.ar   63  HIS63       0.1154
     83  CE1      -37.8350  -16.7930   99.2410 C.ar   63  HIS63       0.1986
     84  NE2      -38.0840  -15.5080   99.4140 N.ar   63  HIS63      -0.2212
     85  N        -41.1280  -13.7840   92.4240 N.3    67  VAL67      -0.1245
     86  CA       -41.0960  -12.3640   92.0890 C.3    67  VAL67       0.1561
     87  C        -41.3790  -12.1620   90.6060 C.2    67  VAL67       0.2260
     88  O        -42.0910  -11.2270   90.2180 O.2    67  VAL67      -0.2867
     89  CB       -39.7470  -11.7490   92.5060 C.3    67  VAL67       0.0252
     90  CG1      -39.6390  -10.3190   92.0170 C.3    67  VAL67       0.0019
     91  CG2      -39.5890  -11.8010   94.0190 C.3    67  VAL67       0.0019
@<TRIPOS>BOND
     1    88    87    2
     2    87    86    1
     3    90    89    1
     4    86    85    1
     5    86    89    1
     6    89    91    1
     7    78    77    2
     8    77    76    1
     9    71    70    2
    10    70    69    1
    11    73    72    1
    12    76    75    1
    13    76    79    1
    14    30    31    1
    15    30    29    1
    16    72    69    1
    17    72    74    1
    18    79    80    1
    19    69    68    1
    20    15    13    1
    21    39    40    1
    22    24    25    1
    23    10    13    1
    24    10     9    1
    25    10    11    1
    26    13    14    1
    27    25    26    1
    28    25    28    1
    29    29    28    1
    30    52    53    1
    31    40    41    1
    32    40    43    1
    33    12    11    2
    34    80    81   ar
    35    80    82   ar
    36    42    41    2
    37    27    26    2
    38    11    16   am
    39    41    46   am
    40    48    49    2
    41    48    47    1
    42    26    32   am
    43    44    43    1
    44    81    83   ar
    45    63    62    2
    46    82    84   ar
    47    46    47    1
    48    53    54    1
    49    53    56    1
    50    54    55    2
    51    43    45    1
    52    34    35    2
    53    34    33    1
    54    62    61    1
    55    32    33    1
    56    16    17    1
    57    47    50    1
    58    83    84   ar
    59    18    19    2
    60    18    17    1
    61    33    36    1
    62    56    57    1
    63    50    51    1
    64    57    59    1
    65    57    58    1
    66    17    20    1
    67    61    64    1
    68    61    60    1
    69    37    36    1
    70    64    65    1
    71    36    38    1
    72    20    21    1
    73    65    66    1
    74    65    67    1
    75    22    21    2
    76    21    23   am
    77     8     6    1
    78     6     5    1
    79     4     3    2
    80     3     2    1
    81     5     2    1
    82     5     7    1
    83     2     1    1
