@<TRIPOS>MOLECULE
tmp/5l8rE06.pdb
 125 122 0 0 0
SMALL
GASTEIGER

@<TRIPOS>ATOM
      1  N        -40.0470   -2.7600   98.1400 N.3   254  PHE254     -0.1241
      2  CA       -39.0670   -3.6920   97.5960 C.3   254  PHE254      0.1605
      3  C        -39.3420   -5.1130   98.0720 C.2   254  PHE254      0.2264
      4  O        -39.3150   -6.0600   97.2780 O.2   254  PHE254     -0.2867
      5  CB       -37.6560   -3.2530   97.9850 C.3   254  PHE254      0.0534
      6  CG       -36.5910   -4.2360   97.6030 C.ar  254  PHE254     -0.0203
      7  CD1      -36.1580   -4.3340   96.2920 C.ar  254  PHE254     -0.0042
      8  CD2      -36.0170   -5.0580   98.5570 C.ar  254  PHE254     -0.0042
      9  CE1      -35.1740   -5.2380   95.9380 C.ar  254  PHE254     -0.0003
     10  CE2      -35.0340   -5.9640   98.2100 C.ar  254  PHE254     -0.0003
     11  CZ       -34.6120   -6.0540   96.8970 C.ar  254  PHE254     -0.0000
     12  N        -42.7620   -2.9300   93.3560 N.3   259  TRP259     -0.1227
     13  CA       -41.6400   -2.2200   92.7540 C.3   259  TRP259      0.1737
     14  C        -42.0760   -1.1400   91.7760 C.2   259  TRP259      0.2596
     15  O        -41.3110   -0.2000   91.5450 O.2   259  TRP259     -0.2718
     16  CB       -40.7060   -3.2090   92.0430 C.3   259  TRP259      0.0564
     17  CG       -40.0500   -4.1970   92.9600 C.ar  259  TRP259      0.0003
     18  CD1      -40.1370   -4.2360   94.3220 C.ar  259  TRP259      0.0946
     19  CD2      -39.2100   -5.2930   92.5810 C.ar  259  TRP259      0.0152
     20  NE1      -39.4030   -5.2880   94.8130 N.ar  259  TRP259     -0.2442
     21  CE2      -38.8230   -5.9520   93.7650 C.ar  259  TRP259      0.0810
     22  CE3      -38.7440   -5.7800   91.3570 C.ar  259  TRP259      0.0012
     23  CZ2      -37.9960   -7.0740   93.7600 C.ar  259  TRP259      0.0191
     24  CZ3      -37.9250   -6.8930   91.3530 C.ar  259  TRP259      0.0001
     25  CH2      -37.5580   -7.5270   92.5470 C.ar  259  TRP259      0.0015
     26  N        -43.2800   -1.2400   91.2050 N.am  260  SER260     -0.1952
     27  CA       -43.7350   -0.2150   90.2690 C.3   260  SER260      0.1924
     28  C        -43.7860    1.1610   90.9220 C.2   260  SER260      0.2314
     29  O        -43.5890    2.1770   90.2440 O.2   260  SER260     -0.2863
     30  CB       -45.1010   -0.5950   89.6970 C.3   260  SER260      0.2116
     31  OG       -45.9970   -0.9750   90.7250 O.3   260  SER260     -0.2180
     32  N        -41.5980    2.4740   92.6220 N.3   262  TYR262     -0.1227
     33  CA       -40.2840    3.0870   92.4670 C.3   262  TYR262      0.1736
     34  C        -40.0600    3.6720   91.0800 C.2   262  TYR262      0.2595
     35  O        -38.9370    4.0950   90.7840 O.2   262  TYR262     -0.2718
     36  CB       -39.1720    2.0750   92.7610 C.3   262  TYR262      0.0548
     37  CG       -39.0660    1.6540   94.2050 C.ar  262  TYR262     -0.0200
     38  CD1      -38.5190    2.5010   95.1590 C.ar  262  TYR262     -0.0009
     39  CD2      -39.4980    0.4000   94.6120 C.ar  262  TYR262     -0.0009
     40  CE1      -38.4150    2.1160   96.4790 C.ar  262  TYR262      0.0417
     41  CE2      -39.3990    0.0060   95.9280 C.ar  262  TYR262      0.0417
     42  CZ       -38.8580    0.8670   96.8570 C.ar  262  TYR262      0.1957
     43  OH       -38.7600    0.4770   98.1700 O.3   262  TYR262     -0.2866
     44  N        -41.0880    3.7200   90.2280 N.am  263  ALA263     -0.1980
     45  CA       -40.9330    4.2890   88.8920 C.3   263  ALA263      0.1597
     46  C        -40.5710    5.7690   88.9610 C.2   263  ALA263      0.2287
     47  O        -40.3360    6.4080   87.9300 O.2   263  ALA263     -0.2864
     48  CB       -42.2090    4.0910   88.0730 C.3   263  ALA263      0.0319
     49  N        -36.4720    5.1560   89.3380 N.3   266  LEU266     -0.1231
     50  CA       -36.0310    4.0530   88.4880 C.3   266  LEU266      0.1693
     51  C        -36.9210    4.0540   87.2540 C.2   266  LEU266      0.2593
     52  O        -38.1150    3.7510   87.3460 O.2   266  LEU266     -0.2718
     53  CB       -36.1090    2.7170   89.2250 C.3   266  LEU266      0.0284
     54  CG       -35.3010    2.5910   90.5180 C.3   266  LEU266      0.0019
     55  CD1      -35.4470    1.1940   91.1060 C.3   266  LEU266      0.0001
     56  CD2      -33.8340    2.9340   90.2810 C.3   266  LEU266      0.0001
     57  N        -36.3490    4.3950   86.1020 N.am  267  THR267     -0.1939
     58  CA       -37.1420    4.6920   84.9200 C.3   267  THR267      0.2028
     59  C        -36.5690    3.9920   83.6960 C.2   267  THR267      0.2642
     60  O        -35.3910    3.6310   83.6490 O.2   267  THR267     -0.2714
     61  CB       -37.2140    6.2080   84.6770 C.3   267  THR267      0.1808
     62  OG1      -37.2520    6.8900   85.9360 O.3   267  THR267     -0.2208
     63  CG2      -38.4680    6.5610   83.9050 C.3   267  THR267      0.0379
     64  N        -37.4360    3.7980   82.7010 N.am  268  PHE268     -0.1973
     65  CA       -37.0780    3.2090   81.4170 C.3   268  PHE268      0.1639
     66  C        -37.3530    4.1880   80.2770 C.2   268  PHE268      0.2290
     67  O        -37.6730    3.7790   79.1600 O.2   268  PHE268     -0.2864
     68  CB       -37.8340    1.8950   81.2030 C.3   268  PHE268      0.0560
     69  CG       -37.1640    0.9450   80.2390 C.ar  268  PHE268     -0.0200
     70  CD1      -36.1440    0.1090   80.6650 C.ar  268  PHE268     -0.0042
     71  CD2      -37.5700    0.8730   78.9160 C.ar  268  PHE268     -0.0042
     72  CE1      -35.5320   -0.7670   79.7830 C.ar  268  PHE268     -0.0003
     73  CE2      -36.9590    0.0040   78.0300 C.ar  268  PHE268     -0.0003
     74  CZ       -35.9410   -0.8200   78.4660 C.ar  268  PHE268     -0.0000
     75  N        -31.3540    2.4900   87.5180 N.3   286  HIS286     -0.1241
     76  CA       -32.1360    1.2990   87.2030 C.3   286  HIS286      0.1621
     77  C        -31.2990    0.2860   86.4280 C.2   286  HIS286      0.2264
     78  O        -31.3460   -0.9240   86.6970 O.2   286  HIS286     -0.2867
     79  CB       -33.3770    1.7030   86.4060 C.3   286  HIS286      0.0745
     80  CG       -34.4290    0.6450   86.3530 C.ar  286  HIS286      0.0817
     81  ND1      -34.5620   -0.3130   87.3340 N.ar  286  HIS286     -0.2268
     82  CD2      -35.3950    0.3880   85.4410 C.ar  286  HIS286      0.1154
     83  CE1      -35.5670   -1.1130   87.0300 C.ar  286  HIS286      0.1986
     84  NE2      -36.0870   -0.7130   85.8840 N.ar  286  HIS286     -0.2212
     85  N        -28.7860   -1.5030   88.6020 N.3   289  LEU289     -0.1231
     86  CA       -29.5000   -2.4750   89.4240 C.3   289  LEU289      0.1693
     87  C        -29.7700   -3.7570   88.6430 C.2   289  LEU289      0.2591
     88  O        -29.4410   -4.8630   89.1000 O.2   289  LEU289     -0.2718
     89  CB       -30.8020   -1.8630   89.9380 C.3   289  LEU289      0.0284
     90  CG       -31.6320   -2.7170   90.8940 C.3   289  LEU289      0.0019
     91  CD1      -30.7680   -3.2210   92.0380 C.3   289  LEU289      0.0001
     92  CD2      -32.8070   -1.9080   91.4180 C.3   289  LEU289      0.0001
     93  N        -30.3590   -3.6240   87.4480 N.am  290  ALA290     -0.1980
     94  CA       -30.6540   -4.8020   86.6330 C.3   290  ALA290      0.1597
     95  C        -29.3880   -5.6020   86.3380 C.2   290  ALA290      0.2287
     96  O        -29.3600   -6.8290   86.5040 O.2   290  ALA290     -0.2864
     97  CB       -31.3450   -4.3810   85.3350 C.3   290  ALA290      0.0319
     98  N        -28.3340   -7.6320   89.2940 N.3   293  ILE293     -0.1231
     99  CA       -29.0950   -8.8720   89.4320 C.3   293  ILE293      0.1692
    100  C        -28.6010   -9.9160   88.4350 C.2   293  ILE293      0.2591
    101  O        -28.3630  -11.0780   88.7910 O.2   293  ILE293     -0.2718
    102  CB       -30.6020   -8.6090   89.2670 C.3   293  ILE293      0.0266
    103  CG1      -31.0860   -7.5950   90.3070 C.3   293  ILE293      0.0019
    104  CG2      -31.3870   -9.9140   89.3760 C.3   293  ILE293      0.0020
    105  CD1      -30.6790   -7.9280   91.7240 C.3   293  ILE293      0.0001
    106  N        -28.4280   -9.5110   87.1730 N.am  294  LEU294     -0.1980
    107  CA       -28.0430  -10.4670   86.1370 C.3   294  LEU294      0.1596
    108  C        -26.7140  -11.1380   86.4620 C.2   294  LEU294      0.2287
    109  O        -26.5760  -12.3590   86.3120 O.2   294  LEU294     -0.2864
    110  CB       -27.9720   -9.7740   84.7750 C.3   294  LEU294      0.0297
    111  CG       -27.7220  -10.7010   83.5810 C.3   294  LEU294      0.0022
    112  CD1      -28.8140  -11.7560   83.5000 C.3   294  LEU294      0.0001
    113  CD2      -27.6360   -9.9160   82.2810 C.3   294  LEU294      0.0001
    114  N        -26.8510  -13.4940   89.4610 N.3   297  ILE297     -0.1245
    115  CA       -27.3870  -14.7820   89.0310 C.3   297  ILE297      0.1561
    116  C        -26.3300  -15.5680   88.2650 C.2   297  ILE297      0.2260
    117  O        -26.1100  -16.7580   88.5190 O.2   297  ILE297     -0.2867
    118  CB       -28.6600  -14.5830   88.1880 C.3   297  ILE297      0.0252
    119  CG1      -29.8190  -14.1100   89.0660 C.3   297  ILE297      0.0019
    120  CG2      -29.0290  -15.8680   87.4630 C.3   297  ILE297      0.0019
    121  CD1      -31.1220  -13.9570   88.3110 C.3   297  ILE297      0.0001
    122  N        -42.5460   -0.0470   77.4310 N.3   491  GLY491     -0.1225
    123  CA       -42.0100    0.6570   78.5800 C.3   491  GLY491      0.1811
    124  C        -41.0730    1.7900   78.2220 C.2   491  GLY491      0.2280
    125  O        -40.9100    2.7210   79.0180 O.2   491  GLY491     -0.2866
@<TRIPOS>BOND
     1   122   123    1
     2    73    74   ar
     3    73    71   ar
     4   124   123    1
     5   124   125    2
     6    74    72   ar
     7    71    69   ar
     8    67    66    2
     9    72    70   ar
    10    69    70   ar
    11    69    68    1
    12    66    65    1
    13    68    65    1
    14    65    64    1
    15   113   111    1
    16    64    59   am
    17   112   111    1
    18   111   110    1
    19    60    59    2
    20    59    58    1
    21    63    61    1
    22    61    58    1
    23    61    62    1
    24   110   107    1
    25    58    57    1
    26    97    94    1
    27    82    84   ar
    28    82    80   ar
    29    84    83   ar
    30    57    51   am
    31   107   108    1
    32   107   106    1
    33   109   108    2
    34    95    96    2
    35    95    94    1
    36    80    79    1
    37    80    81   ar
    38    79    76    1
    39    77    78    2
    40    77    76    1
    41    94    93    1
    42    83    81   ar
    43   106   100   am
    44    76    75    1
    45    51    52    2
    46    51    50    1
    47    93    87   am
    48   120   118    1
    49    47    46    2
    50    48    45    1
    51   118   115    1
    52   118   119    1
    53   116   117    2
    54   116   115    1
    55   121   119    1
    56   100   101    2
    57   100    99    1
    58    50    53    1
    59    50    49    1
    60    85    86    1
    61    87    88    2
    62    87    86    1
    63    45    46    1
    64    45    44    1
    65   115   114    1
    66    53    54    1
    67   102   104    1
    68   102    99    1
    69   102   103    1
    70    98    99    1
    71    86    89    1
    72    30    27    1
    73    30    31    1
    74    89    90    1
    75    44    34   am
    76    29    28    2
    77    27    28    1
    78    27    26    1
    79    56    54    1
    80   103   105    1
    81    54    55    1
    82    35    34    2
    83    90    92    1
    84    90    91    1
    85    34    33    1
    86    26    14   am
    87    24    22   ar
    88    24    25   ar
    89    22    19   ar
    90    15    14    2
    91    14    13    1
    92    16    13    1
    93    16    17    1
    94    33    32    1
    95    33    36    1
    96    25    23   ar
    97    19    17   ar
    98    19    21   ar
    99    13    12    1
   100    36    37    1
   101    17    18   ar
   102    23    21   ar
   103    21    20   ar
   104    37    39   ar
   105    37    38   ar
   106    18    20   ar
   107    39    41   ar
   108    38    40   ar
   109    41    42   ar
   110     9     7   ar
   111     9    11   ar
   112     7     6   ar
   113    40    42   ar
   114    42    43    1
   115    11    10   ar
   116     4     3    2
   117     2     5    1
   118     2     3    1
   119     2     1    1
   120     6     5    1
   121     6     8   ar
   122    10     8   ar
