@<TRIPOS>MOLECULE
tmp/5l8rE34.pdb
 95 95 0 0 0
SMALL
GASTEIGER

@<TRIPOS>ATOM
      1  N         -2.4070    4.9860   91.2060 N.3    76  LEU76      -0.1245
      2  CA        -1.5730    6.1830   91.2880 C.3    76  LEU76       0.1561
      3  C         -1.9580    7.1880   90.2080 C.2    76  LEU76       0.2260
      4  O         -1.9440    8.4050   90.4350 O.2    76  LEU76      -0.2867
      5  CB        -0.1000    5.7860   91.1700 C.3    76  LEU76       0.0270
      6  CG         0.9890    6.8510   91.3050 C.3    76  LEU76       0.0019
      7  CD1        0.8610    7.5750   92.6220 C.3    76  LEU76       0.0001
      8  CD2        2.3590    6.2130   91.1940 C.3    76  LEU76       0.0001
      9  N         -6.6630   20.5050   92.7940 N.3    87  ARG87      -0.1231
     10  CA        -5.6350   21.5070   93.0410 C.3    87  ARG87       0.1694
     11  C         -5.3260   22.3810   91.8320 C.2    87  ARG87       0.2592
     12  O         -5.0020   23.5600   92.0060 O.2    87  ARG87      -0.2718
     13  CB        -4.3530   20.8090   93.5140 C.3    87  ARG87       0.0321
     14  CG        -3.1240   21.6900   93.6330 C.3    87  ARG87       0.0489
     15  CD        -3.2370   22.6740   94.7760 C.3    87  ARG87       0.2205
     16  NE        -2.0080   23.4460   94.9400 N.pl3  87  ARG87      -0.0865
     17  CZ        -1.6910   24.5130   94.2120 C.cat  87  ARG87       0.5346
     18  NH1       -2.5090   24.9410   93.2590 N.pl3  87  ARG87       0.1354
     19  NH2       -0.5530   25.1550   94.4380 N.pl3  87  ARG87       0.1354
     20  N         -5.4240   21.8490   90.6110 N.am   88  PHE88      -0.1976
     21  CA        -5.0410   22.5980   89.4190 C.3    88  PHE88       0.1639
     22  C         -6.1600   22.6380   88.3840 C.2    88  PHE88       0.2290
     23  O         -5.8910   22.6770   87.1800 O.2    88  PHE88      -0.2864
     24  CB        -3.7750   22.0150   88.7890 C.3    88  PHE88       0.0560
     25  CG        -2.6110   21.9210   89.7310 C.ar   88  PHE88      -0.0200
     26  CD1       -2.0050   23.0680   90.2180 C.ar   88  PHE88      -0.0042
     27  CD2       -2.1100   20.6830   90.1160 C.ar   88  PHE88      -0.0042
     28  CE1       -0.9290   22.9840   91.0800 C.ar   88  PHE88      -0.0003
     29  CE2       -1.0320   20.5900   90.9800 C.ar   88  PHE88      -0.0003
     30  CZ        -0.4380   21.7410   91.4600 C.ar   88  PHE88      -0.0000
     31  N         -1.8890   22.9120   84.5390 N.3   107  VAL107     -0.1231
     32  CA        -1.2950   24.2390   84.4630 C.3   107  VAL107      0.1692
     33  C          0.2100   24.0730   84.3170 C.2   107  VAL107      0.2592
     34  O          0.8060   23.2090   84.9670 O.2   107  VAL107     -0.2718
     35  CB        -1.6390   25.0770   85.7100 C.3   107  VAL107      0.0266
     36  CG1       -0.9720   26.4350   85.6340 C.3   107  VAL107      0.0020
     37  CG2       -3.1400   25.2300   85.8280 C.3   107  VAL107      0.0020
     38  N          0.8220   24.8840   83.4650 N.am  108  VAL108     -0.1966
     39  CA         2.2540   24.7640   83.2170 C.3   108  VAL108      0.1727
     40  C          2.9940   25.8840   83.9350 C.2   108  VAL108      0.2616
     41  O          2.4500   26.9650   84.1900 O.2   108  VAL108     -0.2715
     42  CB         2.5670   24.7570   81.7040 C.3   108  VAL108      0.0290
     43  CG1        1.6510   23.7890   80.9890 C.3   108  VAL108      0.0023
     44  CG2        2.4500   26.1450   81.1100 C.3   108  VAL108      0.0023
     45  N          4.2540   25.6100   84.2810 N.am  109  TRP109     -0.1960
     46  CA         5.1160   26.5830   84.9300 C.3   109  TRP109      0.1756
     47  C          5.6350   27.6000   83.9170 C.2   109  TRP109      0.2461
     48  O          5.8290   27.2760   82.7420 O.2   109  TRP109     -0.2730
     49  CB         6.2970   25.8890   85.6030 C.3   109  TRP109      0.0590
     50  CG         5.9450   25.1510   86.8620 C.ar  109  TRP109      0.0006
     51  CD1        5.0080   25.5080   87.7910 C.ar  109  TRP109      0.0946
     52  CD2        6.5250   23.9230   87.3280 C.ar  109  TRP109      0.0152
     53  NE1        4.9720   24.5790   88.8050 N.ar  109  TRP109     -0.2442
     54  CE2        5.8920   23.5970   88.5440 C.ar  109  TRP109      0.0810
     55  CE3        7.5170   23.0700   86.8330 C.ar  109  TRP109      0.0012
     56  CZ2        6.2180   22.4550   89.2710 C.ar  109  TRP109      0.0191
     57  CZ3        7.8400   21.9370   87.5570 C.ar  109  TRP109      0.0001
     58  CH2        7.1930   21.6410   88.7640 C.ar  109  TRP109      0.0015
     59  N          5.8650   28.8430   84.3500 N.am  110  PRO110     -0.2727
     60  CA         6.4350   29.8440   83.4420 C.3   110  PRO110      0.1402
     61  C          7.9540   29.8070   83.4330 C.2   110  PRO110      0.2269
     62  O          8.5980   30.5410   84.1890 O.2   110  PRO110     -0.2865
     63  CB         5.9120   31.1630   84.0160 C.3   110  PRO110      0.0296
     64  CG         5.8250   30.8910   85.4960 C.3   110  PRO110      0.0237
     65  CD         5.5250   29.4190   85.6640 C.3   110  PRO110      0.0939
     66  N         -0.9490   27.9860   78.8450 N.3   118  ASN118     -0.1240
     67  CA        -2.0060   28.2970   79.8060 C.3   118  ASN118      0.1653
     68  C         -2.9470   29.2900   79.1370 C.2   118  ASN118      0.2266
     69  O         -2.7810   30.5070   79.2330 O.2   118  ASN118     -0.2867
     70  CB        -1.4270   28.8550   81.1010 C.3   118  ASN118      0.1155
     71  CG        -0.6020   27.8300   81.8640 C.2   118  ASN118      0.2627
     72  OD1       -0.9050   26.6360   81.8580 O.2   118  ASN118     -0.2716
     73  ND2        0.4500   28.2960   82.5270 N.am  118  ASN118     -0.0877
     74  N         -9.4900   31.3600   84.6040 N.3   125  PHE125     -0.1227
     75  CA        -8.5100   30.2920   84.7350 C.3   125  PHE125      0.1736
     76  C         -7.7180   30.1430   83.4410 C.2   125  PHE125      0.2595
     77  O         -8.2940   30.0700   82.3410 O.2   125  PHE125     -0.2718
     78  CB        -9.1950   28.9700   85.1160 C.3   125  PHE125      0.0547
     79  CG        -8.2410   27.8750   85.5270 C.ar  125  PHE125     -0.0202
     80  CD1       -7.7280   27.8210   86.8140 C.ar  125  PHE125     -0.0042
     81  CD2       -7.8730   26.8890   84.6280 C.ar  125  PHE125     -0.0042
     82  CE1       -6.8560   26.8090   87.1890 C.ar  125  PHE125     -0.0003
     83  CE2       -7.0050   25.8740   84.9970 C.ar  125  PHE125     -0.0003
     84  CZ        -6.4990   25.8340   86.2780 C.ar  125  PHE125     -0.0000
     85  N         -6.3960   30.1100   83.5900 N.am  126  ARG126     -0.1980
     86  CA        -5.4540   29.8820   82.5060 C.3   126  ARG126      0.1597
     87  C         -4.9090   28.4690   82.6250 C.2   126  ARG126      0.2287
     88  O         -4.4190   28.0830   83.6920 O.2   126  ARG126     -0.2864
     89  CB        -4.2970   30.8830   82.5640 C.3   126  ARG126      0.0334
     90  CG        -4.7180   32.3350   82.5860 C.3   126  ARG126      0.0492
     91  CD        -5.1980   32.7630   81.2240 C.3   126  ARG126      0.2205
     92  NE        -4.1040   32.8740   80.2690 N.pl3 126  ARG126     -0.0865
     93  CZ        -4.2550   33.2970   79.0180 C.cat 126  ARG126      0.5346
     94  NH1       -5.4590   33.6460   78.5690 N.pl3 126  ARG126      0.1354
     95  NH2       -3.2020   33.3700   78.2140 N.pl3 126  ARG126      0.1354
@<TRIPOS>BOND
     1    95    93    1
     2    94    93    1
     3    66    67    1
     4    93    92    2
     5    68    69    2
     6    68    67    1
     7    67    70    1
     8    92    91    1
     9    43    42    1
    10    70    71    1
    11    44    42    1
    12    91    90    1
    13    42    39    1
    14    72    71    2
    15    71    73   am
    16    77    76    2
    17    86    89    1
    18    86    87    1
    19    86    85    1
    20    89    90    1
    21    87    88    2
    22    48    47    2
    23    39    38    1
    24    39    40    1
    25    61    60    1
    26    61    62    2
    27    76    85   am
    28    76    75    1
    29    60    63    1
    30    60    59    1
    31    38    33   am
    32    47    59   am
    33    47    46    1
    34    40    41    2
    35    40    45   am
    36    63    64    1
    37    45    46    1
    38    33    32    1
    39    33    34    2
    40    59    65    1
    41    32    31    1
    42    32    35    1
    43    74    75    1
    44    81    83   ar
    45    81    79   ar
    46    75    78    1
    47    46    49    1
    48    83    84   ar
    49    78    79    1
    50    64    65    1
    51    79    80   ar
    52    49    50    1
    53    36    35    1
    54    35    37    1
    55    84    82   ar
    56    80    82   ar
    57    55    52   ar
    58    55    57   ar
    59    50    52   ar
    60    50    51   ar
    61    23    22    2
    62    52    54   ar
    63    57    58   ar
    64    51    53   ar
    65    22    21    1
    66    54    53   ar
    67    54    56   ar
    68    58    56   ar
    69    24    21    1
    70    24    25    1
    71    21    20    1
    72    25    27   ar
    73    25    26   ar
    74    27    29   ar
    75     3     4    2
    76     3     2    1
    77    26    28   ar
    78    20    11   am
    79    29    30   ar
    80    28    30   ar
    81     5     2    1
    82     5     6    1
    83     8     6    1
    84     1     2    1
    85     6     7    1
    86    11    12    2
    87    11    10    1
    88     9    10    1
    89    10    13    1
    90    18    17    1
    91    13    14    1
    92    14    15    1
    93    17    19    1
    94    17    16    2
    95    15    16    1
