@<TRIPOS>MOLECULE
tmp/5l8rB20.pdb
 196 190 0 0 0
SMALL
GASTEIGER

@<TRIPOS>ATOM
      1  N         15.2010   -2.3620  121.0710 N.3    10  TRP10      -0.1241
      2  CA        14.1010   -1.4440  120.8010 C.3    10  TRP10       0.1605
      3  C         12.7790   -2.1900  120.6860 C.2    10  TRP10       0.2264
      4  O         11.7430   -1.7070  121.1490 O.2    10  TRP10      -0.2867
      5  CB        14.3830   -0.6580  119.5250 C.3    10  TRP10       0.0550
      6  CG        14.4340   -1.5240  118.3150 C.ar   10  TRP10       0.0003
      7  CD1       15.4350   -2.3780  117.9610 C.ar   10  TRP10       0.0946
      8  CD2       13.4350   -1.6300  117.2950 C.ar   10  TRP10       0.0152
      9  NE1       15.1250   -3.0080  116.7830 N.ar   10  TRP10      -0.2442
     10  CE2       13.9020   -2.5640  116.3510 C.ar   10  TRP10       0.0810
     11  CE3       12.1950   -1.0200  117.0860 C.ar   10  TRP10       0.0012
     12  CZ2       13.1720   -2.9050  115.2130 C.ar   10  TRP10       0.0191
     13  CZ3       11.4700   -1.3600  115.9580 C.ar   10  TRP10       0.0001
     14  CH2       11.9610   -2.2930  115.0350 C.ar   10  TRP10       0.0015
     15  N         24.6790   -5.4670  114.4460 N.3    20  LEU20      -0.1245
     16  CA        24.5650   -4.7430  115.7100 C.3    20  LEU20       0.1561
     17  C         24.7050   -5.7700  116.8300 C.2    20  LEU20       0.2260
     18  O         23.7420   -6.4640  117.1690 O.2    20  LEU20      -0.2867
     19  CB        23.2390   -3.9880  115.8040 C.3    20  LEU20       0.0270
     20  CG        22.8600   -3.0460  114.6530 C.3    20  LEU20       0.0019
     21  CD1       21.5300   -2.3690  114.9400 C.3    20  LEU20       0.0001
     22  CD2       23.9460   -2.0070  114.3880 C.3    20  LEU20       0.0001
     23  N         28.6140   -1.0210  119.8640 N.3    24  LEU24      -0.1231
     24  CA        28.4640    0.4180  119.6950 C.3    24  LEU24       0.1678
     25  C         27.7090    1.0160  120.8810 C.2    24  LEU24       0.2434
     26  O         26.7850    0.3920  121.4120 O.2    24  LEU24      -0.2733
     27  CB        27.7160    0.7410  118.4030 C.3    24  LEU24       0.0284
     28  CG        28.4580    0.5880  117.0780 C.3    24  LEU24       0.0019
     29  CD1       27.5190    0.8830  115.9270 C.3    24  LEU24       0.0001
     30  CD2       29.6610    1.5100  117.0400 C.3    24  LEU24       0.0001
     31  N         28.0830    2.2130  121.3260 N.am   25  PRO25      -0.2718
     32  CA        27.2690    2.9010  122.3320 C.3    25  PRO25       0.1535
     33  C         25.9230    3.2910  121.7410 C.2    25  PRO25       0.2599
     34  O         25.8320    3.7230  120.5890 O.2    25  PRO25      -0.2715
     35  CB        28.1100    4.1320  122.6930 C.3    25  PRO25       0.0310
     36  CG        29.5030    3.8000  122.2310 C.3    25  PRO25       0.0237
     37  CD        29.3230    2.9440  121.0200 C.3    25  PRO25       0.0939
     38  N         24.8710    3.1180  122.5370 N.am   26  GLY26      -0.1941
     39  CA        23.5330    3.3810  122.0480 C.3    26  GLY26       0.2014
     40  C         22.9880    2.3310  121.1120 C.2    26  GLY26       0.2639
     41  O         22.1120    2.6360  120.2980 O.2    26  GLY26      -0.2714
     42  N         23.4870    1.1010  121.2000 N.am   27  ASP27      -0.1957
     43  CA        23.0330    0.0050  120.3480 C.3    27  ASP27       0.1840
     44  C         21.8190   -0.6530  120.9950 C.2    27  ASP27       0.2622
     45  O         21.9570   -1.3830  121.9850 O.2    27  ASP27      -0.2715
     46  CB        24.1600   -1.0060  120.1330 C.3    27  ASP27       0.1450
     47  CG        23.8250   -2.0670  119.0870 C.2    27  ASP27       0.3671
     48  OD1       22.6320   -2.2690  118.7830 O.co2  27  ASP27      -0.2456
     49  OD2       24.7690   -2.7070  118.5740 O.co2  27  ASP27      -0.2456
     50  N         20.6320   -0.3770  120.4470 N.am   28  PHE28      -0.1960
     51  CA        19.4120   -1.0580  120.8520 C.3    28  PHE28       0.1771
     52  C         18.9160   -2.0170  119.7820 C.2    28  PHE28       0.2620
     53  O         17.7740   -2.4800  119.8610 O.2    28  PHE28      -0.2715
     54  CB        18.3200   -0.0450  121.1940 C.3    28  PHE28       0.0574
     55  CG        18.6630    0.8570  122.3450 C.ar   28  PHE28      -0.0200
     56  CD1       18.3420    0.4980  123.6420 C.ar   28  PHE28      -0.0042
     57  CD2       19.2950    2.0700  122.1280 C.ar   28  PHE28      -0.0042
     58  CE1       18.6490    1.3330  124.7040 C.ar   28  PHE28      -0.0003
     59  CE2       19.6050    2.9090  123.1850 C.ar   28  PHE28      -0.0003
     60  CZ        19.2820    2.5400  124.4740 C.ar   28  PHE28      -0.0000
     61  N         19.7420   -2.3100  118.7770 N.am   29  GLY29      -0.1940
     62  CA        19.3740   -3.2390  117.7280 C.3    29  GLY29       0.2014
     63  C         18.4790   -2.6760  116.6510 C.2    29  GLY29       0.2639
     64  O         17.7930   -3.4450  115.9720 O.2    29  GLY29      -0.2714
     65  N         18.4760   -1.3580  116.4570 N.am   30  PHE30      -0.1959
     66  CA        17.5230   -0.6960  115.5720 C.3    30  PHE30       0.1771
     67  C         18.2080   -0.3060  114.2650 C.2    30  PHE30       0.2619
     68  O         18.9930    0.6460  114.2250 O.2    30  PHE30      -0.2715
     69  CB        16.9140    0.5270  116.2550 C.3    30  PHE30       0.0574
     70  CG        15.8970    1.2420  115.4160 C.ar   30  PHE30      -0.0200
     71  CD1       14.6280    0.7150  115.2460 C.ar   30  PHE30      -0.0042
     72  CD2       16.2080    2.4410  114.7950 C.ar   30  PHE30      -0.0042
     73  CE1       13.6870    1.3680  114.4730 C.ar   30  PHE30      -0.0003
     74  CE2       15.2720    3.0990  114.0180 C.ar   30  PHE30      -0.0003
     75  CZ        14.0100    2.5630  113.8590 C.ar   30  PHE30      -0.0000
     76  N         17.9040   -1.0450  113.2020 N.am   31  ASP31      -0.1971
     77  CA        18.2850   -0.7150  111.8350 C.3    31  ASP31       0.1709
     78  C         17.4100   -1.5340  110.8930 C.2    31  ASP31       0.2293
     79  O         17.9240   -2.3550  110.1230 O.2    31  ASP31      -0.2864
     80  CB        19.7720   -0.9880  111.5890 C.3    31  ASP31       0.1436
     81  CG        20.2330   -0.5470  110.2040 C.2    31  ASP31       0.3671
     82  OD1       19.4790    0.1760  109.5180 O.co2  31  ASP31      -0.2456
     83  OD2       21.3580   -0.9210  109.8050 O.co2  31  ASP31      -0.2456
     84  N         20.4470    0.0830  106.9750 N.3    35  LEU35      -0.1231
     85  CA        21.2480    1.2060  106.4970 C.3    35  LEU35       0.1693
     86  C         22.6990    1.0950  106.9500 C.2    35  LEU35       0.2592
     87  O         23.5990    1.5990  106.2700 O.2    35  LEU35      -0.2718
     88  CB        20.6370    2.5260  106.9650 C.3    35  LEU35       0.0284
     89  CG        19.1890    2.7830  106.5440 C.3    35  LEU35       0.0019
     90  CD1       18.7430    4.1670  106.9810 C.3    35  LEU35       0.0001
     91  CD2       19.0210    2.6210  105.0450 C.3    35  LEU35       0.0001
     92  N         22.9460    0.4430  108.0820 N.am   36  GLY36      -0.1957
     93  CA        24.3020    0.1670  108.5130 C.3    36  GLY36       0.1869
     94  C         24.6650   -1.2850  108.2890 C.2    36  GLY36       0.2309
     95  O         25.4720   -1.8620  109.0260 O.2    36  GLY36      -0.2863
     96  N         28.1140    1.5970  108.1960 N.3    42  LEU42      -0.1245
     97  CA        27.8260    1.7420  109.6190 C.3    42  LEU42       0.1561
     98  C         28.8550    2.6370  110.2950 C.2    42  LEU42       0.2260
     99  O         28.5050    3.4520  111.1520 O.2    42  LEU42      -0.2867
    100  CB        27.7740    0.3750  110.2990 C.3    42  LEU42       0.0270
    101  CG        27.6180    0.4190  111.8230 C.3    42  LEU42       0.0019
    102  CD1       26.3770    1.2020  112.2280 C.3    42  LEU42       0.0001
    103  CD2       27.5710   -0.9800  112.4050 C.3    42  LEU42       0.0001
    104  N         27.9750    6.1750  109.2590 N.3    45  ASN45      -0.1225
    105  CA        26.7490    6.6250  109.9020 C.3    45  ASN45       0.1785
    106  C         26.9200    6.8020  111.4030 C.2    45  ASN45       0.2597
    107  O         26.1590    7.5520  112.0160 O.2    45  ASN45      -0.2718
    108  CB        25.6200    5.6410  109.6030 C.3    45  ASN45       0.1169
    109  CG        25.2610    5.6040  108.1340 C.2    45  ASN45       0.2627
    110  OD1       25.4240    6.5910  107.4200 O.2    45  ASN45      -0.2716
    111  ND2       24.7770    4.4600  107.6730 N.am   45  ASN45      -0.0877
    112  N         27.8740    6.1000  112.0170 N.am   46  VAL46      -0.1980
    113  CA        28.1800    6.3440  113.4240 C.3    46  VAL46       0.1595
    114  C         28.7330    7.7490  113.5880 C.2    46  VAL46       0.2287
    115  O         28.2990    8.5140  114.4640 O.2    46  VAL46      -0.2864
    116  CB        29.1590    5.2850  113.9610 C.3    46  VAL46       0.0276
    117  CG1       29.8540    5.7970  115.2140 C.3    46  VAL46       0.0022
    118  CG2       28.4270    3.9890  114.2610 C.3    46  VAL46       0.0022
    119  N         28.1530   10.1830  111.5160 N.3    48  ALA48      -0.1231
    120  CA        27.0210   11.0540  111.2120 C.3    48  ALA48       0.1694
    121  C         26.1350   11.2470  112.4350 C.2    48  ALA48       0.2591
    122  O         25.9620   12.3700  112.9170 O.2    48  ALA48      -0.2718
    123  CB        26.2170   10.4800  110.0450 C.3    48  ALA48       0.0304
    124  N         25.5820   10.1520  112.9630 N.am   49  GLU49      -0.1979
    125  CA        24.7180   10.2200  114.1390 C.3    49  GLU49       0.1602
    126  C         25.3730   10.9970  115.2710 C.2    49  GLU49       0.2287
    127  O         24.6970   11.7290  116.0020 O.2    49  GLU49      -0.2864
    128  CB        24.3660    8.8110  114.6140 C.3    49  GLU49       0.0415
    129  CG        23.2500    8.7620  115.6410 C.3    49  GLU49       0.1163
    130  CD        23.1910    7.4350  116.3640 C.2    49  GLU49       0.3649
    131  OE1       24.1920    6.6870  116.3170 O.co2  49  GLU49      -0.2457
    132  OE2       22.1500    7.1390  116.9860 O.co2  49  GLU49      -0.2457
    133  N         25.3710   14.8930  114.1330 N.3    52  HIS52      -0.1241
    134  CA        23.9760   15.3180  114.2340 C.3    52  HIS52       0.1621
    135  C         23.5330   15.4350  115.6840 C.2    52  HIS52       0.2264
    136  O         22.8120   16.3690  116.0510 O.2    52  HIS52      -0.2867
    137  CB        23.0610   14.3300  113.5120 C.3    52  HIS52       0.0745
    138  CG        23.2260   14.3130  112.0280 C.ar   52  HIS52       0.0817
    139  ND1       22.5180   15.1490  111.1930 N.ar   52  HIS52      -0.2268
    140  CD2       23.9970   13.5440  111.2250 C.ar   52  HIS52       0.1154
    141  CE1       22.8570   14.9030  109.9410 C.ar   52  HIS52       0.1986
    142  NE2       23.7540   13.9360  109.9320 N.ar   52  HIS52      -0.2212
    143  N         24.9500    9.7760  123.1150 N.3   165  ILE165     -0.1245
    144  CA        24.1680    9.4540  121.9260 C.3   165  ILE165      0.1561
    145  C         22.6750    9.4970  122.2300 C.2   165  ILE165      0.2260
    146  O         21.8740    9.9290  121.3930 O.2   165  ILE165     -0.2867
    147  CB        24.5970    8.0900  121.3580 C.3   165  ILE165      0.0252
    148  CG1       26.0690    8.1370  120.9560 C.3   165  ILE165      0.0019
    149  CG2       23.7440    7.7210  120.1570 C.3   165  ILE165      0.0019
    150  CD1       26.6120    6.8210  120.4770 C.3   165  ILE165      0.0001
    151  N         20.0720   11.9520  120.3950 N.3   169  ARG169     -0.1245
    152  CA        18.8590   11.5150  119.7090 C.3   169  ARG169      0.1563
    153  C         17.6510   12.3050  120.1980 C.2   169  ARG169      0.2260
    154  O         16.8790   12.8610  119.3960 O.2   169  ARG169     -0.2867
    155  CB        18.6560   10.0140  119.9200 C.3   169  ARG169      0.0307
    156  CG        19.7050    9.1420  119.2350 C.3   169  ARG169      0.0489
    157  CD        19.7210    7.7210  119.7890 C.3   169  ARG169      0.2205
    158  NE        20.6460    6.8660  119.0480 N.pl3 169  ARG169     -0.0865
    159  CZ        20.9180    5.6000  119.3570 C.cat 169  ARG169      0.5346
    160  NH1       20.3360    5.0270  120.4040 N.pl3 169  ARG169      0.1354
    161  NH2       21.7750    4.9070  118.6160 N.pl3 169  ARG169      0.1354
    162  N         17.8220   15.7680  118.7040 N.3   172  MET172     -0.1230
    163  CA        17.3790   15.8090  117.3130 C.3   172  MET172      0.1702
    164  C         15.8580   15.8720  117.2360 C.2   172  MET172      0.2592
    165  O         15.2800   16.7880  116.6190 O.2   172  MET172     -0.2718
    166  CB        17.9170   14.5890  116.5560 C.3   172  MET172      0.0401
    167  CG        19.4330   14.5870  116.3740 C.3   172  MET172      0.0596
    168  SD        20.1030   13.2810  115.3250 S.3   172  MET172     -0.1393
    169  CE        20.3280   11.9600  116.5100 C.3   172  MET172      0.0692
    170  N         15.1910   14.9190  117.8990 N.am  173  LEU173     -0.1980
    171  CA        13.7320   14.9160  117.9040 C.3   173  LEU173      0.1596
    172  C         13.1600   16.2190  118.4460 C.2   173  LEU173      0.2287
    173  O         12.1150   16.6780  117.9740 O.2   173  LEU173     -0.2864
    174  CB        13.2180   13.7330  118.7190 C.3   173  LEU173      0.0297
    175  CG        13.5750   12.3790  118.1160 C.3   173  LEU173      0.0022
    176  CD1       13.0080   11.2640  118.9650 C.3   173  LEU173      0.0001
    177  CD2       13.0550   12.2950  116.6950 C.3   173  LEU173      0.0001
    178  N         13.7000   19.2820  115.7570 N.3   176  MET176     -0.1245
    179  CA        12.6700   19.1720  114.7280 C.3   176  MET176      0.1570
    180  C         11.2810   19.3670  115.3220 C.2   176  MET176      0.2261
    181  O         10.3710   19.8540  114.6360 O.2   176  MET176     -0.2867
    182  CB        12.7730   17.8280  114.0080 C.3   176  MET176      0.0387
    183  CG        14.0860   17.6280  113.2610 C.3   176  MET176      0.0595
    184  SD        14.5170   18.9840  112.1450 S.3   176  MET176     -0.1393
    185  CE        13.1120   18.9900  111.0340 C.3   176  MET176      0.0692
    186  N          8.5560   21.9250  113.5670 N.3   180  PHE180     -0.1241
    187  CA         7.2090   21.6330  113.0830 C.3   180  PHE180      0.1605
    188  C          6.1370   22.2660  113.9610 C.2   180  PHE180      0.2264
    189  O          5.0270   22.5260  113.4860 O.2   180  PHE180     -0.2867
    190  CB         6.9900   20.1240  112.9940 C.3   180  PHE180      0.0534
    191  CG         7.6970   19.4770  111.8420 C.ar  180  PHE180     -0.0203
    192  CD1        7.1040   19.4190  110.5940 C.ar  180  PHE180     -0.0042
    193  CD2        8.9550   18.9210  112.0070 C.ar  180  PHE180     -0.0042
    194  CE1        7.7540   18.8210  109.5340 C.ar  180  PHE180     -0.0003
    195  CE2        9.6100   18.3220  110.9500 C.ar  180  PHE180     -0.0003
    196  CZ         9.0100   18.2720  109.7130 C.ar  180  PHE180     -0.0000
@<TRIPOS>BOND
     1    91    89    1
     2    87    86    2
     3    85    86    1
     4    85    88    1
     5    85    84    1
     6    89    88    1
     7    89    90    1
     8    86    92   am
     9   110   109    2
    10   111   109   am
    11    92    93    1
    12   109   108    1
    13    96    97    1
    14    94    93    1
    15    94    95    2
    16   104   105    1
    17    82    81   ar
    18   194   196   ar
    19   194   192   ar
    20   108   105    1
    21    97    98    1
    22    97   100    1
    23   196   195   ar
    24    83    81   ar
    25   105   106    1
    26   142   141   ar
    27   142   140   ar
    28   141   139   ar
    29   123   120    1
    30    79    78    2
    31    81    80    1
    32    98    99    2
    33   100   101    1
    34   192   191   ar
    35    78    77    1
    36   195   193   ar
    37   185   184    1
    38   139   138   ar
    39   120   119    1
    40   120   121    1
    41   140   138   ar
    42   106   107    2
    43   106   112   am
    44    80    77    1
    45   101   102    1
    46   101   103    1
    47    77    76    1
    48   191   193   ar
    49   191   190    1
    50   112   113    1
    51   138   137    1
    52   184   183    1
    53   121   122    2
    54   121   124   am
    55   124   125    1
    56   190   187    1
    57   187   186    1
    58   187   188    1
    59    76    67   am
    60   183   182    1
    61   113   114    1
    62   113   116    1
    63   189   188    2
    64   137   134    1
    65   114   115    2
    66    75    74   ar
    67    75    73   ar
    68   116   118    1
    69   116   117    1
    70   182   179    1
    71    74    72   ar
    72   133   134    1
    73   125   128    1
    74   125   126    1
    75    68    67    2
    76   134   135    1
    77    67    66    1
    78    22    20    1
    79    15    16    1
    80    73    71   ar
    81   128   129    1
    82   181   180    2
    83    20    21    1
    84    20    19    1
    85   179   180    1
    86   179   178    1
    87    72    70   ar
    88    14    12   ar
    89    14    13   ar
    90    12    10   ar
    91    71    70   ar
    92   126   127    2
    93   168   167    1
    94   168   169    1
    95    70    69    1
    96    66    69    1
    97    66    65    1
    98   129   130    1
    99   135   136    2
   100    16    19    1
   101    16    17    1
   102    29    28    1
   103    13    11   ar
   104    64    63    2
   105   131   130   ar
   106    10     9   ar
   107    10     8   ar
   108   130   132   ar
   109   167   166    1
   110    65    63   am
   111   166   163    1
   112   165   164    2
   113    63    62    1
   114   177   175    1
   115     9     7   ar
   116    17    18    2
   117    30    28    1
   118    28    27    1
   119    11     8   ar
   120   164   163    1
   121   164   170   am
   122     8     6   ar
   123   163   162    1
   124    62    61    1
   125   170   171    1
   126   171   172    1
   127   171   174    1
   128     7     6   ar
   129   173   172    2
   130   175   174    1
   131   175   176    1
   132     6     5    1
   133    27    24    1
   134    49    47   ar
   135   161   159    1
   136    61    52   am
   137    48    47   ar
   138   158   159    2
   139   158   157    1
   140    47    46    1
   141   156   157    1
   142   156   155    1
   143   159   160    1
   144   154   153    2
   145     5     2    1
   146    24    23    1
   147    24    25    1
   148   152   155    1
   149   152   153    1
   150   152   151    1
   151    52    53    2
   152    52    51    1
   153    46    43    1
   154   149   147    1
   155    41    40    2
   156    43    44    1
   157    43    42    1
   158    50    51    1
   159    50    44   am
   160   150   148    1
   161    34    33    2
   162     3     2    1
   163     3     4    2
   164     2     1    1
   165    51    54    1
   166    25    31   am
   167    25    26    2
   168   148   147    1
   169    44    45    2
   170    37    31    1
   171    37    36    1
   172    40    42   am
   173    40    39    1
   174    54    55    1
   175    31    32    1
   176   147   144    1
   177   146   145    2
   178    33    32    1
   179    33    38   am
   180   144   145    1
   181   144   143    1
   182    39    38    1
   183    57    55   ar
   184    57    59   ar
   185    36    35    1
   186    32    35    1
   187    55    56   ar
   188    59    60   ar
   189    56    58   ar
   190    60    58   ar
