@<TRIPOS>MOLECULE
tmp/5l8rF06.pdb
 129 128 0 0 0
SMALL
GASTEIGER

@<TRIPOS>ATOM
      1  N         28.1390   -0.7100   21.4790 N.3    46  PHE46      -0.1241
      2  CA        28.2070    0.2240   20.3580 C.3    46  PHE46       0.1605
      3  C         26.8720    0.2960   19.6170 C.2    46  PHE46       0.2264
      4  O         26.2960    1.3820   19.4230 O.2    46  PHE46      -0.2867
      5  CB        29.3440   -0.2330   19.4350 C.3    46  PHE46       0.0534
      6  CG        29.8410    0.8140   18.4760 C.ar   46  PHE46      -0.0203
      7  CD1       30.1460    2.0940   18.9030 C.ar   46  PHE46      -0.0042
      8  CD2       30.0590    0.4890   17.1470 C.ar   46  PHE46      -0.0042
      9  CE1       30.6230    3.0430   18.0070 C.ar   46  PHE46      -0.0003
     10  CE2       30.5370    1.4250   16.2550 C.ar   46  PHE46      -0.0003
     11  CZ        30.8180    2.7040   16.6820 C.ar   46  PHE46      -0.0000
     12  N         23.9890    3.3780   19.0060 N.3    50  PHE50      -0.1241
     13  CA        23.2610    3.8190   17.8180 C.3    50  PHE50       0.1605
     14  C         21.7530    3.7470   18.0320 C.2    50  PHE50       0.2264
     15  O         21.0170    4.6500   17.6170 O.2    50  PHE50      -0.2867
     16  CB        23.6670    2.9940   16.6000 C.3    50  PHE50       0.0534
     17  CG        25.0590    3.2680   16.1240 C.ar   50  PHE50      -0.0203
     18  CD1       25.3410    4.4100   15.3940 C.ar   50  PHE50      -0.0042
     19  CD2       26.0870    2.3870   16.4070 C.ar   50  PHE50      -0.0042
     20  CE1       26.6220    4.6670   14.9540 C.ar   50  PHE50      -0.0003
     21  CE2       27.3710    2.6400   15.9690 C.ar   50  PHE50      -0.0003
     22  CZ        27.6400    3.7820   15.2420 C.ar   50  PHE50      -0.0000
     23  N         20.6950    6.7560   20.0980 N.3    53  LEU53      -0.1245
     24  CA        20.6750    7.9610   19.2720 C.3    53  LEU53       0.1561
     25  C         19.4410    7.9920   18.3810 C.2    53  LEU53       0.2260
     26  O         18.7790    9.0300   18.2600 O.2    53  LEU53      -0.2867
     27  CB        21.9510    8.0480   18.4300 C.3    53  LEU53       0.0270
     28  CG        23.2570    8.3380   19.1780 C.3    53  LEU53       0.0019
     29  CD1       24.4640    8.2140   18.2670 C.3    53  LEU53       0.0001
     30  CD2       23.2100    9.7140   19.7900 C.3    53  LEU53       0.0001
     31  N         19.2540    6.6680    9.9250 N.3   147  ILE147     -0.1231
     32  CA        20.6640    6.3860    9.6630 C.3   147  ILE147      0.1692
     33  C         21.3810    5.9020   10.9180 C.2   147  ILE147      0.2592
     34  O         22.3960    5.2000   10.8140 O.2   147  ILE147     -0.2718
     35  CB        21.3910    7.6030    9.0560 C.3   147  ILE147      0.0266
     36  CG1       21.7120    8.6400   10.1260 C.3   147  ILE147      0.0019
     37  CG2       20.5700    8.2190    7.9300 C.3   147  ILE147      0.0020
     38  CD1       22.6260    9.7390    9.6370 C.3   147  ILE147      0.0001
     39  N         20.8760    6.2460   12.1070 N.am  148  SER148     -0.1952
     40  CA        21.4070    5.6520   13.3300 C.3   148  SER148      0.1924
     41  C         21.1440    4.1550   13.3550 C.2   148  SER148      0.2314
     42  O         22.0590    3.3530   13.5890 O.2   148  SER148     -0.2863
     43  CB        20.7940    6.3200   14.5620 C.3   148  SER148      0.2116
     44  OG        21.3590    7.5960   14.7930 O.3   148  SER148     -0.2180
     45  N         20.7450    2.3930   10.8470 N.3   150  LEU150     -0.1231
     46  CA        21.5370    1.8310    9.7570 C.3   150  LEU150      0.1693
     47  C         22.9730    1.5640   10.1910 C.2   150  LEU150      0.2591
     48  O         23.5330    0.5030    9.8950 O.2   150  LEU150     -0.2718
     49  CB        21.5060    2.7730    8.5540 C.3   150  LEU150      0.0284
     50  CG        22.1990    2.2460    7.3000 C.3   150  LEU150      0.0019
     51  CD1       21.6740    0.8590    6.9590 C.3   150  LEU150      0.0001
     52  CD2       22.0050    3.2040    6.1290 C.3   150  LEU150      0.0001
     53  N         23.5930    2.5200   10.8870 N.am  151  ALA151     -0.1980
     54  CA        24.9760    2.3280   11.3150 C.3   151  ALA151      0.1597
     55  C         25.0740    1.2730   12.4080 C.2   151  ALA151      0.2287
     56  O         25.9960    0.4450   12.3990 O.2   151  ALA151     -0.2864
     57  CB        25.5700    3.6520   11.7930 C.3   151  ALA151      0.0319
     58  N         24.8620   -1.9070   10.7920 N.3   154  LEU154     -0.1231
     59  CA        26.0350   -2.1550    9.9600 C.3   154  LEU154      0.1693
     60  C         27.2060   -2.6740   10.7830 C.2   154  LEU154      0.2592
     61  O         27.8620   -3.6490   10.3990 O.2   154  LEU154     -0.2718
     62  CB        26.4260   -0.8770    9.2180 C.3   154  LEU154      0.0284
     63  CG        27.6820   -0.9750    8.3510 C.3   154  LEU154      0.0019
     64  CD1       27.4890   -2.0010    7.2430 C.3   154  LEU154      0.0001
     65  CD2       28.0430    0.3810    7.7720 C.3   154  LEU154      0.0001
     66  N         27.4850   -2.0420   11.9210 N.am  155  HIS155     -0.1976
     67  CA        28.6590   -2.4180   12.7000 C.3   155  HIS155      0.1656
     68  C         28.4640   -3.6910   13.5080 C.2   155  HIS155      0.2291
     69  O         29.3160   -4.0190   14.3400 O.2   155  HIS155     -0.2864
     70  CB        29.0670   -1.2680   13.6120 C.3   155  HIS155      0.0771
     71  CG        29.5820   -0.0870   12.8620 C.ar  155  HIS155      0.0820
     72  ND1       30.7220   -0.1400   12.0900 N.ar  155  HIS155     -0.2267
     73  CD2       29.0970    1.1690   12.7370 C.ar  155  HIS155      0.1154
     74  CE1       30.9260    1.0400   11.5330 C.ar  155  HIS155      0.1986
     75  NE2       29.9530    1.8510   11.9090 N.ar  155  HIS155     -0.2212
     76  N         33.7040   -7.5120    9.4670 N.3   159  LYS159     -0.1231
     77  CA        34.4600   -6.5340    8.6840 C.3   159  LYS159      0.1693
     78  C         33.9220   -5.1190    8.8820 C.2   159  LYS159      0.2592
     79  O         34.5880   -4.1430    8.5250 O.2   159  LYS159     -0.2718
     80  CB        34.4790   -6.9020    7.1970 C.3   159  LYS159      0.0285
     81  CG        35.1890   -8.2160    6.9010 C.3   159  LYS159      0.0035
     82  CD        36.5850   -8.2600    7.5200 C.3   159  LYS159      0.0206
     83  CE        37.5540   -7.3230    6.8110 C.3   159  LYS159      0.1093
     84  NZ        38.9310   -7.4160    7.3750 N.3   159  LYS159     -0.1314
     85  N         32.7200   -4.9980    9.4450 N.am  160  TRP160     -0.1976
     86  CA        32.2160   -3.7330    9.9490 C.3   160  TRP160      0.1640
     87  C         32.1410   -3.6930   11.4690 C.2   160  TRP160      0.2290
     88  O         31.9150   -2.6160   12.0310 O.2   160  TRP160     -0.2864
     89  CB        30.8300   -3.4290    9.3570 C.3   160  TRP160      0.0576
     90  CG        30.8610   -3.0100    7.9160 C.ar  160  TRP160      0.0006
     91  CD1       31.1090   -1.7600    7.4340 C.ar  160  TRP160      0.0946
     92  CD2       30.6260   -3.8410    6.7740 C.ar  160  TRP160      0.0152
     93  NE1       31.0500   -1.7610    6.0630 N.ar  160  TRP160     -0.2442
     94  CE2       30.7540   -3.0270    5.6330 C.ar  160  TRP160      0.0810
     95  CE3       30.3220   -5.1940    6.6060 C.ar  160  TRP160      0.0012
     96  CZ2       30.5890   -3.5200    4.3400 C.ar  160  TRP160      0.0191
     97  CZ3       30.1590   -5.6830    5.3220 C.ar  160  TRP160      0.0001
     98  CH2       30.2930   -4.8480    4.2060 C.ar  160  TRP160      0.0015
     99  N         34.0470   -3.5100   14.8720 N.3   162  PRO162     -0.2116
    100  CA        35.4110   -3.1370   15.2530 C.3   162  PRO162      0.1372
    101  C         35.9990   -4.0720   16.2970 C.2   162  PRO162      0.2244
    102  O         35.2910   -4.6790   17.1030 O.2   162  PRO162     -0.2868
    103  CB        35.2400   -1.7250   15.8270 C.3   162  PRO162      0.0268
    104  CG        33.8820   -1.2720   15.3810 C.3   162  PRO162      0.0207
    105  CD        33.0630   -2.5120   15.3130 C.3   162  PRO162      0.0892
    106  N         40.4520   -1.3540   18.8470 N.3   166  TRP166     -0.1241
    107  CA        39.9790   -0.0770   18.3240 C.3   166  TRP166      0.1605
    108  C         39.1850    0.6890   19.3750 C.2   166  TRP166      0.2264
    109  O         39.3700    1.9030   19.5370 O.2   166  TRP166     -0.2867
    110  CB        39.1350   -0.3110   17.0710 C.3   166  TRP166      0.0550
    111  CG        38.5810    0.9410   16.4790 C.ar  166  TRP166      0.0003
    112  CD1       39.2170    1.7970   15.6330 C.ar  166  TRP166      0.0946
    113  CD2       37.2720    1.4820   16.6890 C.ar  166  TRP166      0.0152
    114  NE1       38.3870    2.8410   15.3020 N.ar  166  TRP166     -0.2442
    115  CE2       37.1860    2.6710   15.9380 C.ar  166  TRP166      0.0810
    116  CE3       36.1670    1.0800   17.4440 C.ar  166  TRP166      0.0012
    117  CZ2       36.0370    3.4620   15.9200 C.ar  166  TRP166      0.0191
    118  CZ3       35.0260    1.8590   17.4160 C.ar  166  TRP166      0.0001
    119  CH2       34.9690    3.0360   16.6580 C.ar  166  TRP166      0.0015
    120  N         36.9770   13.6150   19.6810 N.3   177  HIS177     -0.1241
    121  CA        35.8360   14.0940   20.4490 C.3   177  HIS177      0.1621
    122  C         36.0350   15.5350   20.8970 C.2   177  HIS177      0.2264
    123  O         35.1090   16.3490   20.8150 O.2   177  HIS177     -0.2867
    124  CB        35.5880   13.1790   21.6420 C.3   177  HIS177      0.0745
    125  CG        34.8940   11.9060   21.2780 C.ar  177  HIS177      0.0817
    126  ND1       34.4520   11.0020   22.2180 N.ar  177  HIS177     -0.2268
    127  CD2       34.5590   11.3900   20.0720 C.ar  177  HIS177      0.1154
    128  CE1       33.8770    9.9830   21.6070 C.ar  177  HIS177      0.1986
    129  NE2       33.9280   10.1950   20.3060 N.ar  177  HIS177     -0.2212
@<TRIPOS>BOND
     1    98    96   ar
     2    98    97   ar
     3    96    94   ar
     4    97    95   ar
     5    94    93   ar
     6    94    92   ar
     7    93    91   ar
     8    52    50    1
     9    95    92   ar
    10    92    90   ar
    11    83    84    1
    12    83    82    1
    13    81    80    1
    14    81    82    1
    15    51    50    1
    16    80    77    1
    17    64    63    1
    18    50    49    1
    19    91    90   ar
    20    65    63    1
    21    90    89    1
    22    37    35    1
    23    63    62    1
    24    79    78    2
    25    49    46    1
    26    77    78    1
    27    77    76    1
    28    78    85   am
    29    35    32    1
    30    35    36    1
    31    62    59    1
    32    89    86    1
    33    85    86    1
    34    38    36    1
    35    32    31    1
    36    32    33    1
    37    46    47    1
    38    46    45    1
    39    48    47    2
    40    86    87    1
    41    59    60    1
    42    59    58    1
    43    47    53   am
    44    61    60    2
    45    60    66   am
    46    34    33    2
    47    53    54    1
    48    33    39   am
    49    54    57    1
    50    54    55    1
    51    87    88    2
    52    74    75   ar
    53    74    72   ar
    54    75    73   ar
    55    66    67    1
    56    72    71   ar
    57    39    40    1
    58    56    55    2
    59    67    68    1
    60    67    70    1
    61    73    71   ar
    62    71    70    1
    63    40    41    1
    64    40    43    1
    65    41    42    2
    66    68    69    2
    67    43    44    1
    68    99   100    1
    69    99   105    1
    70    20    22   ar
    71    20    18   ar
    72    22    21   ar
    73   100   103    1
    74   100   101    1
    75   114   112   ar
    76   114   115   ar
    77   105   104    1
    78   104   103    1
    79    18    17   ar
    80   112   111   ar
    81   117   115   ar
    82   117   119   ar
    83   115   113   ar
    84    21    19   ar
    85    17    19   ar
    86    17    16    1
    87    10    11   ar
    88    10     8   ar
    89   101   102    2
    90   111   113   ar
    91   111   110    1
    92    16    13    1
    93   119   118   ar
    94    11     9   ar
    95   113   116   ar
    96   110   107    1
    97     8     6   ar
    98   118   116   ar
    99    15    14    2
   100    13    14    1
   101    13    12    1
   102     9     7   ar
   103    26    25    2
   104    29    28    1
   105   107   106    1
   106   107   108    1
   107    25    24    1
   108    27    28    1
   109    27    24    1
   110     6     7   ar
   111     6     5    1
   112    28    30    1
   113    24    23    1
   114   108   109    2
   115     4     3    2
   116     5     2    1
   117     3     2    1
   118   120   121    1
   119   127   129   ar
   120   127   125   ar
   121   129   128   ar
   122     2     1    1
   123   121   122    1
   124   121   124    1
   125   123   122    2
   126   125   124    1
   127   125   126   ar
   128   128   126   ar
