@<TRIPOS>MOLECULE
tmp/5l8rE02.pdb
 203 201 0 0 0
SMALL
GASTEIGER

@<TRIPOS>ATOM
      1  N        -12.4870  -26.9640   96.5110 N.3     3  VAL3       -0.1245
      2  CA       -11.9020  -25.6410   96.3150 C.3     3  VAL3        0.1561
      3  C        -11.5770  -25.0110   97.6630 C.2     3  VAL3        0.2260
      4  O        -12.3800  -25.0560   98.6040 O.2     3  VAL3       -0.2867
      5  CB       -12.8620  -24.7600   95.4980 C.3     3  VAL3        0.0252
      6  CG1      -12.2640  -23.3900   95.2630 C.3     3  VAL3        0.0019
      7  CG2      -13.2000  -25.4330   94.1760 C.3     3  VAL3        0.0019
      8  N          2.8180  -13.7180   87.1810 N.3    63  VAL63      -0.1231
      9  CA         1.6950  -13.0630   86.5100 C.3    63  VAL63       0.1692
     10  C          0.8090  -12.3520   87.5270 C.2    63  VAL63       0.2592
     11  O          0.4760  -11.1690   87.3770 O.2    63  VAL63      -0.2718
     12  CB         0.8990  -14.0930   85.6860 C.3    63  VAL63       0.0266
     13  CG1       -0.4430  -13.5290   85.2510 C.3    63  VAL63       0.0020
     14  CG2        1.7060  -14.5500   84.4760 C.3    63  VAL63       0.0020
     15  N          0.4350  -13.0650   88.5890 N.am   64  PHE64      -0.1976
     16  CA        -0.4500  -12.5190   89.6160 C.3    64  PHE64       0.1639
     17  C          0.1260  -11.2430   90.2310 C.2    64  PHE64       0.2290
     18  O         -0.5250  -10.1810   90.2400 O.2    64  PHE64      -0.2864
     19  CB        -0.6740  -13.6050   90.6720 C.3    64  PHE64       0.0560
     20  CG        -1.7810  -13.3220   91.6370 C.ar   64  PHE64      -0.0200
     21  CD1       -3.0350  -12.9410   91.1950 C.ar   64  PHE64      -0.0042
     22  CD2       -1.5730  -13.4890   92.9950 C.ar   64  PHE64      -0.0042
     23  CE1       -4.0540  -12.7030   92.0990 C.ar   64  PHE64      -0.0003
     24  CE2       -2.5850  -13.2500   93.9010 C.ar   64  PHE64      -0.0003
     25  CZ        -3.8280  -12.8570   93.4530 C.ar   64  PHE64      -0.0000
     26  N          0.1190   -8.3000   87.9200 N.3    67  HIS67      -0.1226
     27  CA        -1.1810   -7.6430   87.8650 C.3    67  HIS67       0.1752
     28  C         -1.3550   -6.6850   89.0320 C.2    67  HIS67       0.2596
     29  O         -1.8990   -5.5810   88.8680 O.2    67  HIS67      -0.2718
     30  CB        -2.2980   -8.6770   87.8560 C.3    67  HIS67       0.0759
     31  CG        -2.2900   -9.5530   86.6490 C.ar   67  HIS67       0.0818
     32  ND1       -3.2300  -10.5370   86.4400 N.ar   67  HIS67      -0.2268
     33  CD2       -1.4540   -9.5970   85.5870 C.ar   67  HIS67       0.1154
     34  CE1       -2.9750  -11.1490   85.3000 C.ar   67  HIS67       0.1986
     35  NE2       -1.9000  -10.6010   84.7640 N.ar   67  HIS67      -0.2212
     36  N         -0.8880   -7.0770   90.2200 N.am   68  PHE68      -0.1976
     37  CA        -0.9140   -6.1170   91.3210 C.3    68  PHE68       0.1639
     38  C         -0.1230   -4.8560   90.9850 C.2    68  PHE68       0.2290
     39  O         -0.5790   -3.7400   91.2660 O.2    68  PHE68      -0.2864
     40  CB        -0.3870   -6.7530   92.5980 C.3    68  PHE68       0.0560
     41  CG        -1.3760   -7.6420   93.2690 C.ar   68  PHE68      -0.0200
     42  CD1       -2.4780   -7.1080   93.9110 C.ar   68  PHE68      -0.0042
     43  CD2       -1.2120   -9.0130   93.2560 C.ar   68  PHE68      -0.0042
     44  CE1       -3.3970   -7.9280   94.5310 C.ar   68  PHE68      -0.0003
     45  CE2       -2.1270   -9.8350   93.8760 C.ar   68  PHE68      -0.0003
     46  CZ        -3.2220   -9.2900   94.5150 C.ar   68  PHE68      -0.0000
     47  N         -2.2300   -2.6420   88.7450 N.3    71  LEU71      -0.1245
     48  CA        -3.3100   -1.9620   89.4580 C.3    71  LEU71       0.1561
     49  C         -2.7750   -0.8420   90.3420 C.2    71  LEU71       0.2260
     50  O         -3.3990    0.2210   90.4560 O.2    71  LEU71      -0.2867
     51  CB        -4.1170   -2.9630   90.2820 C.3    71  LEU71       0.0270
     52  CG        -4.9110   -3.9670   89.4440 C.3    71  LEU71       0.0019
     53  CD1       -5.9180   -4.7060   90.3030 C.3    71  LEU71       0.0001
     54  CD2       -5.6050   -3.2600   88.2860 C.3    71  LEU71       0.0001
     55  N         -4.0550    3.0180   90.0990 N.3    75  PHE75      -0.1241
     56  CA        -4.5510    3.8050   91.2240 C.3    75  PHE75       0.1605
     57  C         -3.7210    5.0660   91.4300 C.2    75  PHE75       0.2264
     58  O         -4.2590    6.1110   91.8130 O.2    75  PHE75      -0.2867
     59  CB        -4.5610    2.9640   92.5010 C.3    75  PHE75       0.0534
     60  CG        -5.8140    2.1600   92.6960 C.ar   75  PHE75      -0.0203
     61  CD1       -7.0260    2.7850   92.9530 C.ar   75  PHE75      -0.0042
     62  CD2       -5.7770    0.7780   92.6460 C.ar   75  PHE75      -0.0042
     63  CE1       -8.1800    2.0450   93.1420 C.ar   75  PHE75      -0.0003
     64  CE2       -6.9230    0.0300   92.8370 C.ar   75  PHE75      -0.0003
     65  CZ        -8.1270    0.6640   93.0850 C.ar   75  PHE75      -0.0000
     66  N         -5.0180    3.0210   97.8750 N.3   159  PHE159     -0.1241
     67  CA        -5.2430    1.7570   97.1810 C.3   159  PHE159      0.1605
     68  C         -4.0730    1.3920   96.2830 C.2   159  PHE159      0.2264
     69  O         -3.7860    0.2050   96.1040 O.2   159  PHE159     -0.2867
     70  CB        -6.5400    1.8090   96.3770 C.3   159  PHE159      0.0534
     71  CG        -7.7600    1.5240   97.1940 C.ar  159  PHE159     -0.0203
     72  CD1       -7.7160    1.6080   98.5750 C.ar  159  PHE159     -0.0042
     73  CD2       -8.9430    1.1500   96.5900 C.ar  159  PHE159     -0.0042
     74  CE1       -8.8350    1.3410   99.3340 C.ar  159  PHE159     -0.0003
     75  CE2      -10.0620    0.8830   97.3470 C.ar  159  PHE159     -0.0003
     76  CZ       -10.0090    0.9760   98.7180 C.ar  159  PHE159     -0.0000
     77  N         -1.9110   -0.2960   98.6800 N.3   162  LEU162     -0.1231
     78  CA        -2.4130   -1.6200   99.0420 C.3   162  LEU162      0.1693
     79  C         -2.1670   -2.6330   97.9310 C.2   162  LEU162      0.2591
     80  O         -1.7560   -3.7670   98.2000 O.2   162  LEU162     -0.2718
     81  CB        -3.9040   -1.5500   99.3680 C.3   162  LEU162      0.0284
     82  CG        -4.3470   -0.7900  100.6190 C.3   162  LEU162      0.0019
     83  CD1       -5.8640   -0.7900  100.7220 C.3   162  LEU162      0.0001
     84  CD2       -3.7240   -1.3940  101.8660 C.3   162  LEU162      0.0001
     85  N         -2.4270   -2.2500   96.6790 N.am  163  MET163     -0.1979
     86  CA        -2.1990   -3.1570   95.5600 C.3   163  MET163      0.1605
     87  C         -0.7230   -3.5110   95.4400 C.2   163  MET163      0.2287
     88  O         -0.3640   -4.6870   95.2950 O.2   163  MET163     -0.2864
     89  CB        -2.7120   -2.5310   94.2620 C.3   163  MET163      0.0413
     90  CG        -4.2170   -2.3380   94.2220 C.3   163  MET163      0.0598
     91  SD        -5.1030   -3.8750   94.5300 S.3   163  MET163     -0.1393
     92  CE        -6.7970   -3.3330   94.3300 C.3   163  MET163      0.0692
     93  N          2.0080  -11.5220   97.8340 N.3   170  HIS170     -0.1241
     94  CA         1.6780  -12.7600   97.1470 C.3   170  HIS170      0.1621
     95  C          2.7640  -13.2320   96.1940 C.2   170  HIS170      0.2264
     96  O          2.6080  -14.2970   95.5880 O.2   170  HIS170     -0.2867
     97  CB         0.3630  -12.6070   96.3890 C.3   170  HIS170      0.0745
     98  CG        -0.8180  -12.4470   97.2850 C.ar  170  HIS170      0.0817
     99  ND1       -1.3360  -13.4890   98.0230 N.ar  170  HIS170     -0.2268
    100  CD2       -1.5720  -11.3640   97.5760 C.ar  170  HIS170      0.1154
    101  CE1       -2.3680  -13.0550   98.7240 C.ar  170  HIS170      0.1986
    102  NE2       -2.5280  -11.7690   98.4730 N.ar  170  HIS170     -0.2212
    103  N         -4.7580  -23.3290   93.0660 N.3   180  TRP180     -0.1227
    104  CA        -5.5660  -22.1550   93.3810 C.3   180  TRP180      0.1737
    105  C         -5.8900  -21.3570   92.1220 C.2   180  TRP180      0.2595
    106  O         -7.0360  -20.9440   91.9100 O.2   180  TRP180     -0.2718
    107  CB        -4.8300  -21.2880   94.4050 C.3   180  TRP180      0.0564
    108  CG        -5.5860  -20.0820   94.8660 C.ar  180  TRP180      0.0003
    109  CD1       -6.4210  -20.0000   95.9430 C.ar  180  TRP180      0.0946
    110  CD2       -5.5620  -18.7740   94.2780 C.ar  180  TRP180      0.0152
    111  NE1       -6.9280  -18.7290   96.0530 N.ar  180  TRP180     -0.2442
    112  CE2       -6.4110  -17.9550   95.0460 C.ar  180  TRP180      0.0810
    113  CE3       -4.9090  -18.2190   93.1730 C.ar  180  TRP180      0.0012
    114  CZ2       -6.6270  -16.6110   94.7440 C.ar  180  TRP180      0.0191
    115  CZ3       -5.1210  -16.8860   92.8800 C.ar  180  TRP180      0.0001
    116  CH2       -5.9740  -16.0970   93.6630 C.ar  180  TRP180      0.0015
    117  N         -4.8890  -21.1410   91.2650 N.am  181  PHE181     -0.1976
    118  CA        -5.1260  -20.4180   90.0200 C.3   181  PHE181      0.1639
    119  C         -6.0610  -21.1910   89.1000 C.2   181  PHE181      0.2290
    120  O         -6.9380  -20.6030   88.4570 O.2   181  PHE181     -0.2864
    121  CB        -3.8030  -20.1420   89.3070 C.3   181  PHE181      0.0560
    122  CG        -2.9380  -19.1330   89.9990 C.ar  181  PHE181     -0.0200
    123  CD1       -3.2460  -17.7840   89.9420 C.ar  181  PHE181     -0.0042
    124  CD2       -1.8070  -19.5310   90.6940 C.ar  181  PHE181     -0.0042
    125  CE1       -2.4480  -16.8500   90.5720 C.ar  181  PHE181     -0.0003
    126  CE2       -1.0010  -18.6010   91.3250 C.ar  181  PHE181     -0.0003
    127  CZ        -1.3220  -17.2590   91.2640 C.ar  181  PHE181     -0.0000
    128  N         -8.5100  -23.0410   89.6710 N.3   183  ASP183     -0.1239
    129  CA        -9.9090  -23.1420   90.0840 C.3   183  ASP183      0.1674
    130  C        -10.7070  -22.1200   89.2820 C.2   183  ASP183      0.2266
    131  O        -11.0140  -21.0120   89.7320 O.2   183  ASP183     -0.2867
    132  CB       -10.0630  -22.9480   91.5870 C.3   183  ASP183      0.1410
    133  CG        -9.8150  -24.2280   92.3610 C.2   183  ASP183      0.3668
    134  OD1       -9.7090  -25.2980   91.7230 O.co2 183  ASP183     -0.2456
    135  OD2       -9.7350  -24.1690   93.6020 O.co2 183  ASP183     -0.2456
    136  N        -14.4730  -21.3300   90.4580 N.3   186  SER186     -0.1202
    137  CA       -14.4620  -20.3740   91.5590 C.3   186  SER186      0.2020
    138  C        -14.1770  -18.9630   91.0570 C.2   186  SER186      0.2618
    139  O        -14.8390  -18.0000   91.4660 O.2   186  SER186     -0.2717
    140  CB       -13.4230  -20.8010   92.5980 C.3   186  SER186      0.2103
    141  OG       -13.6090  -20.1370   93.8340 O.3   186  SER186     -0.2182
    142  N        -13.2070  -18.8250   90.1510 N.am  187  MET187     -0.1979
    143  CA       -12.8280  -17.5040   89.6600 C.3   187  MET187      0.1605
    144  C        -13.9620  -16.8620   88.8690 C.2   187  MET187      0.2287
    145  O        -14.2990  -15.6920   89.0870 O.2   187  MET187     -0.2864
    146  CB       -11.5650  -17.6090   88.8040 C.3   187  MET187      0.0413
    147  CG       -10.9080  -16.2720   88.5090 C.3   187  MET187      0.0598
    148  SD        -9.3960  -16.4220   87.5390 S.3   187  MET187     -0.1393
    149  CE        -8.4410  -17.5490   88.5510 C.3   187  MET187      0.0692
    150  N        -16.7830  -15.8190   91.1370 N.3   190  HIS190     -0.1226
    151  CA       -16.5220  -14.6290   91.9410 C.3   190  HIS190      0.1752
    152  C        -16.3910  -13.3670   91.1010 C.2   190  HIS190      0.2596
    153  O        -16.6470  -12.2680   91.6050 O.2   190  HIS190     -0.2718
    154  CB       -15.2600  -14.8180   92.7780 C.3   190  HIS190      0.0759
    155  CG       -15.3810  -15.8960   93.8020 C.ar  190  HIS190      0.0818
    156  ND1      -15.1880  -17.2260   93.5020 N.ar  190  HIS190     -0.2268
    157  CD2      -15.6920  -15.8470   95.1170 C.ar  190  HIS190      0.1154
    158  CE1      -15.3610  -17.9500   94.5930 C.ar  190  HIS190      0.1986
    159  NE2      -15.6780  -17.1380   95.5830 N.ar  190  HIS190     -0.2212
    160  N        -15.9830  -13.4880   89.8390 N.am  191  HIS191     -0.1975
    161  CA       -15.9040  -12.3040   88.9920 C.3   191  HIS191      0.1656
    162  C        -17.2600  -11.9380   88.4100 C.2   191  HIS191      0.2291
    163  O        -17.5510  -10.7520   88.2370 O.2   191  HIS191     -0.2864
    164  CB       -14.8790  -12.5160   87.8780 C.3   191  HIS191      0.0771
    165  CG       -13.4660  -12.5600   88.3650 C.ar  191  HIS191      0.0820
    166  ND1      -12.4180  -12.9840   87.5770 N.ar  191  HIS191     -0.2267
    167  CD2      -12.9260  -12.2310   89.5630 C.ar  191  HIS191      0.1154
    168  CE1      -11.2940  -12.9120   88.2670 C.ar  191  HIS191      0.1986
    169  NE2      -11.5750  -12.4580   89.4750 N.ar  191  HIS191     -0.2212
    170  N        -19.3910  -11.6200   92.3360 N.3   194  GLY194     -0.1210
    171  CA       -18.7410  -10.7720   93.3210 C.3   194  GLY194      0.1956
    172  C        -18.2290   -9.4590   92.7680 C.2   194  GLY194      0.2611
    173  O        -18.5560   -8.3950   93.3000 O.2   194  GLY194     -0.2717
    174  N        -17.4250   -9.5140   91.7050 N.am  195  LEU195     -0.1979
    175  CA       -16.8060   -8.3020   91.1750 C.3   195  LEU195      0.1596
    176  C        -17.8060   -7.4610   90.3910 C.2   195  LEU195      0.2287
    177  O        -18.0850   -6.3110   90.7500 O.2   195  LEU195     -0.2864
    178  CB       -15.6110   -8.6630   90.2910 C.3   195  LEU195      0.0297
    179  CG       -14.9380   -7.4730   89.6020 C.3   195  LEU195      0.0022
    180  CD1      -14.3900   -6.5160   90.6420 C.3   195  LEU195      0.0001
    181  CD2      -13.8360   -7.9290   88.6520 C.3   195  LEU195      0.0001
    182  N        -21.6020   -7.1190   92.5720 N.3   198  LEU198     -0.1245
    183  CA       -21.5660   -6.2420   93.7370 C.3   198  LEU198      0.1561
    184  C        -20.9950   -4.8750   93.3900 C.2   198  LEU198      0.2260
    185  O        -21.3170   -3.8850   94.0560 O.2   198  LEU198     -0.2867
    186  CB       -20.7650   -6.8890   94.8660 C.3   198  LEU198      0.0270
    187  CG       -21.3270   -8.2040   95.4130 C.3   198  LEU198      0.0019
    188  CD1      -20.5290   -8.6710   96.6180 C.3   198  LEU198      0.0001
    189  CD2      -22.7990   -8.0570   95.7670 C.3   198  LEU198      0.0001
    190  N         -1.2170  -19.8270   79.7130 N.3   339  TRP339     -0.1241
    191  CA        -1.5400  -18.4240   79.9520 C.3   339  TRP339      0.1605
    192  C         -1.7620  -17.6790   78.6420 C.2   339  TRP339      0.2264
    193  O         -2.6860  -16.8670   78.5380 O.2   339  TRP339     -0.2867
    194  CB        -0.4340  -17.7520   80.7610 C.3   339  TRP339      0.0550
    195  CG        -0.5040  -17.9990   82.2370 C.ar  339  TRP339      0.0003
    196  CD1        0.2770  -18.8500   82.9620 C.ar  339  TRP339      0.0946
    197  CD2       -1.3970  -17.3770   83.1720 C.ar  339  TRP339      0.0152
    198  NE1       -0.0750  -18.7990   84.2910 N.ar  339  TRP339     -0.2442
    199  CE2       -1.1010  -17.9050   84.4450 C.ar  339  TRP339      0.0810
    200  CE3       -2.4220  -16.4300   83.0550 C.ar  339  TRP339      0.0012
    201  CZ2       -1.7940  -17.5200   85.5930 C.ar  339  TRP339      0.0191
    202  CZ3       -3.1080  -16.0480   84.1980 C.ar  339  TRP339      0.0001
    203  CH2       -2.7920  -16.5940   85.4490 C.ar  339  TRP339      0.0015
@<TRIPOS>BOND
     1   193   192    2
     2   192   191    1
     3   190   191    1
     4   191   194    1
     5   194   195    1
     6   195   196   ar
     7   195   197   ar
     8   196   198   ar
     9   200   197   ar
    10   200   202   ar
    11   197   199   ar
    12   202   203   ar
    13   198   199   ar
    14   199   201   ar
    15    14    12    1
    16    35    34   ar
    17    35    33   ar
    18    13    12    1
    19    34    32   ar
    20   203   201   ar
    21    33    31   ar
    22    12     9    1
    23    32    31   ar
    24     9     8    1
    25     9    10    1
    26    31    30    1
    27    11    10    2
    28    10    15   am
    29   148   147    1
    30   148   149    1
    31   166   168   ar
    32   166   165   ar
    33    30    27    1
    34    27    26    1
    35    27    28    1
    36   164   165    1
    37   164   161    1
    38   163   162    2
    39   168   169   ar
    40    54    52    1
    41   165   167   ar
    42   162   161    1
    43   120   119    2
    44   147   146    1
    45    15    16    1
    46   181   179    1
    47    47    48    1
    48   146   143    1
    49    29    28    2
    50   144   145    2
    51   144   143    1
    52   161   160    1
    53    28    36   am
    54   119   118    1
    55   130   131    2
    56   130   129    1
    57   121   122    1
    58   121   118    1
    59    52    51    1
    60    52    53    1
    61    48    51    1
    62    48    49    1
    63   169   167   ar
    64   179   178    1
    65   179   180    1
    66    16    17    1
    67    16    19    1
    68   143   142    1
    69   128   129    1
    70   160   152   am
    71   123   122   ar
    72   123   125   ar
    73   122   124   ar
    74   118   117    1
    75   129   132    1
    76    55    56    1
    77   142   138   am
    78    36    37    1
    79    17    18    2
    80   178   175    1
    81    49    50    2
    82   176   177    2
    83   176   175    1
    84   136   137    1
    85   125   127   ar
    86    19    20    1
    87   124   126   ar
    88    38    39    2
    89    38    37    1
    90   138   139    2
    91   138   137    1
    92   152   153    2
    93   152   151    1
    94   150   151    1
    95   175   174    1
    96    21    20   ar
    97    21    23   ar
    98    56    57    1
    99    56    59    1
   100   127   126   ar
   101   117   105   am
   102    37    40    1
   103    57    58    2
   104   137   140    1
   105   132   133    1
   106    20    22   ar
   107   174   172   am
   108   134   133   ar
   109   106   105    2
   110   151   154    1
   111    23    25   ar
   112   105   104    1
   113   170   171    1
   114   133   135   ar
   115    59    60    1
   116   182   183    1
   117   140   141    1
   118    40    41    1
   119    62    60   ar
   120    62    64   ar
   121    60    61   ar
   122   172   173    2
   123   172   171    1
   124   154   155    1
   125    64    65   ar
   126   115   113   ar
   127   115   116   ar
   128    61    63   ar
   129    22    24   ar
   130   103   104    1
   131    65    63   ar
   132   113   110   ar
   133    43    41   ar
   134    43    45   ar
   135    41    42   ar
   136   104   107    1
   137   184   183    1
   138   184   185    2
   139    25    24   ar
   140   156   155   ar
   141   156   158   ar
   142   116   114   ar
   143   183   186    1
   144   155   157   ar
   145    45    46   ar
   146    42    44   ar
   147     7     5    1
   148    90    89    1
   149    90    91    1
   150    89    86    1
   151   110   108   ar
   152   110   112   ar
   153    92    91    1
   154   107   108    1
   155    46    44   ar
   156   158   159   ar
   157   114   112   ar
   158   108   109   ar
   159   186   187    1
   160   112   111   ar
   161   157   159   ar
   162     6     5    1
   163    88    87    2
   164   187   189    1
   165   187   188    1
   166    87    86    1
   167     5     2    1
   168    86    85    1
   169    96    95    2
   170   109   111   ar
   171    69    68    2
   172    95    94    1
   173    68    67    1
   174     2     1    1
   175     2     3    1
   176    70    67    1
   177    70    71    1
   178    97    94    1
   179    97    98    1
   180    73    71   ar
   181    73    75   ar
   182    85    79   am
   183    94    93    1
   184    67    66    1
   185    71    72   ar
   186    98   100   ar
   187    98    99   ar
   188    75    76   ar
   189   100   102   ar
   190     3     4    2
   191    79    80    2
   192    79    78    1
   193    99   101   ar
   194   102   101   ar
   195    72    74   ar
   196    77    78    1
   197    76    74   ar
   198    78    81    1
   199    81    82    1
   200    82    83    1
   201    82    84    1
