@<TRIPOS>MOLECULE
tmp/5l8rJ15.pdb
 139 136 0 0 0
SMALL
GASTEIGER

@<TRIPOS>ATOM
      1  N         26.2170   45.7860   58.7370 N.3     2  ILE2       -0.1245
      2  CA        26.7050   44.5780   58.0890 C.3     2  ILE2        0.1561
      3  C         25.5750   43.9310   57.3020 C.2     2  ILE2        0.2260
      4  O         24.4290   43.8640   57.7670 O.2     2  ILE2       -0.2867
      5  CB        27.2780   43.6080   59.1340 C.3     2  ILE2        0.0252
      6  CG1       28.3710   44.2900   59.9540 C.3     2  ILE2        0.0019
      7  CG2       27.8190   42.3610   58.4700 C.3     2  ILE2        0.0019
      8  CD1       28.8670   43.4450   61.1000 C.3     2  ILE2        0.0001
      9  N         30.5450   35.7280   60.7860 N.3    74  SER74      -0.1202
     10  CA        31.7530   35.8630   59.9760 C.3    74  SER74       0.2020
     11  C         33.0210   35.9540   60.8110 C.2    74  SER74       0.2619
     12  O         34.1130   35.6920   60.2960 O.2    74  SER74      -0.2717
     13  CB        31.6590   37.1090   59.1000 C.3    74  SER74       0.2103
     14  OG        31.6730   38.2780   59.9020 O.3    74  SER74      -0.2182
     15  N         32.9100   36.3260   62.0750 N.am   75  GLY75      -0.1942
     16  CA        34.0680   36.5720   62.9030 C.3    75  GLY75       0.2014
     17  C         34.3060   38.0320   63.1980 C.2    75  GLY75       0.2639
     18  O         35.1700   38.3400   64.0290 O.2    75  GLY75      -0.2714
     19  N         33.5800   38.9340   62.5320 N.am   76  ASP76      -0.1957
     20  CA        33.5810   40.3590   62.8520 C.3    76  ASP76       0.1840
     21  C         33.5640   40.5670   64.3610 C.2    76  ASP76       0.2621
     22  O         32.6890   40.0520   65.0630 O.2    76  ASP76      -0.2715
     23  CB        32.3620   41.0320   62.2060 C.3    76  ASP76       0.1450
     24  CG        32.3990   42.5510   62.2970 C.2    76  ASP76       0.3671
     25  OD1       32.8380   43.1000   63.3340 O.co2  76  ASP76      -0.2456
     26  OD2       31.9750   43.2030   61.3200 O.co2  76  ASP76      -0.2456
     27  N         34.5440   41.3290   64.8530 N.am   77  GLN77      -0.1977
     28  CA        34.7750   41.4170   66.2890 C.3    77  GLN77       0.1601
     29  C         33.6300   42.0950   67.0260 C.2    77  GLN77       0.2287
     30  O         33.5250   41.9530   68.2500 O.2    77  GLN77      -0.2864
     31  CB        36.0870   42.1470   66.5470 C.3    77  GLN77       0.0394
     32  CG        37.2510   41.5320   65.8060 C.3    77  GLN77       0.0908
     33  CD        38.5210   42.3260   65.9670 C.2    77  GLN77       0.2608
     34  OE1       38.4940   43.4850   66.3800 O.2    77  GLN77      -0.2717
     35  NE2       39.6490   41.7060   65.6480 N.am   77  GLN77      -0.0878
     36  N         31.2290   38.7960   68.3550 N.3    80  TRP80      -0.1241
     37  CA        31.7350   37.5310   68.8770 C.3    80  TRP80       0.1605
     38  C         30.7930   36.9220   69.9050 C.2    80  TRP80       0.2264
     39  O         30.7800   35.6990   70.0870 O.2    80  TRP80      -0.2867
     40  CB        33.1250   37.7200   69.4770 C.3    80  TRP80       0.0550
     41  CG        34.1820   37.7720   68.4380 C.ar   80  TRP80       0.0003
     42  CD1       34.0220   38.1150   67.1310 C.ar   80  TRP80       0.0946
     43  CD2       35.5640   37.4490   68.6030 C.ar   80  TRP80       0.0152
     44  NE1       35.2220   38.0380   66.4690 N.ar   80  TRP80      -0.2442
     45  CE2       36.1860   37.6300   67.3520 C.ar   80  TRP80       0.0810
     46  CE3       36.3400   37.0260   69.6870 C.ar   80  TRP80       0.0012
     47  CZ2       37.5440   37.4070   67.1550 C.ar   80  TRP80       0.0191
     48  CZ3       37.6910   36.8030   69.4890 C.ar   80  TRP80       0.0001
     49  CH2       38.2790   36.9930   68.2330 C.ar   80  TRP80       0.0015
     50  N         31.2660   33.1390   68.2250 N.3    84  ILE84      -0.1245
     51  CA        32.6380   32.7450   68.5420 C.3    84  ILE84       0.1561
     52  C         32.8220   32.5280   70.0400 C.2    84  ILE84       0.2260
     53  O         33.4720   31.5650   70.4650 O.2    84  ILE84      -0.2867
     54  CB        33.6310   33.7850   67.9940 C.3    84  ILE84       0.0252
     55  CG1       33.6870   33.6970   66.4690 C.3    84  ILE84       0.0019
     56  CG2       35.0120   33.5840   68.6020 C.3    84  ILE84       0.0019
     57  CD1       34.6920   34.6210   65.8460 C.3    84  ILE84       0.0001
     58  N         33.3840   28.9760   71.7730 N.3    88  ILE88      -0.1245
     59  CA        34.5170   28.5490   72.5850 C.3    88  ILE88       0.1561
     60  C         34.0260   27.9290   73.8860 C.2    88  ILE88       0.2260
     61  O         34.5630   26.9120   74.3470 O.2    88  ILE88      -0.2867
     62  CB        35.4770   29.7260   72.8280 C.3    88  ILE88       0.0252
     63  CG1       36.2140   30.0690   71.5310 C.3    88  ILE88       0.0019
     64  CG2       36.4700   29.3940   73.9140 C.3    88  ILE88       0.0019
     65  CD1       36.7870   31.4680   71.5110 C.3    88  ILE88       0.0001
     66  N         32.8940   24.3660   72.9540 N.3    91  LEU91      -0.1231
     67  CA        34.0210   23.4660   72.7350 C.3    91  LEU91       0.1693
     68  C         34.7240   23.1140   74.0400 C.2    91  LEU91       0.2592
     69  O         35.2240   21.9910   74.1930 O.2    91  LEU91      -0.2718
     70  CB        35.0040   24.0850   71.7420 C.3    91  LEU91       0.0284
     71  CG        34.4530   24.2280   70.3230 C.3    91  LEU91       0.0019
     72  CD1       35.5090   24.7810   69.3830 C.3    91  LEU91       0.0001
     73  CD2       33.9220   22.8970   69.8160 C.3    91  LEU91       0.0001
     74  N         34.7600   24.0460   74.9960 N.am   92  TYR92      -0.1976
     75  CA        35.3200   23.7170   76.3030 C.3    92  TYR92       0.1639
     76  C         34.4890   22.6490   77.0070 C.2    92  TYR92       0.2290
     77  O         35.0390   21.6850   77.5590 O.2    92  TYR92      -0.2864
     78  CB        35.4200   24.9730   77.1650 C.3    92  TYR92       0.0560
     79  CG        36.0910   24.7510   78.4990 C.ar   92  TYR92      -0.0198
     80  CD1       37.4390   24.4480   78.5720 C.ar   92  TYR92      -0.0009
     81  CD2       35.3800   24.8650   79.6850 C.ar   92  TYR92      -0.0009
     82  CE1       38.0580   24.2540   79.7850 C.ar   92  TYR92       0.0417
     83  CE2       35.9910   24.6720   80.9020 C.ar   92  TYR92       0.0417
     84  CZ        37.3310   24.3660   80.9450 C.ar   92  TYR92       0.1957
     85  OH        37.9550   24.1690   82.1530 O.3    92  TYR92      -0.2866
     86  N         41.2940   19.5690   80.5940 N.3   136  TRP136     -0.1228
     87  CA        41.3410   18.7830   79.3590 C.3   136  TRP136      0.1722
     88  C         42.1380   19.3920   78.2000 C.2   136  TRP136      0.2437
     89  O         42.7740   18.6180   77.4750 O.2   136  TRP136     -0.2733
     90  CB        39.9160   18.4270   78.8890 C.3   136  TRP136      0.0563
     91  CG        39.2060   19.4300   78.0000 C.ar  136  TRP136      0.0003
     92  CD1       38.2110   20.2800   78.3750 C.ar  136  TRP136      0.0946
     93  CD2       39.4150   19.6600   76.5940 C.ar  136  TRP136      0.0152
     94  NE1       37.7960   21.0320   77.3070 N.ar  136  TRP136     -0.2442
     95  CE2       38.5170   20.6730   76.2010 C.ar  136  TRP136      0.0810
     96  CE3       40.2790   19.1180   75.6350 C.ar  136  TRP136      0.0012
     97  CZ2       38.4540   21.1540   74.8910 C.ar  136  TRP136      0.0191
     98  CZ3       40.2180   19.6010   74.3270 C.ar  136  TRP136      0.0001
     99  CH2       39.3110   20.6080   73.9720 C.ar  136  TRP136      0.0015
    100  N         42.1340   20.7090   77.9320 N.am  137  PRO137     -0.2729
    101  CA        42.9300   21.1740   76.7770 C.3   137  PRO137      0.1401
    102  C         44.4300   21.0020   76.9670 C.2   137  PRO137      0.2269
    103  O         45.1320   20.6230   76.0190 O.2   137  PRO137     -0.2865
    104  CB        42.5290   22.6500   76.6530 C.3   137  PRO137      0.0296
    105  CG        41.2050   22.7340   77.3180 C.3   137  PRO137      0.0237
    106  CD        41.3200   21.8050   78.4800 C.3   137  PRO137      0.0939
    107  N         45.0620   17.0770   76.7620 N.3   140  ALA140     -0.1231
    108  CA        44.9600   16.5360   75.4120 C.3   140  ALA140      0.1694
    109  C         46.0680   17.0680   74.5190 C.2   140  ALA140      0.2592
    110  O         46.5700   16.3470   73.6510 O.2   140  ALA140     -0.2718
    111  CB        43.5910   16.8640   74.8160 C.3   140  ALA140      0.0304
    112  N         46.4490   18.3320   74.7000 N.am  141  TYR141     -0.1976
    113  CA        47.5880   18.8640   73.9600 C.3   141  TYR141      0.1639
    114  C         48.8680   18.1180   74.3280 C.2   141  TYR141      0.2290
    115  O         49.6430   17.7090   73.4500 O.2   141  TYR141     -0.2864
    116  CB        47.7160   20.3650   74.2310 C.3   141  TYR141      0.0560
    117  CG        48.9410   21.0080   73.6320 C.ar  141  TYR141     -0.0198
    118  CD1       48.9940   21.3270   72.2810 C.ar  141  TYR141     -0.0009
    119  CD2       50.0420   21.3060   74.4200 C.ar  141  TYR141     -0.0009
    120  CE1       50.1150   21.9170   71.7340 C.ar  141  TYR141      0.0417
    121  CE2       51.1630   21.8970   73.8850 C.ar  141  TYR141      0.0417
    122  CZ        51.1980   22.2010   72.5420 C.ar  141  TYR141      0.1957
    123  OH        52.3260   22.7890   72.0160 O.3   141  TYR141     -0.2866
    124  N         48.7180   14.6720   72.7460 N.3   144  LEU144     -0.1245
    125  CA        49.0190   14.7750   71.3230 C.3   144  LEU144      0.1561
    126  C         50.5180   14.8860   71.0860 C.2   144  LEU144      0.2260
    127  O         51.0620   14.2190   70.2000 O.2   144  LEU144     -0.2867
    128  CB        48.2910   15.9750   70.7180 C.3   144  LEU144      0.0270
    129  CG        48.6880   16.3760   69.2940 C.3   144  LEU144      0.0019
    130  CD1       48.3550   15.2710   68.3080 C.3   144  LEU144      0.0001
    131  CD2       48.0130   17.6860   68.8900 C.3   144  LEU144      0.0001
    132  N         47.6720   10.1740   72.5550 N.3   149  LEU149     -0.1245
    133  CA        46.3000   10.4930   72.1730 C.3   149  LEU149      0.1561
    134  C         45.7650    9.5200   71.1320 C.2   149  LEU149      0.2260
    135  O         44.5910    9.1330   71.1840 O.2   149  LEU149     -0.2867
    136  CB        46.2230   11.9250   71.6450 C.3   149  LEU149      0.0270
    137  CG        44.8570   12.3990   71.1500 C.3   149  LEU149      0.0019
    138  CD1       43.9090   12.6200   72.3140 C.3   149  LEU149      0.0001
    139  CD2       44.9980   13.6630   70.3190 C.3   149  LEU149      0.0001
@<TRIPOS>BOND
     1     3     4    2
     2     3     2    1
     3     2     1    1
     4     2     5    1
     5     7     5    1
     6    13    14    1
     7    13    10    1
     8     5     6    1
     9     6     8    1
    10    10     9    1
    11    10    11    1
    12    12    11    2
    13    11    15   am
    14    26    24   ar
    15    15    16    1
    16    23    24    1
    17    23    20    1
    18    24    25   ar
    19    19    20    1
    20    19    17   am
    21    20    21    1
    22    16    17    1
    23    17    18    2
    24    21    27   am
    25    21    22    2
    26    27    28    1
    27    35    33   am
    28    32    33    1
    29    32    31    1
    30    57    55    1
    31    33    34    2
    32    28    31    1
    33    28    29    1
    34    55    54    1
    35    44    42   ar
    36    44    45   ar
    37    29    30    2
    38    42    41   ar
    39    47    45   ar
    40    47    49   ar
    41    45    43   ar
    42    54    51    1
    43    54    56    1
    44    50    51    1
    45    49    48   ar
    46   130   129    1
    47    36    37    1
    48    41    43   ar
    49    41    40    1
    50    51    52    1
    51    43    46   ar
    52    37    40    1
    53    37    38    1
    54   131   129    1
    55   129   128    1
    56    72    71    1
    57    48    46   ar
    58    73    71    1
    59    38    39    2
    60    52    53    2
    61   127   126    2
    62   139   137    1
    63    71    70    1
    64   128   125    1
    65   126   125    1
    66   134   135    2
    67   134   133    1
    68   137   136    1
    69   137   138    1
    70   125   124    1
    71    65    63    1
    72    63    62    1
    73   136   133    1
    74   120   118   ar
    75   120   122   ar
    76    70    67    1
    77    58    59    1
    78   123   122    1
    79   133   132    1
    80   118   117   ar
    81   122   121   ar
    82    59    62    1
    83    59    60    1
    84    67    66    1
    85    67    68    1
    86    62    64    1
    87   115   114    2
    88   117   116    1
    89   117   119   ar
    90   110   109    2
    91   121   119   ar
    92    60    61    2
    93   113   116    1
    94   113   114    1
    95   113   112    1
    96    99    98   ar
    97    99    97   ar
    98    68    69    2
    99    68    74   am
   100    98    96   ar
   101   109   112   am
   102   109   108    1
   103   111   108    1
   104    97    95   ar
   105    74    75    1
   106   108   107    1
   107    96    93   ar
   108   103   102    2
   109    95    93   ar
   110    95    94   ar
   111    75    76    1
   112    75    78    1
   113    93    91   ar
   114   104   101    1
   115   104   105    1
   116   101   102    1
   117   101   100    1
   118    76    77    2
   119    78    79    1
   120    94    92   ar
   121   105   106    1
   122    89    88    2
   123   100    88   am
   124   100   106    1
   125    91    92   ar
   126    91    90    1
   127    88    87    1
   128    79    80   ar
   129    79    81   ar
   130    80    82   ar
   131    90    87    1
   132    87    86    1
   133    81    83   ar
   134    82    84   ar
   135    83    84   ar
   136    84    85    1
