@<TRIPOS>MOLECULE
tmp/5l8rB01.pdb
 124 123 0 0 0
SMALL
GASTEIGER

@<TRIPOS>ATOM
      1  N         25.2870   18.6740  117.2680 N.3    55  TRP55      -0.1241
      2  CA        24.6440   19.8700  116.7290 C.3    55  TRP55       0.1605
      3  C         23.2240   20.0170  117.2510 C.2    55  TRP55       0.2264
      4  O         22.7790   21.1280  117.5550 O.2    55  TRP55      -0.2867
      5  CB        24.6240   19.8310  115.2040 C.3    55  TRP55       0.0550
      6  CG        25.9220   20.1530  114.5540 C.ar   55  TRP55       0.0003
      7  CD1       26.5850   19.3930  113.6400 C.ar   55  TRP55       0.0946
      8  CD2       26.7170   21.3280  114.7520 C.ar   55  TRP55       0.0152
      9  NE1       27.7480   20.0140  113.2570 N.ar   55  TRP55      -0.2442
     10  CE2       27.8510   21.2070  113.9240 C.ar   55  TRP55       0.0810
     11  CE3       26.5830   22.4700  115.5490 C.ar   55  TRP55       0.0012
     12  CZ2       28.8440   22.1800  113.8730 C.ar   55  TRP55       0.0191
     13  CZ3       27.5690   23.4330  115.4960 C.ar   55  TRP55       0.0001
     14  CH2       28.6850   23.2830  114.6640 C.ar   55  TRP55       0.0015
     15  N         13.8120   32.0000  117.8350 N.3    80  TRP80      -0.1227
     16  CA        14.8400   31.2640  117.1080 C.3    80  TRP80       0.1737
     17  C         14.4880   31.1010  115.6370 C.2    80  TRP80       0.2595
     18  O         15.3860   31.0510  114.7880 O.2    80  TRP80      -0.2718
     19  CB        15.0380   29.8940  117.7490 C.3    80  TRP80       0.0564
     20  CG        13.8100   29.0400  117.6730 C.ar   80  TRP80       0.0003
     21  CD1       12.7670   29.0230  118.5530 C.ar   80  TRP80       0.0946
     22  CD2       13.4910   28.0830  116.6540 C.ar   80  TRP80       0.0152
     23  NE1       11.8210   28.1110  118.1490 N.ar   80  TRP80      -0.2442
     24  CE2       12.2430   27.5210  116.9860 C.ar   80  TRP80       0.0810
     25  CE3       14.1410   27.6460  115.4970 C.ar   80  TRP80       0.0012
     26  CZ2       11.6330   26.5470  116.2030 C.ar   80  TRP80       0.0191
     27  CZ3       13.5340   26.6780  114.7220 C.ar   80  TRP80       0.0001
     28  CH2       12.2930   26.1400  115.0770 C.ar   80  TRP80       0.0015
     29  N         13.1930   31.0140  115.3190 N.am   81  TYR81      -0.1962
     30  CA        12.7760   30.8010  113.9370 C.3    81  TYR81       0.1771
     31  C         13.1450   31.9880  113.0580 C.2    81  TYR81       0.2620
     32  O         13.5510   31.8130  111.9030 O.2    81  TYR81      -0.2715
     33  CB        11.2690   30.5400  113.8840 C.3    81  TYR81       0.0574
     34  CG        10.7590   30.0820  112.5350 C.ar   81  TYR81      -0.0198
     35  CD1       10.6800   28.7310  112.2230 C.ar   81  TYR81      -0.0009
     36  CD2       10.3480   30.9990  111.5770 C.ar   81  TYR81      -0.0009
     37  CE1       10.2140   28.3050  110.9920 C.ar   81  TYR81       0.0417
     38  CE2        9.8780   30.5810  110.3430 C.ar   81  TYR81       0.0417
     39  CZ         9.8150   29.2330  110.0560 C.ar   81  TYR81       0.1957
     40  OH         9.3500   28.8120  108.8310 O.3    81  TYR81      -0.2866
     41  N         13.0260   33.2010  113.5940 N.am   82  THR82      -0.1951
     42  CA        13.2130   34.4220  112.8260 C.3    82  THR82       0.1897
     43  C         14.5490   35.1000  113.1020 C.2    82  THR82       0.2313
     44  O         14.7620   36.2280  112.6450 O.2    82  THR82      -0.2863
     45  CB        12.0710   35.3960  113.1170 C.3    82  THR82       0.1794
     46  OG1       12.1260   35.7940  114.4920 O.3    82  THR82      -0.2208
     47  CG2       10.7300   34.7310  112.8460 C.3    82  THR82       0.0378
     48  N         17.3520   34.5690  111.8400 N.3    84  GLY84      -0.1210
     49  CA        18.1570   34.7550  110.6440 C.3    84  GLY84       0.1956
     50  C         17.8990   36.0730  109.9420 C.2    84  GLY84       0.2611
     51  O         18.8110   36.6490  109.3400 O.2    84  GLY84      -0.2717
     52  N         16.6620   36.5730  110.0090 N.am   85  GLU85      -0.1979
     53  CA        16.3180   37.8320  109.3570 C.3    85  GLU85       0.1602
     54  C         16.9650   39.0360  110.0250 C.2    85  GLU85       0.2287
     55  O         17.0600   40.0960  109.3980 O.2    85  GLU85      -0.2864
     56  CB        14.8020   38.0240  109.3490 C.3    85  GLU85       0.0415
     57  CG        14.0250   36.9020  108.6950 C.3    85  GLU85       0.1163
     58  CD        12.5430   36.9890  108.9930 C.2    85  GLU85       0.3649
     59  OE1       12.1760   37.6850  109.9630 O.co2  85  GLU85      -0.2457
     60  OE2       11.7470   36.3670  108.2590 O.co2  85  GLU85      -0.2457
     61  N         24.3640   39.0890  106.8910 N.3    92  THR92      -0.1218
     62  CA        24.4540   37.6790  107.2550 C.3    92  THR92       0.1862
     63  C         25.2760   36.8870  106.2490 C.2    92  THR92       0.2287
     64  O         25.9210   35.9080  106.6270 O.2    92  THR92      -0.2866
     65  CB        23.0660   37.0600  107.3690 C.3    92  THR92       0.1770
     66  OG1       22.6300   36.6320  106.0700 O.3    92  THR92      -0.2211
     67  CG2       22.0790   38.0690  107.9230 C.3    92  THR92       0.0375
     68  N         28.8730   36.9760  107.1680 N.3    95  LEU95      -0.1231
     69  CA        28.9650   36.1110  108.3410 C.3    95  LEU95       0.1693
     70  C         28.9810   34.6510  107.9280 C.2    95  LEU95       0.2592
     71  O         29.7360   33.8390  108.4750 O.2    95  LEU95      -0.2718
     72  CB        27.7830   36.3580  109.2770 C.3    95  LEU95       0.0284
     73  CG        27.6220   37.6800  110.0130 C.3    95  LEU95       0.0019
     74  CD1       26.2890   37.6790  110.7430 C.3    95  LEU95       0.0001
     75  CD2       28.7700   37.8780  110.9840 C.3    95  LEU95       0.0001
     76  N         28.1440   34.3050  106.9580 N.am   96  PHE96      -0.1976
     77  CA        28.0190   32.9320  106.5090 C.3    96  PHE96       0.1639
     78  C         29.2820   32.4750  105.8030 C.2    96  PHE96       0.2290
     79  O         29.6850   31.3160  105.9360 O.2    96  PHE96      -0.2864
     80  CB        26.8080   32.8030  105.5890 C.3    96  PHE96       0.0560
     81  CG        26.5400   31.4100  105.1740 C.ar   96  PHE96      -0.0200
     82  CD1       26.1820   30.4690  106.1190 C.ar   96  PHE96      -0.0042
     83  CD2       26.6690   31.0260  103.8540 C.ar   96  PHE96      -0.0042
     84  CE1       25.9520   29.1680  105.7580 C.ar   96  PHE96      -0.0003
     85  CE2       26.4310   29.7220  103.4810 C.ar   96  PHE96      -0.0003
     86  CZ        26.0730   28.7890  104.4330 C.ar   96  PHE96      -0.0000
     87  N         31.7510   31.7520  108.3240 N.3    99  GLU99      -0.1245
     88  CA        31.3770   30.4550  108.8740 C.3    99  GLU99       0.1567
     89  C         31.8440   29.3110  107.9800 C.2    99  GLU99       0.2260
     90  O         32.3930   28.3190  108.4690 O.2    99  GLU99      -0.2867
     91  CB        29.8620   30.4180  109.0690 C.3    99  GLU99       0.0388
     92  CG        29.2980   29.0850  109.4940 C.3    99  GLU99       0.1160
     93  CD        27.7990   29.1480  109.6950 C.2    99  GLU99       0.3649
     94  OE1       27.2380   30.2650  109.6470 O.co2  99  GLU99      -0.2457
     95  OE2       27.1810   28.0830  109.9000 O.co2  99  GLU99      -0.2457
     96  N         14.6270   19.3980  118.4640 N.3   175  VAL175     -0.1245
     97  CA        14.8360   20.5060  117.5370 C.3   175  VAL175      0.1561
     98  C         13.8140   20.4440  116.4100 C.2   175  VAL175      0.2260
     99  O         13.1070   21.4260  116.1310 O.2   175  VAL175     -0.2867
    100  CB        16.2800   20.4940  117.0010 C.3   175  VAL175      0.0252
    101  CG1       16.4160   21.4230  115.8020 C.3   175  VAL175      0.0019
    102  CG2       17.2520   20.9020  118.0980 C.3   175  VAL175      0.0019
    103  N         10.6420   23.0050  115.4390 N.3   179  TRP179     -0.1241
    104  CA        10.4470   23.3910  114.0460 C.3   179  TRP179      0.1605
    105  C          8.9990   23.1870  113.6050 C.2   179  TRP179      0.2264
    106  O          8.2830   24.1560  113.3090 O.2   179  TRP179     -0.2867
    107  CB        11.3990   22.5880  113.1600 C.3   179  TRP179      0.0550
    108  CG        11.3090   22.8750  111.6990 C.ar  179  TRP179      0.0003
    109  CD1       10.3060   22.5110  110.8490 C.ar  179  TRP179      0.0946
    110  CD2       12.2860   23.5470  110.9010 C.ar  179  TRP179      0.0152
    111  NE1       10.5910   22.9310  109.5740 N.ar  179  TRP179     -0.2442
    112  CE2       11.8020   23.5710  109.5790 C.ar  179  TRP179      0.0810
    113  CE3       13.5200   24.1350  111.1760 C.ar  179  TRP179      0.0012
    114  CZ2       12.5080   24.1620  108.5370 C.ar  179  TRP179      0.0191
    115  CZ3       14.2220   24.7090  110.1420 C.ar  179  TRP179      0.0001
    116  CH2       13.7120   24.7310  108.8400 C.ar  179  TRP179      0.0015
    117  N          5.9080   25.9100  112.8400 N.3   183  ILE183     -0.1245
    118  CA         5.2000   25.9500  111.5640 C.3   183  ILE183      0.1561
    119  C          3.7130   25.6860  111.7670 C.2   183  ILE183      0.2260
    120  O          2.8600   26.3570  111.1750 O.2   183  ILE183     -0.2867
    121  CB         5.8220   24.9500  110.5750 C.3   183  ILE183      0.0252
    122  CG1        7.2420   25.3780  110.2150 C.3   183  ILE183      0.0019
    123  CG2        4.9620   24.8270  109.3290 C.3   183  ILE183      0.0019
    124  CD1        7.8870   24.4920  109.1800 C.3   183  ILE183      0.0001
@<TRIPOS>BOND
     1    85    83   ar
     2    85    86   ar
     3    83    81   ar
     4    86    84   ar
     5    81    80    1
     6    81    82   ar
     7    80    77    1
     8    84    82   ar
     9    78    79    2
    10    78    77    1
    11    66    65    1
    12    63    64    2
    13    63    62    1
    14    77    76    1
    15    61    62    1
    16    76    70   am
    17    68    69    1
    18    62    65    1
    19    65    67    1
    20    70    69    1
    21    70    71    2
    22    89    90    2
    23    89    88    1
    24    60    58   ar
    25    87    88    1
    26    69    72    1
    27   114   116   ar
    28   114   112   ar
    29    57    58    1
    30    57    56    1
    31    40    39    1
    32   116   115   ar
    33    88    91    1
    34    58    59   ar
    35    91    92    1
    36   124   122    1
    37    72    73    1
    38   123   121    1
    39    51    50    2
    40    56    53    1
    41    53    52    1
    42    53    54    1
    43    55    54    2
    44    92    93    1
    45   111   112   ar
    46   111   109   ar
    47   112   110   ar
    48    94    93   ar
    49    93    95   ar
    50    50    52   am
    51    50    49    1
    52    73    74    1
    53    73    75    1
    54    39    38   ar
    55    39    37   ar
    56   115   113   ar
    57   122   121    1
    58    38    36   ar
    59   121   118    1
    60    49    48    1
    61   109   108   ar
    62   110   113   ar
    63   110   108   ar
    64    37    35   ar
    65   120   119    2
    66   118   119    1
    67   118   117    1
    68    36    34   ar
    69   108   107    1
    70    32    31    2
    71    35    34   ar
    72    34    33    1
    73    44    43    2
    74    42    43    1
    75    42    45    1
    76    42    41    1
    77    47    45    1
    78    31    41   am
    79    31    30    1
    80    45    46    1
    81   107   104    1
    82     9     7   ar
    83     9    10   ar
    84   106   105    2
    85   105   104    1
    86     7     6   ar
    87    12    10   ar
    88    12    14   ar
    89    33    30    1
    90    10     8   ar
    91    30    29    1
    92   104   103    1
    93     6     8   ar
    94     6     5    1
    95    14    13   ar
    96    27    28   ar
    97    27    25   ar
    98     8    11   ar
    99    18    17    2
   100    28    26   ar
   101     5     2    1
   102    29    17   am
   103    13    11   ar
   104    25    22   ar
   105    17    16    1
   106   101   100    1
   107    99    98    2
   108    26    24   ar
   109    98    97    1
   110    22    24   ar
   111    22    20   ar
   112     2     3    1
   113     2     1    1
   114    24    23   ar
   115   100    97    1
   116   100   102    1
   117    16    19    1
   118    16    15    1
   119     3     4    2
   120    97    96    1
   121    20    19    1
   122    20    21   ar
   123    23    21   ar
