@<TRIPOS>MOLECULE
tmp/5l8rB19.pdb
 135 129 0 0 0
SMALL
GASTEIGER

@<TRIPOS>ATOM
      1  N         17.4860   12.3800  121.5250 N.3   170  LEU170     -0.1245
      2  CA        16.4170   13.1970  122.0890 C.3   170  LEU170      0.1561
      3  C         16.4730   14.6250  121.5570 C.2   170  LEU170      0.2260
      4  O         15.4390   15.2160  121.2230 O.2   170  LEU170     -0.2867
      5  CB        16.5070   13.1930  123.6130 C.3   170  LEU170      0.0270
      6  CG        15.3900   13.9440  124.3350 C.3   170  LEU170      0.0019
      7  CD1       14.0440   13.3350  123.9830 C.3   170  LEU170      0.0001
      8  CD2       15.6130   13.9320  125.8400 C.3   170  LEU170      0.0001
      9  N         15.1910   14.9190  117.8990 N.3   173  LEU173     -0.1231
     10  CA        13.7320   14.9160  117.9040 C.3   173  LEU173      0.1693
     11  C         13.1600   16.2190  118.4460 C.2   173  LEU173      0.2591
     12  O         12.1150   16.6780  117.9740 O.2   173  LEU173     -0.2718
     13  CB        13.2180   13.7330  118.7190 C.3   173  LEU173      0.0284
     14  CG        13.5750   12.3790  118.1160 C.3   173  LEU173      0.0019
     15  CD1       13.0080   11.2640  118.9650 C.3   173  LEU173      0.0001
     16  CD2       13.0550   12.2950  116.6950 C.3   173  LEU173      0.0001
     17  N         13.8320   16.8350  119.4220 N.am  174  ALA174     -0.1980
     18  CA        13.3120   18.0570  120.0330 C.3   174  ALA174      0.1597
     19  C         13.4690   19.2650  119.1180 C.2   174  ALA174      0.2287
     20  O         12.5490   20.0850  119.0100 O.2   174  ALA174     -0.2864
     21  CB        14.0030   18.3080  121.3730 C.3   174  ALA174      0.0319
     22  N         13.7000   19.2820  115.7570 N.3   176  MET176     -0.1230
     23  CA        12.6700   19.1720  114.7280 C.3   176  MET176      0.1702
     24  C         11.2810   19.3670  115.3220 C.2   176  MET176      0.2592
     25  O         10.3710   19.8540  114.6360 O.2   176  MET176     -0.2718
     26  CB        12.7730   17.8280  114.0080 C.3   176  MET176      0.0401
     27  CG        14.0860   17.6280  113.2610 C.3   176  MET176      0.0596
     28  SD        14.5170   18.9840  112.1450 S.3   176  MET176     -0.1393
     29  CE        13.1120   18.9900  111.0340 C.3   176  MET176      0.0692
     30  N         11.1100   19.0300  116.6020 N.am  177  GLY177     -0.1957
     31  CA         9.8330   19.2640  117.2550 C.3   177  GLY177      0.1869
     32  C          9.4610   20.7320  117.2970 C.2   177  GLY177      0.2309
     33  O          8.3660   21.1190  116.8850 O.2   177  GLY177     -0.2863
     34  N          8.5560   21.9250  113.5670 N.3   180  PHE180     -0.1227
     35  CA         7.2090   21.6330  113.0830 C.3   180  PHE180      0.1736
     36  C          6.1370   22.2660  113.9610 C.2   180  PHE180      0.2595
     37  O          5.0270   22.5260  113.4860 O.2   180  PHE180     -0.2718
     38  CB         6.9900   20.1240  112.9940 C.3   180  PHE180      0.0547
     39  CG         7.6970   19.4770  111.8420 C.ar  180  PHE180     -0.0202
     40  CD1        7.1040   19.4190  110.5940 C.ar  180  PHE180     -0.0042
     41  CD2        8.9550   18.9210  112.0070 C.ar  180  PHE180     -0.0042
     42  CE1        7.7540   18.8210  109.5340 C.ar  180  PHE180     -0.0003
     43  CE2        9.6100   18.3220  110.9500 C.ar  180  PHE180     -0.0003
     44  CZ         9.0100   18.2720  109.7130 C.ar  180  PHE180     -0.0000
     45  N          6.4370   22.5060  115.2380 N.am  181  GLN181     -0.1979
     46  CA         5.4980   23.2210  116.0950 C.3   181  GLN181      0.1601
     47  C          5.3370   24.6640  115.6410 C.2   181  GLN181      0.2287
     48  O          4.2150   25.1410  115.4320 O.2   181  GLN181     -0.2864
     49  CB         5.9720   23.1840  117.5440 C.3   181  GLN181      0.0394
     50  CG         5.7050   21.9010  118.2810 C.3   181  GLN181      0.0908
     51  CD         6.4650   21.8540  119.5810 C.2   181  GLN181      0.2608
     52  OE1        7.5600   22.4010  119.6860 O.2   181  GLN181     -0.2717
     53  NE2        5.8850   21.2240  120.5850 N.am  181  GLN181     -0.0878
     54  N          3.3790   24.7100  112.6100 N.3   184  TYR184     -0.1227
     55  CA         1.9890   24.3280  112.8310 C.3   184  TYR184      0.1736
     56  C          1.2770   25.3440  113.7170 C.2   184  TYR184      0.2596
     57  O          0.3270   26.0050  113.2840 O.2   184  TYR184     -0.2718
     58  CB         1.9360   22.9280  113.4470 C.3   184  TYR184      0.0548
     59  CG         0.5490   22.3460  113.5840 C.ar  184  TYR184     -0.0200
     60  CD1       -0.0630   21.7030  112.5160 C.ar  184  TYR184     -0.0009
     61  CD2       -0.1410   22.4240  114.7870 C.ar  184  TYR184     -0.0009
     62  CE1       -1.3270   21.1640  112.6390 C.ar  184  TYR184      0.0417
     63  CE2       -1.4060   21.8880  114.9190 C.ar  184  TYR184      0.0417
     64  CZ        -1.9940   21.2590  113.8420 C.ar  184  TYR184      0.1957
     65  OH        -3.2550   20.7230  113.9670 O.3   184  TYR184     -0.2866
     66  N          1.7200   25.4760  114.9650 N.am  185  THR185     -0.1953
     67  CA         1.2490   26.5570  115.8140 C.3   185  THR185      0.1897
     68  C          1.8550   27.8760  115.3370 C.2   185  THR185      0.2313
     69  O          2.6050   27.9320  114.3590 O.2   185  THR185     -0.2863
     70  CB         1.5980   26.2850  117.2770 C.3   185  THR185      0.1794
     71  OG1        3.0150   26.3930  117.4680 O.3   185  THR185     -0.2208
     72  CG2        1.1470   24.8880  117.6790 C.3   185  THR185      0.0378
     73  N          8.1100   27.3450  121.2080 N.3   189  PRO189     -0.2116
     74  CA         7.8140   26.0330  121.8060 C.3   189  PRO189      0.1372
     75  C          7.3120   26.1240  123.2330 C.2   189  PRO189      0.2244
     76  O          6.4560   25.3240  123.6320 O.2   189  PRO189     -0.2868
     77  CB         9.1600   25.3030  121.7210 C.3   189  PRO189      0.0268
     78  CG        10.1730   26.3990  121.7440 C.3   189  PRO189      0.0207
     79  CD         9.5530   27.5430  120.9860 C.3   189  PRO189      0.0892
     80  N          3.6900   26.5090  123.3340 N.3   192  ASN192     -0.1225
     81  CA         3.0330   25.2280  123.1040 C.3   192  ASN192      0.1785
     82  C          3.0270   24.3940  124.3770 C.2   192  ASN192      0.2597
     83  O          2.0260   23.7400  124.6990 O.2   192  ASN192     -0.2718
     84  CB         3.7300   24.4770  121.9690 C.3   192  ASN192      0.1169
     85  CG         3.7130   25.2490  120.6640 C.2   192  ASN192      0.2627
     86  OD1        2.7510   25.9550  120.3620 O.2   192  ASN192     -0.2716
     87  ND2        4.7790   25.1190  119.8830 N.am  192  ASN192     -0.0877
     88  N          4.1320   24.4240  125.1250 N.am  193  LEU193     -0.1980
     89  CA         4.2120   23.6760  126.3740 C.3   193  LEU193      0.1596
     90  C          3.1880   24.1780  127.3820 C.2   193  LEU193      0.2287
     91  O          2.4800   23.3850  128.0100 O.2   193  LEU193     -0.2864
     92  CB         5.6230   23.7690  126.9550 C.3   193  LEU193      0.0297
     93  CG         5.7540   23.1820  128.3620 C.3   193  LEU193      0.0022
     94  CD1        5.4480   21.6940  128.3410 C.3   193  LEU193      0.0001
     95  CD2        7.1300   23.4470  128.9520 C.3   193  LEU193      0.0001
     96  N          0.4340   26.1560  126.8230 N.3   195  ALA195     -0.1231
     97  CA        -0.9120   25.9590  126.2970 C.3   195  ALA195      0.1694
     98  C         -1.3500   24.5100  126.4440 C.2   195  ALA195      0.2592
     99  O         -2.5260   24.2310  126.7070 O.2   195  ALA195     -0.2718
    100  CB        -0.9720   26.3920  124.8320 C.3   195  ALA195      0.0304
    101  N         -0.4130   23.5710  126.2910 N.am  196  HIS196     -0.1976
    102  CA        -0.7480   22.1660  126.4900 C.3   196  HIS196      0.1656
    103  C         -0.9190   21.8400  127.9680 C.2   196  HIS196      0.2291
    104  O         -1.7930   21.0510  128.3360 O.2   196  HIS196     -0.2864
    105  CB         0.3220   21.2730  125.8670 C.3   196  HIS196      0.0771
    106  CG         0.0100   19.8140  125.9650 C.ar  196  HIS196      0.0820
    107  ND1       -1.0440   19.2330  125.2940 N.ar  196  HIS196     -0.2267
    108  CD2        0.6050   18.8200  126.6650 C.ar  196  HIS196      0.1154
    109  CE1       -1.0820   17.9430  125.5710 C.ar  196  HIS196      0.1986
    110  NE2       -0.0940   17.6670  126.4020 N.ar  196  HIS196     -0.2212
    111  N         -5.8730   21.2230  124.0520 N.3   203  ALA203     -0.1231
    112  CA        -4.8160   21.9510  123.3590 C.3   203  ALA203      0.1694
    113  C         -3.7160   21.0060  122.8930 C.2   203  ALA203      0.2593
    114  O         -2.7490   20.7570  123.6200 O.2   203  ALA203     -0.2718
    115  CB        -4.2350   23.0410  124.2610 C.3   203  ALA203      0.0304
    116  N         -3.8600   20.4730  121.6800 N.am  204  THR204     -0.1939
    117  CA        -2.9270   19.4850  121.1540 C.3   204  THR204      0.2028
    118  C         -2.6520   19.7220  119.6770 C.2   204  THR204      0.2642
    119  O         -2.7260   20.8570  119.1960 O.2   204  THR204     -0.2714
    120  CB        -3.4750   18.0640  121.3430 C.3   204  THR204      0.1808
    121  OG1       -4.7960   17.9780  120.7930 O.3   204  THR204     -0.2208
    122  CG2       -3.5050   17.6750  122.8180 C.3   204  THR204      0.0379
    123  N         -2.3170   18.6460  118.9580 N.am  205  ILE205     -0.1977
    124  CA        -2.3620   18.6710  117.4990 C.3   205  ILE205      0.1596
    125  C         -3.7410   19.1040  117.0320 C.2   205  ILE205      0.2287
    126  O         -3.8850   19.8510  116.0560 O.2   205  ILE205     -0.2864
    127  CB        -2.0030   17.2840  116.9320 C.3   205  ILE205      0.0276
    128  CG1       -0.5770   16.8970  117.3020 C.3   205  ILE205      0.0022
    129  CG2       -2.1930   17.2520  115.4200 C.3   205  ILE205      0.0022
    130  CD1        0.4520   17.5430  116.4400 C.3   205  ILE205      0.0001
    131  N         -6.1670   20.9440  118.3130 N.3   207  ALA207     -0.1245
    132  CA        -6.7570   22.2500  118.5760 C.3   207  ALA207      0.1562
    133  C         -6.7880   23.1310  117.3350 C.2   207  ALA207      0.2260
    134  O         -7.2600   24.2710  117.4130 O.2   207  ALA207     -0.2867
    135  CB        -5.9970   22.9590  119.6990 C.3   207  ALA207      0.0290
@<TRIPOS>BOND
     1    42    44   ar
     2    42    40   ar
     3    44    43   ar
     4    40    39   ar
     5    43    41   ar
     6    29    28    1
     7    39    41   ar
     8    39    38    1
     9    28    27    1
    10    60    62   ar
    11    60    59   ar
    12    54    55    1
    13    62    64   ar
    14    55    58    1
    15    55    56    1
    16    38    35    1
    17    35    34    1
    18    35    36    1
    19    27    26    1
    20    57    56    2
    21    58    59    1
    22    37    36    2
    23    59    61   ar
    24    56    66   am
    25    64    65    1
    26    64    63   ar
    27    36    45   am
    28    26    23    1
    29    69    68    2
    30    25    24    2
    31    23    24    1
    32    23    22    1
    33    61    63   ar
    34    66    67    1
    35    45    46    1
    36    24    30   am
    37    68    67    1
    38   129   127    1
    39    48    47    2
    40    47    46    1
    41    67    70    1
    42   126   125    2
    43    46    49    1
    44   130   128    1
    45    30    31    1
    46    16    14    1
    47    33    32    2
    48   127   128    1
    49   127   124    1
    50   125   124    1
    51    31    32    1
    52    70    71    1
    53    70    72    1
    54   133   134    2
    55   133   132    1
    56   124   123    1
    57    49    50    1
    58     9    10    1
    59    10    11    1
    60    10    13    1
    61    12    11    2
    62    14    13    1
    63    14    15    1
    64    50    51    1
    65   131   132    1
    66    11    17   am
    67   132   135    1
    68   123   118   am
    69    20    19    2
    70    19    18    1
    71   119   118    2
    72    17    18    1
    73    51    52    2
    74    51    53   am
    75   118   117    1
    76    87    85   am
    77    18    21    1
    78    86    85    2
    79    85    84    1
    80   121   120    1
    81    79    73    1
    82    79    78    1
    83   117   120    1
    84   117   116    1
    85    73    74    1
    86     4     3    2
    87   120   122    1
    88     1     2    1
    89     3     2    1
    90   116   113   am
    91    77    78    1
    92    77    74    1
    93    74    75    1
    94    84    81    1
    95     2     5    1
    96   113   112    1
    97   113   114    2
    98    81    80    1
    99    81    82    1
   100    75    76    2
   101   112   111    1
   102   112   115    1
   103     5     6    1
   104     7     6    1
   105     6     8    1
   106    82    83    2
   107    82    88   am
   108   100    97    1
   109    88    89    1
   110   107   109   ar
   111   107   106   ar
   112   109   110   ar
   113   105   106    1
   114   105   102    1
   115   106   108   ar
   116   101    98   am
   117   101   102    1
   118    97    98    1
   119    97    96    1
   120    89    92    1
   121    89    90    1
   122   110   108   ar
   123    98    99    2
   124   102   103    1
   125    92    93    1
   126    90    91    2
   127   103   104    2
   128    94    93    1
   129    93    95    1
