@<TRIPOS>MOLECULE
tmp/5l8rA02.pdb
 161 156 0 0 0
SMALL
GASTEIGER

@<TRIPOS>ATOM
      1  N         70.0280   30.0450   40.7740 N.3    43  ILE43      -0.1245
      2  CA        69.4070   30.8620   39.7310 C.3    43  ILE43       0.1561
      3  C         68.6340   32.0200   40.3520 C.2    43  ILE43       0.2260
      4  O         68.7720   33.1780   39.9340 O.2    43  ILE43      -0.2867
      5  CB        68.5080   29.9980   38.8290 C.3    43  ILE43       0.0252
      6  CG1       69.3120   28.8460   38.2240 C.3    43  ILE43       0.0019
      7  CG2       67.8910   30.8430   37.7270 C.3    43  ILE43       0.0019
      8  CD1       70.6110   29.2780   37.5700 C.3    43  ILE43       0.0001
      9  N         71.0270   34.6360   41.8100 N.3    46  ARG46      -0.1231
     10  CA        71.7040   35.4840   40.8400 C.3    46  ARG46       0.1694
     11  C         70.7410   36.4710   40.1860 C.2    46  ARG46       0.2592
     12  O         71.0890   37.6460   39.9940 O.2    46  ARG46      -0.2718
     13  CB        72.4050   34.6020   39.8090 C.3    46  ARG46       0.0321
     14  CG        73.5460   33.7870   40.4010 C.3    46  ARG46       0.0489
     15  CD        73.9240   32.6040   39.5240 C.3    46  ARG46       0.2205
     16  NE        75.0480   31.8530   40.0800 N.pl3  46  ARG46      -0.0865
     17  CZ        75.4790   30.6840   39.6140 C.cat  46  ARG46       0.5346
     18  NH1       74.8790   30.1150   38.5780 N.pl3  46  ARG46       0.1354
     19  NH2       76.5100   30.0820   40.1910 N.pl3  46  ARG46       0.1354
     20  N         69.5230   36.0230   39.8550 N.am   47  TRP47      -0.1976
     21  CA        68.5020   36.9600   39.3920 C.3    47  TRP47       0.1640
     22  C         68.2550   38.0530   40.4240 C.2    47  TRP47       0.2290
     23  O         68.0880   39.2250   40.0700 O.2    47  TRP47      -0.2864
     24  CB        67.1910   36.2310   39.0870 C.3    47  TRP47       0.0576
     25  CG        67.1530   35.5080   37.7720 C.ar   47  TRP47       0.0006
     26  CD1       67.0500   34.1600   37.5840 C.ar   47  TRP47       0.0946
     27  CD2       67.2030   36.0920   36.4630 C.ar   47  TRP47       0.0152
     28  NE1       67.0420   33.8670   36.2410 N.ar   47  TRP47      -0.2442
     29  CE2       67.1340   35.0360   35.5320 C.ar   47  TRP47       0.0810
     30  CE3       67.3030   37.4040   35.9880 C.ar   47  TRP47       0.0012
     31  CZ2       67.1600   35.2510   34.1550 C.ar   47  TRP47       0.0191
     32  CZ3       67.3290   37.6140   34.6200 C.ar   47  TRP47       0.0001
     33  CH2       67.2590   36.5440   33.7200 C.ar   47  TRP47       0.0015
     34  N         71.1860   40.5360   40.6150 N.3    50  LEU50      -0.1245
     35  CA        71.1270   41.5080   39.5270 C.3    50  LEU50       0.1561
     36  C         69.9710   42.4880   39.7040 C.2    50  LEU50       0.2260
     37  O         70.1040   43.6770   39.3920 O.2    50  LEU50      -0.2867
     38  CB        70.9970   40.7970   38.1790 C.3    50  LEU50       0.0270
     39  CG        72.2480   40.2290   37.5120 C.3    50  LEU50       0.0019
     40  CD1       71.9160   39.7870   36.0950 C.3    50  LEU50       0.0001
     41  CD2       73.3780   41.2460   37.5110 C.3    50  LEU50       0.0001
     42  N         65.0810   35.5170   26.1280 N.3   103  ILE103     -0.1245
     43  CA        65.0690   34.7920   27.3970 C.3   103  ILE103      0.1561
     44  C         64.8120   33.3090   27.1630 C.2   103  ILE103      0.2260
     45  O         65.4890   32.4450   27.7360 O.2   103  ILE103     -0.2867
     46  CB        64.0250   35.3980   28.3520 C.3   103  ILE103      0.0252
     47  CG1       64.3990   36.8360   28.7170 C.3   103  ILE103      0.0019
     48  CG2       63.8860   34.5400   29.6020 C.3   103  ILE103      0.0019
     49  CD1       65.7760   36.9750   29.3230 C.3   103  ILE103      0.0001
     50  N         65.4150   31.4560   24.5270 N.3   105  PHE105     -0.1227
     51  CA        66.5980   30.8080   23.9690 C.3   105  PHE105      0.1736
     52  C         67.6360   30.5370   25.0500 C.2   105  PHE105      0.2595
     53  O         68.0550   29.3920   25.2510 O.2   105  PHE105     -0.2718
     54  CB        67.1990   31.6600   22.8520 C.3   105  PHE105      0.0547
     55  CG        68.4370   31.0620   22.2460 C.ar  105  PHE105     -0.0202
     56  CD1       68.3460   29.9880   21.3770 C.ar  105  PHE105     -0.0042
     57  CD2       69.6900   31.5680   22.5510 C.ar  105  PHE105     -0.0042
     58  CE1       69.4830   29.4330   20.8170 C.ar  105  PHE105     -0.0003
     59  CE2       70.8310   31.0170   21.9950 C.ar  105  PHE105     -0.0003
     60  CZ        70.7270   29.9480   21.1270 C.ar  105  PHE105     -0.0000
     61  N         68.0510   31.5830   25.7690 N.am  106  VAL106     -0.1966
     62  CA        69.1270   31.4400   26.7550 C.3   106  VAL106      0.1727
     63  C         68.7650   30.3910   27.8090 C.2   106  VAL106      0.2616
     64  O         69.4890   29.4020   28.0280 O.2   106  VAL106     -0.2715
     65  CB        69.4290   32.8020   27.4020 C.3   106  VAL106      0.0290
     66  CG1       70.2930   32.6290   28.6360 C.3   106  VAL106      0.0023
     67  CG2       70.0890   33.7270   26.3910 C.3   106  VAL106      0.0023
     68  N         67.6320   30.5960   28.4810 N.am  107  GLU107     -0.1977
     69  CA        67.2580   29.7040   29.5700 C.3   107  GLU107      0.1602
     70  C         67.0720   28.2760   29.0720 C.2   107  GLU107      0.2287
     71  O         67.4760   27.3190   29.7460 O.2   107  GLU107     -0.2864
     72  CB        65.9890   30.2150   30.2480 C.3   107  GLU107      0.0415
     73  CG        65.7900   29.6790   31.6460 C.3   107  GLU107      0.1163
     74  CD        66.4430   30.5310   32.7120 C.2   107  GLU107      0.3649
     75  OE1       67.3570   31.3140   32.3820 O.co2 107  GLU107     -0.2457
     76  OE2       66.0360   30.4140   33.8880 O.co2 107  GLU107     -0.2457
     77  N         68.7040   26.9560   26.6950 N.3   109  GLN109     -0.1231
     78  CA        70.0670   26.4420   26.6290 C.3   109  GLN109      0.1698
     79  C         70.4830   25.8640   27.9690 C.2   109  GLN109      0.2592
     80  O         71.1330   24.8120   28.0250 O.2   109  GLN109     -0.2718
     81  CB        71.0440   27.5360   26.2010 C.3   109  GLN109      0.0381
     82  CG        70.8340   28.0420   24.7930 C.3   109  GLN109      0.0905
     83  CD        70.8620   26.9290   23.7720 C.2   109  GLN109      0.2608
     84  OE1       71.6920   26.0230   23.8460 O.2   109  GLN109     -0.2717
     85  NE2       69.9470   26.9850   22.8140 N.am  109  GLN109     -0.0878
     86  N         70.1080   26.5250   29.0680 N.am  110  ARG110     -0.1980
     87  CA        70.3800   25.8920   30.3570 C.3   110  ARG110      0.1597
     88  C         69.5670   24.6110   30.5470 C.2   110  ARG110      0.2287
     89  O         70.0170   23.6960   31.2460 O.2   110  ARG110     -0.2864
     90  CB        70.1190   26.8580   31.5120 C.3   110  ARG110      0.0334
     91  CG        70.6990   26.3740   32.8370 C.3   110  ARG110      0.0492
     92  CD        70.3700   27.3300   33.9550 C.3   110  ARG110      0.2205
     93  NE        68.9430   27.3370   34.2470 N.pl3 110  ARG110     -0.0865
     94  CZ        68.2730   28.4140   34.6380 C.cat 110  ARG110      0.5346
     95  NH1       68.9020   29.5730   34.7660 N.pl3 110  ARG110      0.1354
     96  NH2       66.9740   28.3360   34.8870 N.pl3 110  ARG110      0.1354
     97  N         71.3470   21.2280   29.0750 N.3   113  GLU113     -0.1245
     98  CA        72.6350   20.7850   29.5920 C.3   113  GLU113      0.1567
     99  C         72.4300   20.1260   30.9460 C.2   113  GLU113      0.2260
    100  O         71.7290   20.6700   31.8060 O.2   113  GLU113     -0.2867
    101  CB        73.6240   21.9450   29.7120 C.3   113  GLU113      0.0388
    102  CG        74.9060   21.6040   30.4650 C.3   113  GLU113      0.1160
    103  CD        75.7580   20.5650   29.7550 C.2   113  GLU113      0.3649
    104  OE1       75.5060   20.2840   28.5630 O.co2 113  GLU113     -0.2457
    105  OE2       76.6880   20.0300   30.3920 O.co2 113  GLU113     -0.2457
    106  N         77.7320   21.5120   36.0620 N.3   118  LYS118     -0.1231
    107  CA        77.7790   22.7190   35.2460 C.3   118  LYS118      0.1693
    108  C         76.4850   23.5190   35.3230 C.2   118  LYS118      0.2591
    109  O         76.5080   24.7320   35.0880 O.2   118  LYS118     -0.2718
    110  CB        78.0860   22.3660   33.7890 C.3   118  LYS118      0.0285
    111  CG        79.4470   21.7170   33.5760 C.3   118  LYS118      0.0035
    112  CD        79.6590   21.3320   32.1190 C.3   118  LYS118      0.0206
    113  CE        79.8520   22.5570   31.2360 C.3   118  LYS118      0.1093
    114  NZ        81.1370   23.2600   31.5190 N.3   118  LYS118     -0.1314
    115  N         75.3610   22.8710   35.6430 N.am  119  LYS119     -0.1980
    116  CA        74.1050   23.5970   35.8000 C.3   119  LYS119      0.1596
    117  C         74.1380   24.5480   36.9870 C.2   119  LYS119      0.2287
    118  O         73.3820   25.5260   37.0020 O.2   119  LYS119     -0.2864
    119  CB        72.9450   22.6180   35.9540 C.3   119  LYS119      0.0298
    120  CG        72.8120   21.6430   34.8060 C.3   119  LYS119      0.0038
    121  CD        71.6760   20.6730   35.0540 C.3   119  LYS119      0.0206
    122  CE        70.3240   21.3610   34.9700 C.3   119  LYS119      0.1093
    123  NZ        70.0120   21.8720   33.6080 N.3   119  LYS119     -0.1314
    124  N         78.8720   26.7210   35.7880 N.3   122  PRO122     -0.2116
    125  CA        79.4030   26.3810   34.4600 C.3   122  PRO122      0.1372
    126  C         80.8020   26.9270   34.2180 C.2   122  PRO122      0.2244
    127  O         81.7070   26.1780   33.8350 O.2   122  PRO122     -0.2868
    128  CB        78.3800   27.0090   33.5040 C.3   122  PRO122      0.0268
    129  CG        77.7790   28.1330   34.2790 C.3   122  PRO122      0.0207
    130  CD        77.7690   27.6960   35.7180 C.3   122  PRO122      0.0892
    131  N         83.3310   30.5530   29.6020 N.3   125  ALA125     -0.1231
    132  CA        83.0420   31.9010   29.1280 C.3   125  ALA125      0.1694
    133  C         82.4920   32.7800   30.2430 C.2   125  ALA125      0.2592
    134  O         82.6680   34.0040   30.2150 O.2   125  ALA125     -0.2718
    135  CB        82.0570   31.8480   27.9610 C.3   125  ALA125      0.0304
    136  N         81.8350   32.1790   31.2310 N.am  126  PHE126     -0.1976
    137  CA        81.2800   32.9150   32.3560 C.3   126  PHE126      0.1639
    138  C         82.2660   33.0730   33.5040 C.2   126  PHE126      0.2290
    139  O         81.8960   33.6170   34.5500 O.2   126  PHE126     -0.2864
    140  CB        80.0010   32.2320   32.8430 C.3   126  PHE126      0.0560
    141  CG        78.9220   32.1740   31.8030 C.ar  126  PHE126     -0.0200
    142  CD1       78.0110   33.2080   31.6740 C.ar  126  PHE126     -0.0042
    143  CD2       78.8300   31.0960   30.9400 C.ar  126  PHE126     -0.0042
    144  CE1       77.0190   33.1620   30.7130 C.ar  126  PHE126     -0.0003
    145  CE2       77.8420   31.0440   29.9760 C.ar  126  PHE126     -0.0003
    146  CZ        76.9350   32.0780   29.8620 C.ar  126  PHE126     -0.0000
    147  N         85.7280   34.4710   32.6940 N.3   128  PRO128     -0.2102
    148  CA        86.9050   34.9130   31.9290 C.3   128  PRO128      0.1504
    149  C         88.0440   35.3800   32.8150 C.2   128  PRO128      0.2575
    150  O         89.2120   35.1240   32.4970 O.2   128  PRO128     -0.2718
    151  CB        86.3480   36.0470   31.0560 C.3   128  PRO128      0.0282
    152  CG        85.1820   36.5630   31.8140 C.3   128  PRO128      0.0208
    153  CD        84.5770   35.3710   32.4950 C.3   128  PRO128      0.0893
    154  N         87.7420   36.0560   33.9250 N.am  129  LEU129     -0.1980
    155  CA        88.7860   36.4310   34.8690 C.3   129  LEU129      0.1596
    156  C         89.3350   35.2350   35.6360 C.2   129  LEU129      0.2287
    157  O         90.3260   35.3870   36.3590 O.2   129  LEU129     -0.2864
    158  CB        88.2630   37.4880   35.8440 C.3   129  LEU129      0.0297
    159  CG        88.0210   38.8740   35.2410 C.3   129  LEU129      0.0022
    160  CD1       87.5750   39.8670   36.3050 C.3   129  LEU129      0.0001
    161  CD2       89.2700   39.3700   34.5280 C.3   129  LEU129      0.0001
@<TRIPOS>BOND
     1    58    60   ar
     2    58    56   ar
     3    60    59   ar
     4    56    55   ar
     5    59    57   ar
     6    55    57   ar
     7    55    54    1
     8    85    83   am
     9    54    51    1
    10    83    84    2
    11    83    82    1
    12    51    50    1
    13    51    52    1
    14    82    81    1
    15    52    53    2
    16    52    61   am
    17    61    62    1
    18    42    43    1
    19    81    78    1
    20    67    65    1
    21    78    77    1
    22    78    79    1
    23    62    65    1
    24    62    63    1
    25    44    43    1
    26    44    45    2
    27    43    46    1
    28    65    66    1
    29    63    64    2
    30    63    68   am
    31   135   132    1
    32    79    80    2
    33    79    86   am
    34    46    47    1
    35    46    48    1
    36    68    69    1
    37   104   103   ar
    38    47    49    1
    39    86    87    1
    40    70    69    1
    41    70    71    2
    42    97    98    1
    43   132   131    1
    44   132   133    1
    45    69    72    1
    46    98   101    1
    47    98    99    1
    48   101   102    1
    49   103   105   ar
    50   103   102    1
    51   146   145   ar
    52   146   144   ar
    53   145   143   ar
    54   134   133    2
    55   133   136   am
    56    72    73    1
    57    87    88    1
    58    87    90    1
    59    88    89    2
    60   144   142   ar
    61   143   141   ar
    62    99   100    2
    63   151   152    1
    64   151   148    1
    65   136   137    1
    66   113   114    1
    67   113   112    1
    68    90    91    1
    69    73    74    1
    70   142   141   ar
    71   141   140    1
    72   152   153    1
    73   148   147    1
    74   148   149    1
    75   112   111    1
    76   137   140    1
    77   137   138    1
    78    75    74   ar
    79   153   147    1
    80   150   149    2
    81    74    76   ar
    82   149   154   am
    83    91    92    1
    84   128   129    1
    85   128   125    1
    86   138   139    2
    87   111   110    1
    88   123   122    1
    89    33    31   ar
    90    33    32   ar
    91   110   107    1
    92   127   126    2
    93   154   155    1
    94    92    93    1
    95    31    29   ar
    96   126   125    1
    97    93    94    2
    98   129   130    1
    99   125   124    1
   100   161   159    1
   101    32    30   ar
   102    94    95    1
   103    94    96    1
   104   120   121    1
   105   120   119    1
   106   155   156    1
   107   155   158    1
   108   122   121    1
   109   109   108    2
   110   159   158    1
   111   159   160    1
   112   107   108    1
   113   107   106    1
   114   108   115   am
   115    29    28   ar
   116    29    27   ar
   117   156   157    2
   118   115   116    1
   119   130   124    1
   120   116   119    1
   121   116   117    1
   122    30    27   ar
   123    40    39    1
   124    28    26   ar
   125    27    25   ar
   126   117   118    2
   127    41    39    1
   128    39    38    1
   129     8     6    1
   130    26    25   ar
   131     7     5    1
   132    25    24    1
   133    38    35    1
   134     6     5    1
   135    18    17    1
   136     5     2    1
   137    24    21    1
   138    37    36    2
   139    21    20    1
   140    21    22    1
   141    15    16    1
   142    15    14    1
   143    35    36    1
   144    35    34    1
   145    17    16    2
   146    17    19    1
   147     2     3    1
   148     2     1    1
   149    13    14    1
   150    13    10    1
   151    20    11   am
   152     4     3    2
   153    12    11    2
   154    23    22    2
   155    11    10    1
   156    10     9    1
