@<TRIPOS>MOLECULE
tmp/5l8rB04.pdb
 96 94 0 0 0
SMALL
GASTEIGER

@<TRIPOS>ATOM
      1  N         25.2870   18.6740  117.2680 N.3    55  TRP55      -0.1241
      2  CA        24.6440   19.8700  116.7290 C.3    55  TRP55       0.1605
      3  C         23.2240   20.0170  117.2510 C.2    55  TRP55       0.2264
      4  O         22.7790   21.1280  117.5550 O.2    55  TRP55      -0.2867
      5  CB        24.6240   19.8310  115.2040 C.3    55  TRP55       0.0550
      6  CG        25.9220   20.1530  114.5540 C.ar   55  TRP55       0.0003
      7  CD1       26.5850   19.3930  113.6400 C.ar   55  TRP55       0.0946
      8  CD2       26.7170   21.3280  114.7520 C.ar   55  TRP55       0.0152
      9  NE1       27.7480   20.0140  113.2570 N.ar   55  TRP55      -0.2442
     10  CE2       27.8510   21.2070  113.9240 C.ar   55  TRP55       0.0810
     11  CE3       26.5830   22.4700  115.5490 C.ar   55  TRP55       0.0012
     12  CZ2       28.8440   22.1800  113.8730 C.ar   55  TRP55       0.0191
     13  CZ3       27.5690   23.4330  115.4960 C.ar   55  TRP55       0.0001
     14  CH2       28.6850   23.2830  114.6640 C.ar   55  TRP55       0.0015
     15  N         15.4520   34.4430  113.8330 N.3    83  ALA83      -0.1231
     16  CA        16.7310   35.0590  114.1680 C.3    83  ALA83       0.1694
     17  C         17.6230   35.2650  112.9480 C.2    83  ALA83       0.2592
     18  O         18.5640   36.0630  113.0160 O.2    83  ALA83      -0.2718
     19  CB        17.4670   34.2180  115.2120 C.3    83  ALA83       0.0304
     20  N         17.3520   34.5690  111.8400 N.am   84  GLY84      -0.1957
     21  CA        18.1570   34.7550  110.6440 C.3    84  GLY84       0.1869
     22  C         17.8990   36.0730  109.9420 C.2    84  GLY84       0.2309
     23  O         18.8110   36.6490  109.3400 O.2    84  GLY84      -0.2863
     24  N         22.6840   42.0600  112.1270 N.3    88  TYR88      -0.1227
     25  CA        23.7910   42.0910  113.0620 C.3    88  TYR88       0.1736
     26  C         24.8310   43.0750  112.5340 C.2    88  TYR88       0.2595
     27  O         24.6070   43.7530  111.5270 O.2    88  TYR88      -0.2718
     28  CB        24.3280   40.6720  113.2570 C.3    88  TYR88       0.0548
     29  CG        23.2380   39.6990  113.6640 C.ar   88  TYR88      -0.0200
     30  CD1       22.9330   39.4880  115.0030 C.ar   88  TYR88      -0.0009
     31  CD2       22.4960   39.0150  112.7100 C.ar   88  TYR88      -0.0009
     32  CE1       21.9290   38.6120  115.3790 C.ar   88  TYR88       0.0417
     33  CE2       21.4900   38.1400  113.0770 C.ar   88  TYR88       0.0417
     34  CZ        21.2120   37.9400  114.4120 C.ar   88  TYR88       0.1957
     35  OH        20.2120   37.0700  114.7840 O.3    88  TYR88      -0.2866
     36  N         25.9850   43.1550  113.2060 N.am   89  PHE89      -0.1976
     37  CA        26.9720   44.1810  112.8740 C.3    89  PHE89       0.1639
     38  C         27.3920   44.1540  111.4110 C.2    89  PHE89       0.2290
     39  O         28.0220   45.1100  110.9470 O.2    89  PHE89      -0.2864
     40  CB        28.2080   44.0460  113.7680 C.3    89  PHE89       0.0560
     41  CG        29.0100   42.8060  113.5160 C.ar   89  PHE89      -0.0200
     42  CD1       30.0710   42.8160  112.6260 C.ar   89  PHE89      -0.0042
     43  CD2       28.7100   41.6310  114.1770 C.ar   89  PHE89      -0.0042
     44  CE1       30.8070   41.6800  112.3970 C.ar   89  PHE89      -0.0003
     45  CE2       29.4450   40.4920  113.9490 C.ar   89  PHE89      -0.0003
     46  CZ        30.4960   40.5150  113.0590 C.ar   89  PHE89      -0.0000
     47  N         24.3640   39.0890  106.8910 N.3    92  THR92      -0.1218
     48  CA        24.4540   37.6790  107.2550 C.3    92  THR92       0.1862
     49  C         25.2760   36.8870  106.2490 C.2    92  THR92       0.2287
     50  O         25.9210   35.9080  106.6270 O.2    92  THR92      -0.2866
     51  CB        23.0660   37.0600  107.3690 C.3    92  THR92       0.1770
     52  OG1       22.6300   36.6320  106.0700 O.3    92  THR92      -0.2211
     53  CG2       22.0790   38.0690  107.9230 C.3    92  THR92       0.0375
     54  N         28.8730   36.9760  107.1680 N.3    95  LEU95      -0.1245
     55  CA        28.9650   36.1110  108.3410 C.3    95  LEU95       0.1561
     56  C         28.9810   34.6510  107.9280 C.2    95  LEU95       0.2260
     57  O         29.7360   33.8390  108.4750 O.2    95  LEU95      -0.2867
     58  CB        27.7830   36.3580  109.2770 C.3    95  LEU95       0.0270
     59  CG        27.6220   37.6800  110.0130 C.3    95  LEU95       0.0019
     60  CD1       26.2890   37.6790  110.7430 C.3    95  LEU95       0.0001
     61  CD2       28.7700   37.8780  110.9840 C.3    95  LEU95       0.0001
     62  N         32.3790   33.7160  106.3630 N.3    98  VAL98      -0.1231
     63  CA        33.2470   33.4740  107.5170 C.3    98  VAL98       0.1692
     64  C         33.0190   32.0670  108.0560 C.2    98  VAL98       0.2591
     65  O         33.9550   31.2660  108.2180 O.2    98  VAL98      -0.2718
     66  CB        32.9840   34.5280  108.6080 C.3    98  VAL98       0.0266
     67  CG1       33.7400   34.1930  109.8730 C.3    98  VAL98       0.0020
     68  CG2       33.3390   35.9050  108.1200 C.3    98  VAL98       0.0020
     69  N         31.7510   31.7520  108.3240 N.am   99  GLU99      -0.1979
     70  CA        31.3770   30.4550  108.8740 C.3    99  GLU99       0.1602
     71  C         31.8440   29.3110  107.9800 C.2    99  GLU99       0.2287
     72  O         32.3930   28.3190  108.4690 O.2    99  GLU99      -0.2864
     73  CB        29.8620   30.4180  109.0690 C.3    99  GLU99       0.0415
     74  CG        29.2980   29.0850  109.4940 C.3    99  GLU99       0.1163
     75  CD        27.7990   29.1480  109.6950 C.2    99  GLU99       0.3649
     76  OE1       27.2380   30.2650  109.6470 O.co2  99  GLU99      -0.2457
     77  OE2       27.1810   28.0830  109.9000 O.co2  99  GLU99      -0.2457
     78  N         35.9020   28.9760  108.3840 N.3   102  PHE102     -0.1227
     79  CA        36.4110   28.3830  109.6210 C.3   102  PHE102      0.1736
     80  C         35.8350   26.9850  109.8490 C.2   102  PHE102      0.2595
     81  O         36.5790   26.0150  110.0790 O.2   102  PHE102     -0.2718
     82  CB        36.1020   29.3050  110.8010 C.3   102  PHE102      0.0547
     83  CG        36.8380   30.6220  110.7540 C.ar  102  PHE102     -0.0202
     84  CD1       38.1280   30.7340  111.2520 C.ar  102  PHE102     -0.0042
     85  CD2       36.2400   31.7480  110.2140 C.ar  102  PHE102     -0.0042
     86  CE1       38.8050   31.9420  111.2110 C.ar  102  PHE102     -0.0003
     87  CE2       36.9140   32.9590  110.1700 C.ar  102  PHE102     -0.0003
     88  CZ        38.1950   33.0550  110.6700 C.ar  102  PHE102     -0.0000
     89  N         34.5050   26.8640  109.7870 N.am  103  ILE103     -0.1980
     90  CA        33.8600   25.5560  109.8680 C.3   103  ILE103      0.1595
     91  C         34.3740   24.6370  108.7700 C.2   103  ILE103      0.2287
     92  O         34.5050   23.4260  108.9760 O.2   103  ILE103     -0.2864
     93  CB        32.3270   25.7140  109.8060 C.3   103  ILE103      0.0276
     94  CG1       31.8230   26.5370  110.9900 C.3   103  ILE103      0.0022
     95  CG2       31.6410   24.3570  109.7910 C.3   103  ILE103      0.0022
     96  CD1       31.9900   25.8520  112.3170 C.3   103  ILE103      0.0001
@<TRIPOS>BOND
     1    52    51    1
     2    49    50    2
     3    49    48    1
     4    62    63    1
     5    47    48    1
     6    54    55    1
     7    48    51    1
     8    51    53    1
     9    63    64    1
    10    63    66    1
    11    56    55    1
    12    56    57    2
    13    71    72    2
    14    71    70    1
    15    64    65    2
    16    64    69   am
    17    68    66    1
    18    69    70    1
    19    55    58    1
    20    78    79    1
    21    66    67    1
    22    91    92    2
    23    91    90    1
    24    70    73    1
    25    73    74    1
    26    58    59    1
    27    23    22    2
    28    74    75    1
    29    79    80    1
    30    79    82    1
    31    76    75   ar
    32    75    77   ar
    33    89    80   am
    34    89    90    1
    35    95    93    1
    36    93    90    1
    37    93    94    1
    38    80    81    2
    39    22    21    1
    40    59    60    1
    41    59    61    1
    42    87    85   ar
    43    87    88   ar
    44    85    83   ar
    45    21    20    1
    46    88    86   ar
    47    83    82    1
    48    83    84   ar
    49    39    38    2
    50    94    96    1
    51    86    84   ar
    52    38    37    1
    53    27    26    2
    54    20    17   am
    55    24    25    1
    56    44    42   ar
    57    44    46   ar
    58    26    25    1
    59    26    36   am
    60    42    41   ar
    61    31    33   ar
    62    31    29   ar
    63    37    36    1
    64    37    40    1
    65    17    18    2
    66    17    16    1
    67    46    45   ar
    68    25    28    1
    69    33    34   ar
    70     9     7   ar
    71     9    10   ar
    72    28    29    1
    73    41    40    1
    74    41    43   ar
    75     7     6   ar
    76    29    30   ar
    77    15    16    1
    78    12    10   ar
    79    12    14   ar
    80    10     8   ar
    81    45    43   ar
    82    16    19    1
    83    34    35    1
    84    34    32   ar
    85     6     8   ar
    86     6     5    1
    87    14    13   ar
    88     8    11   ar
    89    30    32   ar
    90     5     2    1
    91    13    11   ar
    92     2     3    1
    93     2     1    1
    94     3     4    2
