@<TRIPOS>MOLECULE
tmp/5l8rE10.pdb
 197 182 0 0 0
SMALL
GASTEIGER

@<TRIPOS>ATOM
      1  N        -14.5570  -17.6110   87.9390 N.3   188  LEU188     -0.1245
      2  CA       -15.6690  -17.0790   87.1600 C.3   188  LEU188      0.1561
      3  C        -16.8700  -16.7770   88.0470 C.2   188  LEU188      0.2260
      4  O        -17.5500  -15.7640   87.8550 O.2   188  LEU188     -0.2867
      5  CB       -16.0480  -18.0590   86.0500 C.3   188  LEU188      0.0270
      6  CG       -15.1190  -18.0690   84.8350 C.3   188  LEU188      0.0019
      7  CD1      -15.4750  -19.1980   83.8840 C.3   188  LEU188      0.0001
      8  CD2      -15.1880  -16.7320   84.1190 C.3   188  LEU188      0.0001
      9  N        -18.1010  -12.9310   88.1130 N.3   192  LEU192     -0.1245
     10  CA       -19.4630  -12.6460   87.6730 C.3   192  LEU192      0.1561
     11  C        -20.2910  -12.0580   88.8110 C.2   192  LEU192      0.2260
     12  O        -20.8200  -10.9430   88.7000 O.2   192  LEU192     -0.2867
     13  CB       -20.1270  -13.9170   87.1360 C.3   192  LEU192      0.0270
     14  CG       -19.5860  -14.5560   85.8570 C.3   192  LEU192      0.0019
     15  CD1      -20.3960  -15.7950   85.5000 C.3   192  LEU192      0.0001
     16  CD2      -19.5830  -13.5670   84.7120 C.3   192  LEU192      0.0001
     17  N        -18.3540   -8.0210   89.3100 N.3   196  LEU196     -0.1245
     18  CA       -19.2430   -7.2490   88.4480 C.3   196  LEU196      0.1561
     19  C        -20.5800   -6.9790   89.1250 C.2   196  LEU196      0.2260
     20  O        -21.0960   -5.8550   89.0680 O.2   196  LEU196     -0.2867
     21  CB       -19.4410   -7.9810   87.1220 C.3   196  LEU196      0.0270
     22  CG       -18.1470   -8.1540   86.3200 C.3   196  LEU196      0.0019
     23  CD1      -18.3700   -9.0220   85.0940 C.3   196  LEU196      0.0001
     24  CD2      -17.5690   -6.7980   85.9250 C.3   196  LEU196      0.0001
     25  N        -28.4280   -9.5110   87.1730 N.3   294  LEU294     -0.1231
     26  CA       -28.0430  -10.4670   86.1370 C.3   294  LEU294      0.1693
     27  C        -26.7140  -11.1380   86.4620 C.2   294  LEU294      0.2592
     28  O        -26.5760  -12.3590   86.3120 O.2   294  LEU294     -0.2718
     29  CB       -27.9720   -9.7740   84.7750 C.3   294  LEU294      0.0284
     30  CG       -27.7220  -10.7010   83.5810 C.3   294  LEU294      0.0019
     31  CD1      -28.8140  -11.7560   83.5000 C.3   294  LEU294      0.0001
     32  CD2      -27.6360   -9.9160   82.2810 C.3   294  LEU294      0.0001
     33  N        -25.7270  -10.3620   86.9190 N.am  295  PHE295     -0.1976
     34  CA       -24.4180  -10.9410   87.2080 C.3   295  PHE295      0.1639
     35  C        -24.4360  -11.7560   88.4940 C.2   295  PHE295      0.2290
     36  O        -23.7880  -12.8090   88.5770 O.2   295  PHE295     -0.2864
     37  CB       -23.3620   -9.8430   87.2790 C.3   295  PHE295      0.0560
     38  CG       -22.8040   -9.4660   85.9450 C.ar  295  PHE295     -0.0200
     39  CD1      -22.0070  -10.3520   85.2390 C.ar  295  PHE295     -0.0042
     40  CD2      -23.0760   -8.2300   85.3930 C.ar  295  PHE295     -0.0042
     41  CE1      -21.4940  -10.0120   84.0060 C.ar  295  PHE295     -0.0003
     42  CE2      -22.5630   -7.8800   84.1620 C.ar  295  PHE295     -0.0003
     43  CZ       -21.7680   -8.7720   83.4680 C.ar  295  PHE295     -0.0000
     44  N        -26.8510  -13.4940   89.4610 N.3   297  ILE297     -0.1231
     45  CA       -27.3870  -14.7820   89.0310 C.3   297  ILE297      0.1692
     46  C        -26.3300  -15.5680   88.2650 C.2   297  ILE297      0.2591
     47  O        -26.1100  -16.7580   88.5190 O.2   297  ILE297     -0.2718
     48  CB       -28.6600  -14.5830   88.1880 C.3   297  ILE297      0.0266
     49  CG1      -29.8190  -14.1100   89.0660 C.3   297  ILE297      0.0019
     50  CG2      -29.0290  -15.8680   87.4630 C.3   297  ILE297      0.0020
     51  CD1      -31.1220  -13.9570   88.3110 C.3   297  ILE297      0.0001
     52  N        -25.6490  -14.9090   87.3220 N.am  298  ALA298     -0.1980
     53  CA       -24.6850  -15.6030   86.4750 C.3   298  ALA298      0.1597
     54  C        -23.5520  -16.2200   87.2850 C.2   298  ALA298      0.2287
     55  O        -22.9370  -17.1970   86.8440 O.2   298  ALA298     -0.2864
     56  CB       -24.1260  -14.6450   85.4230 C.3   298  ALA298      0.0319
     57  N        -23.5100  -20.2690   88.2330 N.3   301  MET301     -0.1230
     58  CA       -23.6280  -21.2810   87.1940 C.3   301  MET301      0.1702
     59  C        -22.6640  -22.4400   87.4220 C.2   301  MET301      0.2592
     60  O        -22.9730  -23.5810   87.0620 O.2   301  MET301     -0.2718
     61  CB       -23.3900  -20.6490   85.8240 C.3   301  MET301      0.0401
     62  CG       -23.5330  -21.6220   84.6760 C.3   301  MET301      0.0596
     63  SD       -23.3250  -20.8690   83.0610 S.3   301  MET301     -0.1393
     64  CE       -23.0730  -22.3430   82.0740 C.3   301  MET301      0.0692
     65  N        -21.5130  -22.1790   88.0330 N.am  302  TYR302     -0.1976
     66  CA       -20.3980  -23.1180   88.0450 C.3   302  TYR302      0.1639
     67  C        -20.2730  -23.7920   89.4040 C.2   302  TYR302      0.2290
     68  O        -20.3460  -23.1280   90.4440 O.2   302  TYR302     -0.2864
     69  CB       -19.1070  -22.3930   87.6700 C.3   302  TYR302      0.0560
     70  CG       -19.1890  -21.7830   86.2920 C.ar  302  TYR302     -0.0198
     71  CD1      -19.7270  -22.5010   85.2310 C.ar  302  TYR302     -0.0009
     72  CD2      -18.7620  -20.4840   86.0540 C.ar  302  TYR302     -0.0009
     73  CE1      -19.8180  -21.9520   83.9690 C.ar  302  TYR302      0.0417
     74  CE2      -18.8500  -19.9250   84.7920 C.ar  302  TYR302      0.0417
     75  CZ       -19.3790  -20.6630   83.7540 C.ar  302  TYR302      0.1957
     76  OH       -19.4690  -20.1130   82.4960 O.3   302  TYR302     -0.2866
     77  N        -17.2530  -27.0230   83.9230 N.3   312  ILE312     -0.1245
     78  CA       -17.1030  -26.4750   82.5770 C.3   312  ILE312      0.1561
     79  C        -16.6240  -27.5520   81.6080 C.2   312  ILE312      0.2260
     80  O        -17.0410  -27.5890   80.4420 O.2   312  ILE312     -0.2867
     81  CB       -16.1620  -25.2570   82.6120 C.3   312  ILE312      0.0252
     82  CG1      -16.7320  -24.1880   83.5460 C.3   312  ILE312      0.0019
     83  CG2      -15.9800  -24.6730   81.2330 C.3   312  ILE312      0.0019
     84  CD1      -15.8880  -22.9500   83.6340 C.3   312  ILE312      0.0001
     85  N        -19.5560  -29.3600   80.1950 N.3   315  ILE315     -0.1231
     86  CA       -20.2530  -28.5780   79.1770 C.3   315  ILE315      0.1692
     87  C        -19.5070  -28.6460   77.8520 C.2   315  ILE315      0.2591
     88  O        -20.1020  -28.9120   76.8000 O.2   315  ILE315     -0.2718
     89  CB       -20.4340  -27.1240   79.6480 C.3   315  ILE315      0.0266
     90  CG1      -21.0780  -27.0850   81.0340 C.3   315  ILE315      0.0019
     91  CG2      -21.2870  -26.3530   78.6610 C.3   315  ILE315      0.0020
     92  CD1      -21.3660  -25.6810   81.5290 C.3   315  ILE315      0.0001
     93  N        -18.1900  -28.4100   77.8840 N.am  316  LEU316     -0.1980
     94  CA       -17.3850  -28.5080   76.6680 C.3   316  LEU316      0.1596
     95  C        -17.5740  -29.8590   75.9870 C.2   316  LEU316      0.2287
     96  O        -17.9230  -29.9280   74.8030 O.2   316  LEU316     -0.2864
     97  CB       -15.9040  -28.2860   76.9850 C.3   316  LEU316      0.0297
     98  CG       -15.2810  -26.8960   76.8220 C.3   316  LEU316      0.0022
     99  CD1      -15.9030  -26.1410   75.6580 C.3   316  LEU316      0.0001
    100  CD2      -15.4110  -26.0950   78.0920 C.3   316  LEU316      0.0001
    101  N        -20.5640  -30.8420   73.7380 N.3   319  HIS319     -0.1241
    102  CA       -20.8130  -30.0650   72.5270 C.3   319  HIS319      0.1621
    103  C        -19.9350  -30.5850   71.3940 C.2   319  HIS319      0.2264
    104  O        -18.7800  -30.1790   71.2520 O.2   319  HIS319     -0.2867
    105  CB       -20.5690  -28.5860   72.7980 C.3   319  HIS319      0.0745
    106  CG       -21.5690  -27.9800   73.7260 C.ar  319  HIS319      0.0817
    107  ND1      -21.4940  -28.1220   75.0940 N.ar  319  HIS319     -0.2268
    108  CD2      -22.6820  -27.2490   73.4820 C.ar  319  HIS319      0.1154
    109  CE1      -22.5110  -27.4930   75.6550 C.ar  319  HIS319      0.1986
    110  NE2      -23.2430  -26.9520   74.6990 N.ar  319  HIS319     -0.2212
    111  N         -7.7450  -15.0100   74.1960 N.3   345  ILE345     -0.1245
    112  CA        -9.1950  -14.8120   74.2140 C.3   345  ILE345      0.1561
    113  C         -9.5510  -13.4960   74.8980 C.2   345  ILE345      0.2260
    114  O        -10.4070  -12.7370   74.4200 O.2   345  ILE345     -0.2867
    115  CB        -9.8970  -16.0020   74.8920 C.3   345  ILE345      0.0252
    116  CG1       -9.5080  -17.3110   74.2140 C.3   345  ILE345      0.0019
    117  CG2      -11.4120  -15.8200   74.8540 C.3   345  ILE345      0.0019
    118  CD1      -10.0090  -18.5310   74.9510 C.3   345  ILE345      0.0001
    119  N         -8.7580  -10.4550   72.7230 N.3   348  ALA348     -0.1231
    120  CA        -9.7820  -10.3550   71.6880 C.3   348  ALA348      0.1694
    121  C        -11.0560   -9.7200   72.2330 C.2   348  ALA348      0.2591
    122  O        -11.5430   -8.7080   71.7080 O.2   348  ALA348     -0.2718
    123  CB       -10.0790  -11.7420   71.1160 C.3   348  ALA348      0.0304
    124  N        -11.5930  -10.2920   73.3150 N.am  349  MET349     -0.1979
    125  CA       -12.8840   -9.8420   73.8240 C.3   349  MET349      0.1605
    126  C        -12.7980   -8.4680   74.4740 C.2   349  MET349      0.2287
    127  O        -13.7520   -7.6860   74.3900 O.2   349  MET349     -0.2864
    128  CB       -13.4400  -10.8700   74.8090 C.3   349  MET349      0.0413
    129  CG       -13.8890  -12.1640   74.1540 C.3   349  MET349      0.0598
    130  SD       -15.0170  -11.8480   72.7810 S.3   349  MET349     -0.1393
    131  CE       -13.9340  -12.1120   71.3750 C.3   349  MET349      0.0692
    132  N         -2.3290  -15.8600   70.5040 N.3   399  ALA399     -0.1245
    133  CA        -2.7410  -17.0880   69.8310 C.3   399  ALA399      0.1562
    134  C         -1.5510  -17.7380   69.1310 C.2   399  ALA399      0.2260
    135  O         -1.3780  -18.9650   69.1740 O.2   399  ALA399     -0.2867
    136  CB        -3.8620  -16.7940   68.8360 C.3   399  ALA399      0.0290
    137  N          0.2910  -21.3560   69.7960 N.3   403  MET403     -0.1245
    138  CA         0.5340  -22.3660   68.7700 C.3   403  MET403      0.1570
    139  C          1.9900  -22.8160   68.7670 C.2   403  MET403      0.2261
    140  O          2.2750  -24.0150   68.6800 O.2   403  MET403     -0.2867
    141  CB         0.1280  -21.8430   67.3940 C.3   403  MET403      0.0387
    142  CG        -1.3740  -21.7900   67.1830 C.3   403  MET403      0.0595
    143  SD        -2.1430  -23.3780   67.4910 S.3   403  MET403     -0.1393
    144  CE        -1.4820  -24.3560   66.1490 C.3   403  MET403      0.0692
    145  N        -11.3470  -29.6720   67.3810 N.3   416  LEU416     -0.1231
    146  CA       -11.6230  -28.4700   66.5990 C.3   416  LEU416      0.1693
    147  C        -10.3330  -27.8450   66.0820 C.2   416  LEU416      0.2591
    148  O        -10.2110  -27.5280   64.8890 O.2   416  LEU416     -0.2718
    149  CB       -12.4020  -27.4650   67.4480 C.3   416  LEU416      0.0284
    150  CG       -13.7730  -27.8930   67.9730 C.3   416  LEU416      0.0019
    151  CD1      -14.2880  -26.9220   69.0330 C.3   416  LEU416      0.0001
    152  CD2      -14.7580  -28.0080   66.8320 C.3   416  LEU416      0.0001
    153  N         -9.3520  -27.6700   66.9730 N.am  417  LEU417     -0.1980
    154  CA        -8.0810  -27.0750   66.5770 C.3   417  LEU417      0.1596
    155  C         -7.3880  -27.9140   65.5120 C.2   417  LEU417      0.2287
    156  O         -6.8630  -27.3770   64.5250 O.2   417  LEU417     -0.2864
    157  CB        -7.1840  -26.9060   67.8030 C.3   417  LEU417      0.0297
    158  CG        -5.8180  -26.2720   67.5450 C.3   417  LEU417      0.0022
    159  CD1       -5.9670  -24.9660   66.7740 C.3   417  LEU417      0.0001
    160  CD2       -5.0950  -26.0370   68.8550 C.3   417  LEU417      0.0001
    161  N         -9.1980  -27.3930   62.0980 N.3   420  VAL420     -0.1245
    162  CA        -8.8020  -26.0970   61.5450 C.3   420  VAL420      0.1561
    163  C         -7.4180  -26.1950   60.9150 C.2   420  VAL420      0.2260
    164  O         -7.2260  -25.8890   59.7280 O.2   420  VAL420     -0.2867
    165  CB        -8.8530  -25.0080   62.6320 C.3   420  VAL420      0.0252
    166  CG1       -8.1560  -23.7490   62.1570 C.3   420  VAL420      0.0019
    167  CG2      -10.2950  -24.7050   63.0070 C.3   420  VAL420      0.0019
    168  N         -7.5510   -9.2920   59.7100 N.3   538  VAL538     -0.1245
    169  CA        -7.8370  -10.6640   60.1160 C.3   538  VAL538      0.1561
    170  C         -7.0470  -11.6470   59.2650 C.2   538  VAL538      0.2260
    171  O         -6.5330  -12.6500   59.7700 O.2   538  VAL538     -0.2867
    172  CB        -9.3500  -10.9450   60.0410 C.3   538  VAL538      0.0252
    173  CG1       -9.6350  -12.3950   60.4040 C.3   538  VAL538      0.0019
    174  CG2      -10.1100  -10.0090   60.9590 C.3   538  VAL538      0.0019
    175  N         -4.6360  -14.0990   61.3160 N.3   542  LEU542     -0.1245
    176  CA        -5.0530  -15.4970   61.2980 C.3   542  LEU542      0.1561
    177  C         -4.0790  -16.3510   60.4980 C.2   542  LEU542      0.2260
    178  O         -3.7370  -17.4690   60.9080 O.2   542  LEU542     -0.2867
    179  CB        -6.4660  -15.6130   60.7250 C.3   542  LEU542      0.0270
    180  CG        -7.1000  -17.0050   60.6720 C.3   542  LEU542      0.0019
    181  CD1       -7.3220  -17.5560   62.0720 C.3   542  LEU542      0.0001
    182  CD2       -8.4040  -16.9570   59.9000 C.3   542  LEU542      0.0001
    183  N         -1.2350  -17.0850   62.6970 N.3   545  VAL545     -0.1231
    184  CA        -1.4690  -18.1250   63.6920 C.3   545  VAL545      0.1692
    185  C         -1.4370  -19.5080   63.0480 C.2   545  VAL545      0.2591
    186  O         -0.7000  -20.3930   63.4940 O.2   545  VAL545     -0.2718
    187  CB        -2.7930  -17.8720   64.4290 C.3   545  VAL545      0.0266
    188  CG1       -3.1940  -19.1070   65.2350 C.3   545  VAL545      0.0020
    189  CG2       -2.6580  -16.6570   65.3240 C.3   545  VAL545      0.0020
    190  N         -2.2180  -19.7090   61.9760 N.am  546  LEU546     -0.1980
    191  CA        -2.4430  -21.0610   61.4610 C.3   546  LEU546      0.1596
    192  C         -1.1940  -21.6690   60.8300 C.2   546  LEU546      0.2287
    193  O         -1.0610  -22.9000   60.8000 O.2   546  LEU546     -0.2864
    194  CB        -3.5880  -21.0620   60.4460 C.3   546  LEU546      0.0297
    195  CG        -4.9440  -20.5650   60.9520 C.3   546  LEU546      0.0022
    196  CD1       -6.0380  -20.8500   59.9410 C.3   546  LEU546      0.0001
    197  CD2       -5.2860  -21.1730   62.2990 C.3   546  LEU546      0.0001
@<TRIPOS>BOND
     1   170   171    2
     2   170   169    1
     3   168   169    1
     4   164   163    2
     5   182   180    1
     6   196   195    1
     7   172   169    1
     8   172   173    1
     9   172   174    1
    10   194   195    1
    11   194   191    1
    12   177   178    2
    13   177   176    1
    14   180   179    1
    15   180   181    1
    16   179   176    1
    17   193   192    2
    18   192   191    1
    19   163   162    1
    20   195   197    1
    21   176   175    1
    22   191   190    1
    23   162   161    1
    24   162   165    1
    25   190   185   am
    26   166   165    1
    27   165   167    1
    28   183   184    1
    29   185   186    2
    30   185   184    1
    31   184   187    1
    32   187   188    1
    33   187   189    1
    34   156   155    2
    35   148   147    2
    36   155   154    1
    37   147   146    1
    38   147   153   am
    39   144   143    1
    40   154   153    1
    41   154   157    1
    42   146   145    1
    43   146   149    1
    44   159   158    1
    45   152   150    1
    46   142   141    1
    47   142   143    1
    48   141   138    1
    49   149   150    1
    50   158   157    1
    51   158   160    1
    52   150   151    1
    53   140   139    2
    54   139   138    1
    55   138   137    1
    56   136   133    1
    57   134   135    2
    58   134   133    1
    59   133   132    1
    60   123   120    1
    61   104   103    2
    62   131   130    1
    63   103   102    1
    64   120   121    1
    65   120   119    1
    66   122   121    2
    67   121   124   am
    68   102   105    1
    69   102   101    1
    70   130   129    1
    71   105   106    1
    72   124   125    1
    73   108   106   ar
    74   108   110   ar
    75   106   107   ar
    76   125   126    1
    77   125   128    1
    78   129   128    1
    79   111   112    1
    80   112   115    1
    81   112   113    1
    82   116   115    1
    83   116   118    1
    84   127   126    2
    85   114   113    2
    86   110   109   ar
    87    96    95    2
    88   117   115    1
    89   107   109   ar
    90    99    98    1
    91    95    94    1
    92    94    97    1
    93    94    93    1
    94    88    87    2
    95    98    97    1
    96    98   100    1
    97    87    93   am
    98    87    86    1
    99    91    89    1
   100    86    89    1
   101    86    85    1
   102    89    90    1
   103    80    79    2
   104    90    92    1
   105    83    81    1
   106    79    78    1
   107    64    63    1
   108    32    30    1
   109    76    75    1
   110    78    81    1
   111    78    77    1
   112    81    82    1
   113    63    62    1
   114    43    41   ar
   115    43    42   ar
   116    31    30    1
   117    82    84    1
   118    30    29    1
   119    75    73   ar
   120    75    74   ar
   121     7     6    1
   122    73    71   ar
   123    41    39   ar
   124     8     6    1
   125    42    40   ar
   126    62    61    1
   127    16    14    1
   128    29    26    1
   129    74    72   ar
   130     6     5    1
   131    23    22    1
   132    71    70   ar
   133    39    38   ar
   134    40    38   ar
   135    56    53    1
   136    15    14    1
   137    61    58    1
   138    14    13    1
   139    24    22    1
   140    38    37    1
   141     5     2    1
   142    72    70   ar
   143    26    27    1
   144    26    25    1
   145    70    69    1
   146    28    27    2
   147    22    21    1
   148    27    33   am
   149    53    54    1
   150    53    52    1
   151    55    54    2
   152    33    34    1
   153    60    59    2
   154    21    18    1
   155    13    10    1
   156     2     1    1
   157     2     3    1
   158    58    59    1
   159    58    57    1
   160    34    37    1
   161    34    35    1
   162    52    46   am
   163    59    65   am
   164    50    48    1
   165    69    66    1
   166    10     9    1
   167    10    11    1
   168     4     3    2
   169    65    66    1
   170    66    67    1
   171    48    45    1
   172    48    49    1
   173    46    47    2
   174    46    45    1
   175    51    49    1
   176    18    19    1
   177    18    17    1
   178    35    36    2
   179    12    11    2
   180    45    44    1
   181    20    19    2
   182    67    68    2
