@<TRIPOS>MOLECULE
tmp/5l8rE03.pdb
 192 187 0 0 0
SMALL
GASTEIGER

@<TRIPOS>ATOM
      1  N         -7.5710   12.9000   90.0150 N.3    82  TYR82      -0.1241
      2  CA        -8.4110   13.5560   91.0120 C.3    82  TYR82       0.1605
      3  C         -7.6570   14.6750   91.7200 C.2    82  TYR82       0.2264
      4  O         -8.2290   15.7380   91.9940 O.2    82  TYR82      -0.2867
      5  CB        -8.9370   12.5350   92.0210 C.3    82  TYR82       0.0534
      6  CG       -10.0670   11.6740   91.4960 C.ar   82  TYR82      -0.0201
      7  CD1      -11.3940   12.0420   91.6870 C.ar   82  TYR82      -0.0009
      8  CD2       -9.8070   10.4940   90.8100 C.ar   82  TYR82      -0.0009
      9  CE1      -12.4300   11.2580   91.2130 C.ar   82  TYR82       0.0417
     10  CE2      -10.8360    9.7070   90.3300 C.ar   82  TYR82       0.0417
     11  CZ       -12.1450   10.0950   90.5330 C.ar   82  TYR82       0.1957
     12  OH       -13.1750    9.3170   90.0600 O.3    82  TYR82      -0.2866
     13  N        -17.2690   13.5040   87.3000 N.3   138  TRP138     -0.1241
     14  CA       -17.3780   14.0450   88.6530 C.3   138  TRP138      0.1605
     15  C        -18.7290   14.7120   88.8790 C.2   138  TRP138      0.2264
     16  O        -19.3190   14.5820   89.9580 O.2   138  TRP138     -0.2867
     17  CB       -16.2330   15.0260   88.9090 C.3   138  TRP138      0.0550
     18  CG       -14.8860   14.3800   88.7950 C.ar  138  TRP138      0.0003
     19  CD1      -14.6160   13.0440   88.8730 C.ar  138  TRP138      0.0946
     20  CD2      -13.6280   15.0300   88.5610 C.ar  138  TRP138      0.0152
     21  NE1      -13.2720   12.8220   88.7100 N.ar  138  TRP138     -0.2442
     22  CE2      -12.6410   14.0240   88.5200 C.ar  138  TRP138      0.0810
     23  CE3      -13.2400   16.3610   88.3850 C.ar  138  TRP138      0.0012
     24  CZ2      -11.2900   14.3070   88.3130 C.ar  138  TRP138      0.0191
     25  CZ3      -11.8980   16.6410   88.1790 C.ar  138  TRP138      0.0001
     26  CH2      -10.9410   15.6190   88.1450 C.ar  138  TRP138      0.0015
     27  N        -21.2670   12.0890   89.3090 N.3   141  SER141     -0.1202
     28  CA       -21.1080   11.4270   90.5960 C.3   141  SER141      0.2020
     29  C        -21.5370   12.3040   91.7670 C.2   141  SER141      0.2619
     30  O        -21.3680   11.9020   92.9230 O.2   141  SER141     -0.2717
     31  CB       -19.6550   10.9870   90.7880 C.3   141  SER141      0.2103
     32  OG       -19.2620   10.0600   89.7910 O.3   141  SER141     -0.2182
     33  N        -22.0820   13.4890   91.4990 N.am  142  GLY142     -0.1942
     34  CA       -22.4850   14.3950   92.5510 C.3   142  GLY142      0.2014
     35  C        -21.3620   15.1730   93.1980 C.2   142  GLY142      0.2638
     36  O        -21.6290   15.9590   94.1190 O.2   142  GLY142     -0.2714
     37  N        -20.1190   14.9910   92.7480 N.am  143  ILE143     -0.1977
     38  CA       -18.9880   15.6860   93.3520 C.3   143  ILE143      0.1596
     39  C        -19.0960   17.1780   93.0750 C.2   143  ILE143      0.2287
     40  O        -19.3030   17.6020   91.9300 O.2   143  ILE143     -0.2864
     41  CB       -17.6610   15.1160   92.8360 C.3   143  ILE143      0.0276
     42  CG1      -17.4680   13.6840   93.3410 C.3   143  ILE143      0.0022
     43  CG2      -16.4940   16.0070   93.2580 C.3   143  ILE143      0.0022
     44  CD1      -16.1720   13.0540   92.8900 C.3   143  ILE143      0.0001
     45  N        -13.7230   17.0700   97.9650 N.3   148  GLN148     -0.1245
     46  CA       -14.1120   15.7010   97.6470 C.3   148  GLN148      0.1566
     47  C        -13.1250   15.0630   96.6780 C.2   148  GLN148      0.2260
     48  O        -12.7700   13.8830   96.8210 O.2   148  GLN148     -0.2867
     49  CB       -15.5330   15.6930   97.0850 C.3   148  GLN148      0.0367
     50  CG       -16.5510   16.2180   98.0840 C.3   148  GLN148      0.0905
     51  CD       -17.8800   16.5750   97.4540 C.2   148  GLN148      0.2608
     52  OE1      -17.9780   16.7510   96.2400 O.2   148  GLN148     -0.2717
     53  NE2      -18.9160   16.6850   98.2820 N.am  148  GLN148     -0.0878
     54  N        -10.1160   14.0160   98.6840 N.3   151  CYS151     -0.1221
     55  CA       -10.3470   12.7680   99.4020 C.3   151  CYS151      0.1808
     56  C        -10.2830   11.5700   98.4630 C.2   151  CYS151      0.2601
     57  O         -9.7500   10.5130   98.8270 O.2   151  CYS151     -0.2717
     58  CB       -11.6940   12.8250  100.1210 C.3   151  CYS151      0.0970
     59  SG       -11.8620   14.2330  101.2420 S.3   151  CYS151     -0.0800
     60  N        -10.8100   11.7180   97.2440 N.am  152  THR152     -0.1953
     61  CA       -10.7280   10.6180   96.2890 C.3   152  THR152      0.1897
     62  C         -9.2880   10.3660   95.8610 C.2   152  THR152      0.2313
     63  O         -8.8830    9.2120   95.6850 O.2   152  THR152     -0.2863
     64  CB       -11.6030   10.8960   95.0710 C.3   152  THR152      0.1794
     65  OG1      -12.9140   11.2760   95.5030 O.3   152  THR152     -0.2208
     66  CG2      -11.7080    9.6440   94.2130 C.3   152  THR152      0.0378
     67  N         -6.6520   10.8690   97.7000 N.3   154  ILE154     -0.1231
     68  CA        -5.9810   10.2240   98.8230 C.3   154  ILE154      0.1692
     69  C         -6.3730    8.7550   98.9030 C.2   154  ILE154      0.2592
     70  O         -5.5180    7.8800   99.0900 O.2   154  ILE154     -0.2718
     71  CB        -6.2910   10.9680  100.1350 C.3   154  ILE154      0.0266
     72  CG1       -5.7960   12.4150  100.0590 C.3   154  ILE154      0.0019
     73  CG2       -5.6560   10.2500  101.3140 C.3   154  ILE154      0.0020
     74  CD1       -4.3070   12.5460   99.7940 C.3   154  ILE154      0.0001
     75  N         -7.6660    8.4580   98.7580 N.am  155  GLY155     -0.1957
     76  CA        -8.0880    7.0670   98.7370 C.3   155  GLY155      0.1869
     77  C         -7.4450    6.2860   97.6080 C.2   155  GLY155      0.2309
     78  O         -7.0060    5.1490   97.7950 O.2   155  GLY155     -0.2863
     79  N         -3.9150    5.5230   98.5630 N.3   158  VAL158     -0.1231
     80  CA        -3.9040    4.4310   99.5310 C.3   158  VAL158      0.1692
     81  C         -4.0880    3.0920   98.8310 C.2   158  VAL158      0.2592
     82  O         -3.3960    2.1150   99.1400 O.2   158  VAL158     -0.2718
     83  CB        -4.9840    4.6590  100.6050 C.3   158  VAL158      0.0266
     84  CG1       -5.1080    3.4420  101.5070 C.3   158  VAL158      0.0020
     85  CG2       -4.6570    5.8940  101.4220 C.3   158  VAL158      0.0020
     86  N         -5.0180    3.0210   97.8750 N.am  159  PHE159     -0.1976
     87  CA        -5.2430    1.7570   97.1810 C.3   159  PHE159      0.1639
     88  C         -4.0730    1.3920   96.2830 C.2   159  PHE159      0.2290
     89  O         -3.7860    0.2050   96.1040 O.2   159  PHE159     -0.2864
     90  CB        -6.5400    1.8090   96.3770 C.3   159  PHE159      0.0560
     91  CG        -7.7600    1.5240   97.1940 C.ar  159  PHE159     -0.0200
     92  CD1       -7.7160    1.6080   98.5750 C.ar  159  PHE159     -0.0042
     93  CD2       -8.9430    1.1500   96.5900 C.ar  159  PHE159     -0.0042
     94  CE1       -8.8350    1.3410   99.3340 C.ar  159  PHE159     -0.0003
     95  CE2      -10.0620    0.8830   97.3470 C.ar  159  PHE159     -0.0003
     96  CZ       -10.0090    0.9760   98.7180 C.ar  159  PHE159     -0.0000
     97  N         -1.9110   -0.2960   98.6800 N.3   162  LEU162     -0.1245
     98  CA        -2.4130   -1.6200   99.0420 C.3   162  LEU162      0.1561
     99  C         -2.1670   -2.6330   97.9310 C.2   162  LEU162      0.2260
    100  O         -1.7560   -3.7670   98.2000 O.2   162  LEU162     -0.2867
    101  CB        -3.9040   -1.5500   99.3680 C.3   162  LEU162      0.0270
    102  CG        -4.3470   -0.7900  100.6190 C.3   162  LEU162      0.0019
    103  CD1       -5.8640   -0.7900  100.7220 C.3   162  LEU162      0.0001
    104  CD2       -3.7240   -1.3940  101.8660 C.3   162  LEU162      0.0001
    105  N        -20.1520   -4.7970   92.3600 N.3   199  GLY199     -0.1225
    106  CA       -19.7120   -3.4940   91.8880 C.3   199  GLY199      0.1811
    107  C        -20.8530   -2.6850   91.3010 C.2   199  GLY199      0.2280
    108  O        -21.0760   -1.5310   91.6830 O.2   199  GLY199     -0.2866
    109  N        -23.2300   -1.6940   94.1140 N.3   202  SER202     -0.1202
    110  CA       -22.6700   -0.5980   94.9000 C.3   202  SER202      0.2020
    111  C        -22.8030    0.7280   94.1650 C.2   202  SER202      0.2618
    112  O        -23.1910    1.7490   94.7560 O.2   202  SER202     -0.2717
    113  CB       -21.2030   -0.8810   95.2150 C.3   202  SER202      0.2103
    114  OG       -21.0320   -2.1990   95.7010 O.3   202  SER202     -0.2182
    115  N        -22.4970    0.7300   92.8660 N.am  203  TRP203     -0.1975
    116  CA       -22.5980    1.9660   92.1040 C.3   203  TRP203      0.1640
    117  C        -24.0420    2.4400   92.0030 C.2   203  TRP203      0.2290
    118  O        -24.3110    3.6460   92.1020 O.2   203  TRP203     -0.2864
    119  CB       -21.9920    1.7930   90.7140 C.3   203  TRP203      0.0576
    120  CG       -21.9650    3.0850   89.9990 C.ar  203  TRP203      0.0006
    121  CD1      -22.5700    3.3850   88.8160 C.ar  203  TRP203      0.0946
    122  CD2      -21.3390    4.2930   90.4510 C.ar  203  TRP203      0.0152
    123  NE1      -22.3370    4.6990   88.4880 N.ar  203  TRP203     -0.2442
    124  CE2      -21.5860    5.2790   89.4770 C.ar  203  TRP203      0.0810
    125  CE3      -20.5790    4.6310   91.5770 C.ar  203  TRP203      0.0012
    126  CZ2      -21.1040    6.5810   89.5960 C.ar  203  TRP203      0.0191
    127  CZ3      -20.1040    5.9200   91.6950 C.ar  203  TRP203      0.0001
    128  CH2      -20.3670    6.8820   90.7100 C.ar  203  TRP203      0.0015
    129  N        -26.1600    2.0340   94.2640 N.3   205  GLY205     -0.1210
    130  CA       -26.3520    2.6350   95.5700 C.3   205  GLY205      0.1956
    131  C        -25.8920    4.0770   95.6310 C.2   205  GLY205      0.2611
    132  O        -26.6690    4.9720   95.9980 O.2   205  GLY205     -0.2717
    133  N        -24.6280    4.3170   95.2630 N.am  206  HIS206     -0.1975
    134  CA       -24.1310    5.6910   95.2480 C.3   206  HIS206      0.1656
    135  C        -25.0050    6.5860   94.3800 C.2   206  HIS206      0.2291
    136  O        -25.2770    7.7360   94.7400 O.2   206  HIS206     -0.2864
    137  CB       -22.6850    5.7470   94.7560 C.3   206  HIS206      0.0771
    138  CG       -22.2150    7.1360   94.4460 C.ar  206  HIS206      0.0820
    139  ND1      -22.3010    7.6870   93.1860 N.ar  206  HIS206     -0.2267
    140  CD2      -21.6820    8.0950   95.2380 C.ar  206  HIS206      0.1154
    141  CE1      -21.8240    8.9190   93.2120 C.ar  206  HIS206      0.1986
    142  NE2      -21.4390    9.1900   94.4450 N.ar  206  HIS206     -0.2212
    143  N        -28.3880    7.4160   95.9780 N.3   209  HIS209     -0.1226
    144  CA       -28.2600    8.2100   97.1930 C.3   209  HIS209      0.1752
    145  C        -27.4700    9.5000   97.0140 C.2   209  HIS209      0.2595
    146  O        -27.6280   10.4180   97.8270 O.2   209  HIS209     -0.2718
    147  CB       -27.6220    7.3730   98.3030 C.3   209  HIS209      0.0759
    148  CG       -28.5380    6.3300   98.8540 C.ar  209  HIS209      0.0818
    149  ND1      -29.5090    6.6140   99.7900 N.ar  209  HIS209     -0.2268
    150  CD2      -28.6490    5.0080   98.5860 C.ar  209  HIS209      0.1154
    151  CE1      -30.1700    5.5100  100.0840 C.ar  209  HIS209      0.1986
    152  NE2      -29.6670    4.5210   99.3660 N.ar  209  HIS209     -0.2212
    153  N        -26.6410    9.6050   95.9790 N.am  210  VAL210     -0.1980
    154  CA       -25.8000   10.7860   95.8100 C.3   210  VAL210      0.1595
    155  C        -26.0110   11.4090   94.4370 C.2   210  VAL210      0.2287
    156  O        -26.3640   12.5890   94.3290 O.2   210  VAL210     -0.2864
    157  CB       -24.3150   10.4430   96.0240 C.3   210  VAL210      0.0276
    158  CG1      -23.4520   11.6470   95.7150 C.3   210  VAL210      0.0022
    159  CG2      -24.0830    9.9520   97.4460 C.3   210  VAL210      0.0022
    160  N        -28.1410   15.1190   94.0030 N.3   214  ILE214     -0.1245
    161  CA       -27.2430   16.2420   93.7450 C.3   214  ILE214      0.1561
    162  C        -27.4040   16.7340   92.3120 C.2   214  ILE214      0.2260
    163  O        -27.3600   17.9420   92.0440 O.2   214  ILE214     -0.2867
    164  CB       -25.7860   15.8500   94.0570 C.3   214  ILE214      0.0252
    165  CG1      -25.6270   15.5570   95.5490 C.3   214  ILE214      0.0019
    166  CG2      -24.8260   16.9540   93.6310 C.3   214  ILE214      0.0019
    167  CD1      -24.1960   15.3110   95.9750 C.3   214  ILE214      0.0001
    168  N        -23.8730   15.0980  100.1790 N.3   230  PRO230     -0.2102
    169  CA       -24.4690   13.8130   99.7730 C.3   230  PRO230      0.1504
    170  C        -24.9710   12.9670  100.9300 C.2   230  PRO230      0.2575
    171  O        -25.9500   12.2300  100.7600 O.2   230  PRO230     -0.2718
    172  CB       -23.3230   13.1190   99.0220 C.3   230  PRO230      0.0282
    173  CG       -22.0840   13.8280   99.4560 C.3   230  PRO230      0.0208
    174  CD       -22.4920   15.2400   99.6910 C.3   230  PRO230      0.0893
    175  N        -24.3400   13.0460  102.1030 N.am  231  HIS231     -0.1976
    176  CA       -24.7910   12.2480  103.2360 C.3   231  HIS231      0.1656
    177  C        -26.0120   12.8410  103.9220 C.2   231  HIS231      0.2291
    178  O        -26.7230   12.1140  104.6230 O.2   231  HIS231     -0.2864
    179  CB       -23.6600   12.0720  104.2520 C.3   231  HIS231      0.0771
    180  CG       -23.1050   13.3610  104.7720 C.ar  231  HIS231      0.0820
    181  ND1      -22.1520   14.0880  104.0930 N.ar  231  HIS231     -0.2267
    182  CD2      -23.3600   14.0460  105.9120 C.ar  231  HIS231      0.1154
    183  CE1      -21.8470   15.1680  104.7890 C.ar  231  HIS231      0.1986
    184  NE2      -22.5660   15.1670  105.8970 N.ar  231  HIS231     -0.2212
    185  N        -28.7340   10.9130  102.9180 N.3   234  ILE234     -0.1245
    186  CA       -28.8250    9.6190  103.5850 C.3   234  ILE234      0.1561
    187  C        -29.4430    9.7670  104.9690 C.2   234  ILE234      0.2260
    188  O        -30.2320    8.9200  105.4020 O.2   234  ILE234     -0.2867
    189  CB       -27.4340    8.9650  103.6560 C.3   234  ILE234      0.0252
    190  CG1      -26.8710    8.7540  102.2480 C.3   234  ILE234      0.0019
    191  CG2      -27.4990    7.6480  104.4160 C.3   234  ILE234      0.0019
    192  CD1      -25.5000    8.1090  102.2290 C.3   234  ILE234      0.0001
@<TRIPOS>BOND
     1    13    14    1
     2    26    25   ar
     3    26    24   ar
     4    25    23   ar
     5    24    22   ar
     6    23    20   ar
     7   123   121   ar
     8   123   124   ar
     9    22    20   ar
    10    22    21   ar
    11    20    18   ar
    12    14    15    1
    13    14    17    1
    14    21    19   ar
    15    18    19   ar
    16    18    17    1
    17   121   120   ar
    18    15    16    2
    19    27    28    1
    20   124   126   ar
    21   124   122   ar
    22   126   128   ar
    23    32    31    1
    24   120   122   ar
    25   120   119    1
    26     1     2    1
    27    12    11    1
    28    10    11   ar
    29    10     8   ar
    30   122   125   ar
    31    11     9   ar
    32    28    31    1
    33    28    29    1
    34   128   127   ar
    35   119   116    1
    36     8     6   ar
    37     2     3    1
    38     2     5    1
    39     9     7   ar
    40   107   108    2
    41   107   106    1
    42     6     7   ar
    43     6     5    1
    44    33    29   am
    45    33    34    1
    46   125   127   ar
    47     3     4    2
    48    29    30    2
    49   106   105    1
    50    40    39    2
    51   117   118    2
    52   117   116    1
    53   163   162    2
    54   116   115    1
    55   162   161    1
    56    34    35    1
    57    37    35   am
    58    37    38    1
    59    41    43    1
    60    41    42    1
    61    41    38    1
    62   115   111   am
    63    44    42    1
    64    39    38    1
    65   139   141   ar
    66   139   138   ar
    67    35    36    2
    68   141   142   ar
    69   166   164    1
    70   161   160    1
    71   161   164    1
    72   164   165    1
    73   109   110    1
    74   111   112    2
    75   111   110    1
    76    66    64    1
    77   129   130    1
    78   156   155    2
    79   135   136    2
    80   135   134    1
    81   155   154    1
    82   142   140   ar
    83   138   137    1
    84   138   140   ar
    85   137   134    1
    86   110   113    1
    87    64    65    1
    88    64    61    1
    89   113   114    1
    90   134   133    1
    91   133   131   am
    92   165   167    1
    93   130   131    1
    94   131   132    2
    95    63    62    2
    96   158   157    1
    97   154   153    1
    98   154   157    1
    99    62    61    1
   100   143   144    1
   101   153   145   am
   102   157   159    1
   103    89    88    2
   104    52    51    2
   105    88    87    1
   106    61    60    1
   107    90    87    1
   108    90    91    1
   109    93    91   ar
   110    93    95   ar
   111    47    48    2
   112    47    46    1
   113   145   144    1
   114   145   146    2
   115    49    46    1
   116    49    50    1
   117    87    86    1
   118   144   147    1
   119    91    92   ar
   120    60    56   am
   121    95    96   ar
   122    51    50    1
   123    51    53   am
   124    77    78    2
   125    77    76    1
   126    46    45    1
   127    67    68    1
   128    86    81   am
   129    99   100    2
   130    99    98    1
   131   147   148    1
   132    56    57    2
   133    56    55    1
   134    79    80    1
   135    92    94   ar
   136   150   148   ar
   137   150   152   ar
   138    97    98    1
   139    54    55    1
   140    96    94   ar
   141    76    75    1
   142    75    69   am
   143    68    69    1
   144    68    71    1
   145    81    82    2
   146    81    80    1
   147   148   149   ar
   148    69    70    2
   149   172   173    1
   150   172   169    1
   151    98   101    1
   152   152   151   ar
   153   101   102    1
   154    55    58    1
   155   173   174    1
   156    80    83    1
   157   174   168    1
   158   169   168    1
   159   169   170    1
   160   149   151   ar
   161    74    72    1
   162    72    71    1
   163    58    59    1
   164    71    73    1
   165    83    85    1
   166    83    84    1
   167   102   103    1
   168   102   104    1
   169   171   170    2
   170   170   175   am
   171   175   176    1
   172   192   190    1
   173   190   189    1
   174   185   186    1
   175   176   177    1
   176   176   179    1
   177   186   189    1
   178   186   187    1
   179   189   191    1
   180   177   178    2
   181   181   180   ar
   182   181   183   ar
   183   179   180    1
   184   180   182   ar
   185   183   184   ar
   186   187   188    2
   187   184   182   ar
