@<TRIPOS>MOLECULE
tmp/5l8rB15.pdb
 145 142 0 0 0
SMALL
GASTEIGER

@<TRIPOS>ATOM
      1  N         18.4760   -1.3580  116.4570 N.3    30  PHE30      -0.1227
      2  CA        17.5230   -0.6960  115.5720 C.3    30  PHE30       0.1736
      3  C         18.2080   -0.3060  114.2650 C.2    30  PHE30       0.2595
      4  O         18.9930    0.6460  114.2250 O.2    30  PHE30      -0.2718
      5  CB        16.9140    0.5270  116.2550 C.3    30  PHE30       0.0547
      6  CG        15.8970    1.2420  115.4160 C.ar   30  PHE30      -0.0202
      7  CD1       14.6280    0.7150  115.2460 C.ar   30  PHE30      -0.0042
      8  CD2       16.2080    2.4410  114.7950 C.ar   30  PHE30      -0.0042
      9  CE1       13.6870    1.3680  114.4730 C.ar   30  PHE30      -0.0003
     10  CE2       15.2720    3.0990  114.0180 C.ar   30  PHE30      -0.0003
     11  CZ        14.0100    2.5630  113.8590 C.ar   30  PHE30      -0.0000
     12  N         17.9040   -1.0450  113.2020 N.am   31  ASP31      -0.1960
     13  CA        18.2850   -0.7150  111.8350 C.3    31  ASP31       0.1825
     14  C         17.4100   -1.5340  110.8930 C.2    31  ASP31       0.2464
     15  O         17.9240   -2.3550  110.1230 O.2    31  ASP31      -0.2730
     16  CB        19.7720   -0.9880  111.5890 C.3    31  ASP31       0.1450
     17  CG        20.2330   -0.5470  110.2040 C.2    31  ASP31       0.3671
     18  OD1       19.4790    0.1760  109.5180 O.co2  31  ASP31      -0.2456
     19  OD2       21.3580   -0.9210  109.8050 O.co2  31  ASP31      -0.2456
     20  N         16.0880   -1.3410  110.9230 N.am   32  PRO32      -0.2715
     21  CA        15.2030   -2.2420  110.1660 C.3    32  PRO32       0.1536
     22  C         15.4180   -2.1950  108.6660 C.2    32  PRO32       0.2598
     23  O         15.1290   -3.1840  107.9820 O.2    32  PRO32      -0.2715
     24  CB        13.7970   -1.7520  110.5450 C.3    32  PRO32       0.0310
     25  CG        13.9840   -0.9310  111.7800 C.3    32  PRO32       0.0237
     26  CD        15.3280   -0.3020  111.6340 C.3    32  PRO32       0.0939
     27  N         15.9080   -1.0800  108.1290 N.am   33  LEU33      -0.1978
     28  CA        16.1650   -0.9550  106.7020 C.3    33  LEU33       0.1596
     29  C         17.5850   -1.3410  106.3200 C.2    33  LEU33       0.2287
     30  O         17.9680   -1.1580  105.1610 O.2    33  LEU33      -0.2864
     31  CB        15.8830    0.4740  106.2320 C.3    33  LEU33       0.0297
     32  CG        14.4360    0.9510  106.3460 C.3    33  LEU33       0.0022
     33  CD1       14.2920    2.3280  105.7310 C.3    33  LEU33       0.0001
     34  CD2       13.4980   -0.0360  105.6790 C.3    33  LEU33       0.0001
     35  N         20.4470    0.0830  106.9750 N.3    35  LEU35      -0.1245
     36  CA        21.2480    1.2060  106.4970 C.3    35  LEU35       0.1561
     37  C         22.6990    1.0950  106.9500 C.2    35  LEU35       0.2260
     38  O         23.5990    1.5990  106.2700 O.2    35  LEU35      -0.2867
     39  CB        20.6370    2.5260  106.9650 C.3    35  LEU35       0.0270
     40  CG        19.1890    2.7830  106.5440 C.3    35  LEU35       0.0019
     41  CD1       18.7430    4.1670  106.9810 C.3    35  LEU35       0.0001
     42  CD2       19.0210    2.6210  105.0450 C.3    35  LEU35       0.0001
     43  N         25.3710   14.8930  114.1330 N.3    52  HIS52      -0.1241
     44  CA        23.9760   15.3180  114.2340 C.3    52  HIS52       0.1621
     45  C         23.5330   15.4350  115.6840 C.2    52  HIS52       0.2264
     46  O         22.8120   16.3690  116.0510 O.2    52  HIS52      -0.2867
     47  CB        23.0610   14.3300  113.5120 C.3    52  HIS52       0.0745
     48  CG        23.2260   14.3130  112.0280 C.ar   52  HIS52       0.0817
     49  ND1       22.5180   15.1490  111.1930 N.ar   52  HIS52      -0.2268
     50  CD2       23.9970   13.5440  111.2250 C.ar   52  HIS52       0.1154
     51  CE1       22.8570   14.9030  109.9410 C.ar   52  HIS52       0.1986
     52  NE2       23.7540   13.9360  109.9320 N.ar   52  HIS52      -0.2212
     53  N         25.2870   18.6740  117.2680 N.3    55  TRP55      -0.1227
     54  CA        24.6440   19.8700  116.7290 C.3    55  TRP55       0.1737
     55  C         23.2240   20.0170  117.2510 C.2    55  TRP55       0.2595
     56  O         22.7790   21.1280  117.5550 O.2    55  TRP55      -0.2718
     57  CB        24.6240   19.8310  115.2040 C.3    55  TRP55       0.0564
     58  CG        25.9220   20.1530  114.5540 C.ar   55  TRP55       0.0003
     59  CD1       26.5850   19.3930  113.6400 C.ar   55  TRP55       0.0946
     60  CD2       26.7170   21.3280  114.7520 C.ar   55  TRP55       0.0152
     61  NE1       27.7480   20.0140  113.2570 N.ar   55  TRP55      -0.2442
     62  CE2       27.8510   21.2070  113.9240 C.ar   55  TRP55       0.0810
     63  CE3       26.5830   22.4700  115.5490 C.ar   55  TRP55       0.0012
     64  CZ2       28.8440   22.1800  113.8730 C.ar   55  TRP55       0.0191
     65  CZ3       27.5690   23.4330  115.4960 C.ar   55  TRP55       0.0001
     66  CH2       28.6850   23.2830  114.6640 C.ar   55  TRP55       0.0015
     67  N         22.4950   18.9070  117.3550 N.am   56  ALA56      -0.1980
     68  CA        21.1120   18.9770  117.8070 C.3    56  ALA56       0.1597
     69  C         21.0180   19.2740  119.2940 C.2    56  ALA56       0.2287
     70  O         20.0060   19.8160  119.7490 O.2    56  ALA56      -0.2864
     71  CB        20.3880   17.6780  117.4820 C.3    56  ALA56       0.0319
     72  N         23.3320   21.2850  120.9470 N.3    58  LEU58      -0.1231
     73  CA        23.5670   22.7260  120.9580 C.3    58  LEU58       0.1693
     74  C         22.3370   23.4860  120.4740 C.2    58  LEU58       0.2592
     75  O         21.9850   24.5370  121.0250 O.2    58  LEU58      -0.2718
     76  CB        24.7800   23.0660  120.0930 C.3    58  LEU58       0.0284
     77  CG        26.1200   22.5140  120.5730 C.3    58  LEU58       0.0019
     78  CD1       27.1930   22.7520  119.5250 C.3    58  LEU58       0.0001
     79  CD2       26.5080   23.1480  121.8960 C.3    58  LEU58       0.0001
     80  N         21.6610   22.9590  119.4530 N.am   59  GLY59      -0.1957
     81  CA        20.4670   23.6140  118.9520 C.3    59  GLY59       0.1869
     82  C         19.3120   23.5570  119.9320 C.2    59  GLY59       0.2309
     83  O         18.6010   24.5460  120.1220 O.2    59  GLY59      -0.2863
     84  N         19.9870   26.2740  122.2790 N.3    62  GLY62      -0.1210
     85  CA        19.7890   27.6070  121.7330 C.3    62  GLY62       0.1956
     86  C         18.3430   27.9710  121.4630 C.2    62  GLY62       0.2611
     87  O         17.9860   29.1530  121.4990 O.2    62  GLY62      -0.2717
     88  N         17.5010   26.9810  121.1640 N.am   63  ILE63      -0.1979
     89  CA        16.0650   27.2300  121.0700 C.3    63  ILE63       0.1595
     90  C         15.4510   27.3260  122.4560 C.2    63  ILE63       0.2287
     91  O         14.8780   28.3530  122.8350 O.2    63  ILE63      -0.2864
     92  CB        15.3650   26.1340  120.2440 C.3    63  ILE63       0.0276
     93  CG1       15.5630   26.3510  118.7560 C.3    63  ILE63       0.0022
     94  CG2       13.8720   26.1530  120.5000 C.3    63  ILE63       0.0022
     95  CD1       15.0250   25.2150  117.9080 C.3    63  ILE63       0.0001
     96  N         13.8120   32.0000  117.8350 N.3    80  TRP80      -0.1241
     97  CA        14.8400   31.2640  117.1080 C.3    80  TRP80       0.1605
     98  C         14.4880   31.1010  115.6370 C.2    80  TRP80       0.2264
     99  O         15.3860   31.0510  114.7880 O.2    80  TRP80      -0.2867
    100  CB        15.0380   29.8940  117.7490 C.3    80  TRP80       0.0550
    101  CG        13.8100   29.0400  117.6730 C.ar   80  TRP80       0.0003
    102  CD1       12.7670   29.0230  118.5530 C.ar   80  TRP80       0.0946
    103  CD2       13.4910   28.0830  116.6540 C.ar   80  TRP80       0.0152
    104  NE1       11.8210   28.1110  118.1490 N.ar   80  TRP80      -0.2442
    105  CE2       12.2430   27.5210  116.9860 C.ar   80  TRP80       0.0810
    106  CE3       14.1410   27.6460  115.4970 C.ar   80  TRP80       0.0012
    107  CZ2       11.6330   26.5470  116.2030 C.ar   80  TRP80       0.0191
    108  CZ3       13.5340   26.6780  114.7220 C.ar   80  TRP80       0.0001
    109  CH2       12.2930   26.1400  115.0770 C.ar   80  TRP80       0.0015
    110  N         15.4520   34.4430  113.8330 N.3    83  ALA83      -0.1245
    111  CA        16.7310   35.0590  114.1680 C.3    83  ALA83       0.1562
    112  C         17.6230   35.2650  112.9480 C.2    83  ALA83       0.2260
    113  O         18.5640   36.0630  113.0160 O.2    83  ALA83      -0.2867
    114  CB        17.4670   34.2180  115.2120 C.3    83  ALA83       0.0290
    115  N         17.8220   15.7680  118.7040 N.3   172  MET172     -0.1230
    116  CA        17.3790   15.8090  117.3130 C.3   172  MET172      0.1702
    117  C         15.8580   15.8720  117.2360 C.2   172  MET172      0.2592
    118  O         15.2800   16.7880  116.6190 O.2   172  MET172     -0.2718
    119  CB        17.9170   14.5890  116.5560 C.3   172  MET172      0.0401
    120  CG        19.4330   14.5870  116.3740 C.3   172  MET172      0.0596
    121  SD        20.1030   13.2810  115.3250 S.3   172  MET172     -0.1393
    122  CE        20.3280   11.9600  116.5100 C.3   172  MET172      0.0692
    123  N         15.1910   14.9190  117.8990 N.am  173  LEU173     -0.1980
    124  CA        13.7320   14.9160  117.9040 C.3   173  LEU173      0.1596
    125  C         13.1600   16.2190  118.4460 C.2   173  LEU173      0.2287
    126  O         12.1150   16.6780  117.9740 O.2   173  LEU173     -0.2864
    127  CB        13.2180   13.7330  118.7190 C.3   173  LEU173      0.0297
    128  CG        13.5750   12.3790  118.1160 C.3   173  LEU173      0.0022
    129  CD1       13.0080   11.2640  118.9650 C.3   173  LEU173      0.0001
    130  CD2       13.0550   12.2950  116.6950 C.3   173  LEU173      0.0001
    131  N         14.6270   19.3980  118.4640 N.3   175  VAL175     -0.1231
    132  CA        14.8360   20.5060  117.5370 C.3   175  VAL175      0.1692
    133  C         13.8140   20.4440  116.4100 C.2   175  VAL175      0.2591
    134  O         13.1070   21.4260  116.1310 O.2   175  VAL175     -0.2718
    135  CB        16.2800   20.4940  117.0010 C.3   175  VAL175      0.0266
    136  CG1       16.4160   21.4230  115.8020 C.3   175  VAL175      0.0020
    137  CG2       17.2520   20.9020  118.0980 C.3   175  VAL175      0.0020
    138  N         13.7000   19.2820  115.7570 N.am  176  MET176     -0.1979
    139  CA        12.6700   19.1720  114.7280 C.3   176  MET176      0.1605
    140  C         11.2810   19.3670  115.3220 C.2   176  MET176      0.2287
    141  O         10.3710   19.8540  114.6360 O.2   176  MET176     -0.2864
    142  CB        12.7730   17.8280  114.0080 C.3   176  MET176      0.0413
    143  CG        14.0860   17.6280  113.2610 C.3   176  MET176      0.0598
    144  SD        14.5170   18.9840  112.1450 S.3   176  MET176     -0.1393
    145  CE        13.1120   18.9900  111.0340 C.3   176  MET176      0.0692
@<TRIPOS>BOND
     1    42    40    1
     2    30    29    2
     3    34    32    1
     4    33    32    1
     5    31    32    1
     6    31    28    1
     7    38    37    2
     8    29    28    1
     9    36    37    1
    10    36    39    1
    11    36    35    1
    12    40    39    1
    13    40    41    1
    14    28    27    1
    15    23    22    2
    16    27    22   am
    17    22    21    1
    18    18    17   ar
    19    19    17   ar
    20    52    51   ar
    21    52    50   ar
    22    51    49   ar
    23    15    14    2
    24    21    24    1
    25    21    20    1
    26    17    16    1
    27    24    25    1
    28    14    20   am
    29    14    13    1
    30    20    26    1
    31   145   144    1
    32    49    48   ar
    33    50    48   ar
    34    16    13    1
    35    26    25    1
    36    13    12    1
    37    48    47    1
    38   144   143    1
    39   112   113    2
    40   112   111    1
    41    12     3   am
    42    61    59   ar
    43    61    62   ar
    44   143   142    1
    45    47    44    1
    46    59    58   ar
    47   110   111    1
    48    11    10   ar
    49    11     9   ar
    50    64    62   ar
    51    64    66   ar
    52    62    60   ar
    53   142   139    1
    54    10     8   ar
    55    43    44    1
    56   111   114    1
    57     4     3    2
    58    44    45    1
    59     3     2    1
    60     9     7   ar
    61    58    60   ar
    62    58    57    1
    63   141   140    2
    64    66    65   ar
    65   108   109   ar
    66   108   106   ar
    67   139   140    1
    68   139   138    1
    69    60    63   ar
    70    99    98    2
    71     8     6   ar
    72   109   107   ar
    73    57    54    1
    74     7     6   ar
    75   121   120    1
    76   121   122    1
    77     6     5    1
    78    65    63   ar
    79   106   103   ar
    80     2     5    1
    81     2     1    1
    82    98    97    1
    83    45    46    2
    84   138   133   am
    85   136   135    1
    86   134   133    2
    87   107   105   ar
    88   120   119    1
    89   133   132    1
    90   119   116    1
    91   118   117    2
    92   103   105   ar
    93   103   101   ar
    94   130   128    1
    95    54    55    1
    96    54    53    1
    97   105   104   ar
    98   135   132    1
    99   135   137    1
   100    97   100    1
   101    97    96    1
   102   117   116    1
   103   117   123   am
   104    55    67   am
   105    55    56    2
   106   116   115    1
   107    67    68    1
   108    71    68    1
   109   132   131    1
   110   101   100    1
   111   101   102   ar
   112    68    69    1
   113   123   124    1
   114   124   125    1
   115   124   127    1
   116    95    93    1
   117   126   125    2
   118   128   127    1
   119   128   129    1
   120   104   102   ar
   121    93    92    1
   122    81    80    1
   123    81    82    1
   124    69    70    2
   125    80    74   am
   126    78    77    1
   127    82    83    2
   128    76    77    1
   129    76    73    1
   130    92    94    1
   131    92    89    1
   132    74    73    1
   133    74    75    2
   134    77    79    1
   135    72    73    1
   136    89    88    1
   137    89    90    1
   138    88    86   am
   139    86    87    2
   140    86    85    1
   141    85    84    1
   142    90    91    2
