@<TRIPOS>MOLECULE
tmp/5l8rF10.pdb
 164 159 0 0 0
SMALL
GASTEIGER

@<TRIPOS>ATOM
      1  N         34.2140   21.3730   16.5880 N.3   184  VAL184     -0.1245
      2  CA        33.6440   21.6760   15.2770 C.3   184  VAL184      0.1561
      3  C         32.1300   21.8170   15.3670 C.2   184  VAL184      0.2260
      4  O         31.5300   22.6470   14.6740 O.2   184  VAL184     -0.2867
      5  CB        34.0640   20.6100   14.2490 C.3   184  VAL184      0.0252
      6  CG1       33.2140   20.7050   12.9960 C.3   184  VAL184      0.0019
      7  CG2       35.5270   20.7810   13.8910 C.3   184  VAL184      0.0019
      8  N         31.5630   25.2690   16.6770 N.3   187  LEU187     -0.1231
      9  CA        31.8640   26.2200   15.6100 C.3   187  LEU187      0.1693
     10  C         30.7130   26.3110   14.6130 C.2   187  LEU187      0.2591
     11  O         30.2670   27.4100   14.2510 O.2   187  LEU187     -0.2718
     12  CB        33.1630   25.8040   14.9160 C.3   187  LEU187      0.0284
     13  CG        33.6160   26.5140   13.6410 C.3   187  LEU187      0.0019
     14  CD1       33.7070   28.0200   13.8410 C.3   187  LEU187      0.0001
     15  CD2       34.9580   25.9550   13.1980 C.3   187  LEU187      0.0001
     16  N         30.2110   25.1570   14.1700 N.am  188  ALA188     -0.1980
     17  CA        29.0710   25.1420   13.2620 C.3   188  ALA188      0.1597
     18  C         27.8560   25.8040   13.8940 C.2   188  ALA188      0.2287
     19  O         27.1100   26.5230   13.2170 O.2   188  ALA188     -0.2864
     20  CB        28.7480   23.7060   12.8560 C.3   188  ALA188      0.0319
     21  N         27.8250   28.2450   16.1610 N.3   190  ALA190     -0.1231
     22  CA        28.0750   29.6680   15.9560 C.3   190  ALA190      0.1694
     23  C         27.7020   30.0790   14.5380 C.2   190  ALA190      0.2592
     24  O         27.1140   31.1480   14.3220 O.2   190  ALA190     -0.2718
     25  CB        29.5410   29.9930   16.2490 C.3   190  ALA190      0.0304
     26  N         28.0180   29.2260   13.5610 N.am  191  GLY191     -0.1957
     27  CA        27.5650   29.4720   12.2020 C.3   191  GLY191      0.1869
     28  C         26.0640   29.6660   12.1080 C.2   191  GLY191      0.2309
     29  O         25.5890   30.6590   11.5520 O.2   191  GLY191     -0.2863
     30  N         24.9880   33.0800   13.5640 N.3   194  VAL194     -0.1231
     31  CA        25.2650   34.3070   12.8170 C.3   194  VAL194      0.1692
     32  C         24.5470   34.3240   11.4660 C.2   194  VAL194      0.2592
     33  O         24.2200   35.4000   10.9540 O.2   194  VAL194     -0.2718
     34  CB        26.7810   34.5170   12.6500 C.3   194  VAL194      0.0266
     35  CG1       27.4830   34.4130   13.9960 C.3   194  VAL194      0.0020
     36  CG2       27.3630   33.5300   11.6610 C.3   194  VAL194      0.0020
     37  N         24.2710   33.1590   10.8770 N.am  195  HIS195     -0.1976
     38  CA        23.6320   33.1100    9.5660 C.3   195  HIS195      0.1656
     39  C         22.1130   33.0980    9.6290 C.2   195  HIS195      0.2291
     40  O         21.4620   33.5790    8.6930 O.2   195  HIS195     -0.2864
     41  CB        24.0860   31.8700    8.7940 C.3   195  HIS195      0.0771
     42  CG        25.5110   31.9220    8.3530 C.ar  195  HIS195      0.0820
     43  ND1       25.8900   32.3590    7.1020 N.ar  195  HIS195     -0.2267
     44  CD2       26.6520   31.5880    8.9970 C.ar  195  HIS195      0.1154
     45  CE1       27.2040   32.2900    6.9950 C.ar  195  HIS195      0.1986
     46  NE2       27.6890   31.8280    8.1320 N.ar  195  HIS195     -0.2212
     47  N         20.3190   31.6130    1.8230 N.3   211  PHE211     -0.1227
     48  CA        21.4160   31.8810    2.7500 C.3   211  PHE211      0.1736
     49  C         22.7560   32.0760    2.0500 C.2   211  PHE211      0.2595
     50  O         23.7220   32.4810    2.7070 O.2   211  PHE211     -0.2718
     51  CB        21.5270   30.7610    3.7870 C.3   211  PHE211      0.0547
     52  CG        22.2490   29.5390    3.3010 C.ar  211  PHE211     -0.0202
     53  CD1       23.5270   29.2470    3.7540 C.ar  211  PHE211     -0.0042
     54  CD2       21.6480   28.6730    2.4070 C.ar  211  PHE211     -0.0042
     55  CE1       24.1930   28.1200    3.3170 C.ar  211  PHE211     -0.0003
     56  CE2       22.3090   27.5440    1.9660 C.ar  211  PHE211     -0.0003
     57  CZ        23.5840   27.2680    2.4220 C.ar  211  PHE211     -0.0000
     58  N         22.8410   31.8080    0.7490 N.am  212  LEU212     -0.1980
     59  CA        24.0480   32.1030   -0.0110 C.3   212  LEU212      0.1596
     60  C         24.0490   33.5190   -0.5740 C.2   212  LEU212      0.2287
     61  O         25.1210   34.1000   -0.7830 O.2   212  LEU212     -0.2864
     62  CB        24.2090   31.0880   -1.1440 C.3   212  LEU212      0.0297
     63  CG        24.3860   29.6520   -0.6600 C.3   212  LEU212      0.0022
     64  CD1       24.3340   28.6790   -1.8210 C.3   212  LEU212      0.0001
     65  CD2       25.6990   29.5320    0.0920 C.3   212  LEU212      0.0001
     66  N         22.5260   36.1710    1.0570 N.3   214  VAL214     -0.1231
     67  CA        22.6300   37.1010    2.1730 C.3   214  VAL214      0.1692
     68  C         24.0390   37.0780    2.7490 C.2   214  VAL214      0.2592
     69  O         24.6740   36.0200    2.8570 O.2   214  VAL214     -0.2718
     70  CB        21.5830   36.7480    3.2460 C.3   214  VAL214      0.0266
     71  CG1       21.7580   37.6100    4.4940 C.3   214  VAL214      0.0020
     72  CG2       20.1790   36.8970    2.6810 C.3   214  VAL214      0.0020
     73  N         24.5550   38.2880    3.1190 N.am  215  LEU215     -0.1966
     74  CA        25.7690   38.3740    3.9200 C.3   215  LEU215      0.1713
     75  C         25.4160   38.3760    5.4060 C.2   215  LEU215      0.2458
     76  O         24.4430   39.0210    5.8100 O.2   215  LEU215     -0.2730
     77  CB        26.5530   39.6400    3.5880 C.3   215  LEU215      0.0310
     78  CG        27.2530   39.7120    2.2330 C.3   215  LEU215      0.0022
     79  CD1       27.9520   41.0440    2.0860 C.3   215  LEU215      0.0001
     80  CD2       28.2450   38.5760    2.0870 C.3   215  LEU215      0.0001
     81  N         26.1680   37.6530    6.2400 N.am  216  PRO216     -0.2716
     82  CA        25.9430   37.7620    7.6900 C.3   216  PRO216      0.1536
     83  C         26.3950   39.0940    8.2580 C.2   216  PRO216      0.2598
     84  O         25.8090   39.5710    9.2370 O.2   216  PRO216     -0.2715
     85  CB        26.7600   36.5950    8.2650 C.3   216  PRO216      0.0310
     86  CG        27.0030   35.6750    7.1050 C.3   216  PRO216      0.0237
     87  CD        27.1040   36.5690    5.9080 C.3   216  PRO216      0.0939
     88  N         27.4210   39.7090    7.6720 N.am  217  HIS217     -0.1974
     89  CA        27.9340   40.9990    8.0970 C.3   217  HIS217      0.1656
     90  C         28.2810   41.7940    6.8450 C.2   217  HIS217      0.2291
     91  O         28.7420   41.2110    5.8520 O.2   217  HIS217     -0.2864
     92  CB        29.1700   40.8500    8.9960 C.3   217  HIS217      0.0771
     93  CG        29.5400   42.1000    9.7320 C.ar  217  HIS217      0.0820
     94  ND1       30.3480   43.0740    9.1860 N.ar  217  HIS217     -0.2267
     95  CD2       29.2090   42.5370   10.9700 C.ar  217  HIS217      0.1154
     96  CE1       30.4990   44.0570   10.0560 C.ar  217  HIS217      0.1986
     97  NE2       29.8170   43.7570   11.1460 N.ar  217  HIS217     -0.2212
     98  N         31.8090   41.2900    6.1500 N.3   220  GLY220     -0.1210
     99  CA        32.2700   40.0360    6.7260 C.3   220  GLY220      0.1956
    100  C         33.2560   39.2930    5.8450 C.2   220  GLY220      0.2611
    101  O         33.2630   39.4260    4.6210 O.2   220  GLY220     -0.2717
    102  N         34.0900   38.4820    6.5020 N.am  221  LEU221     -0.1979
    103  CA        35.1760   37.7280    5.8830 C.3   221  LEU221      0.1596
    104  C         36.1620   38.6670    5.2080 C.2   221  LEU221      0.2287
    105  O         35.9130   39.1580    4.1030 O.2   221  LEU221     -0.2864
    106  CB        34.6410   36.7000    4.8850 C.3   221  LEU221      0.0297
    107  CG        33.8930   35.5140    5.4910 C.3   221  LEU221      0.0022
    108  CD1       33.7560   34.4150    4.4660 C.3   221  LEU221      0.0001
    109  CD2       34.5930   35.0010    6.7370 C.3   221  LEU221      0.0001
    110  N         38.0710   39.1830    9.4040 N.3   224  LEU224     -0.1231
    111  CA        38.4940   37.9720   10.0980 C.3   224  LEU224      0.1693
    112  C         39.9030   37.5700    9.6820 C.2   224  LEU224      0.2592
    113  O         40.7660   37.3170   10.5320 O.2   224  LEU224     -0.2718
    114  CB        37.5130   36.8330    9.8230 C.3   224  LEU224      0.0284
    115  CG        37.9690   35.4610   10.3310 C.3   224  LEU224      0.0019
    116  CD1       38.1180   35.4780   11.8420 C.3   224  LEU224      0.0001
    117  CD2       37.0180   34.3550    9.8990 C.3   224  LEU224      0.0001
    118  N         40.1560   37.5100    8.3740 N.am  225  PHE225     -0.1976
    119  CA        41.4560   37.0690    7.8850 C.3   225  PHE225      0.1639
    120  C         42.5250   38.1440    8.0360 C.2   225  PHE225      0.2290
    121  O         43.7080   37.8130    8.1720 O.2   225  PHE225     -0.2864
    122  CB        41.3400   36.6280    6.4250 C.3   225  PHE225      0.0560
    123  CG        40.2870   35.5810    6.1960 C.ar  225  PHE225     -0.0200
    124  CD1       40.5620   34.2420    6.4260 C.ar  225  PHE225     -0.0042
    125  CD2       39.0210   35.9370    5.7600 C.ar  225  PHE225     -0.0042
    126  CE1       39.5940   33.2750    6.2210 C.ar  225  PHE225     -0.0003
    127  CE2       38.0490   34.9760    5.5520 C.ar  225  PHE225     -0.0003
    128  CZ        38.3370   33.6420    5.7830 C.ar  225  PHE225     -0.0000
    129  N         33.3730   43.0670   13.6880 N.3   232  TYR232     -0.1241
    130  CA        32.2130   42.2200   13.9210 C.3   232  TYR232      0.1605
    131  C         31.4690   42.5820   15.1980 C.2   232  TYR232      0.2264
    132  O         30.2950   42.2220   15.3390 O.2   232  TYR232     -0.2867
    133  CB        32.6440   40.7570   13.9850 C.3   232  TYR232      0.0534
    134  CG        33.2510   40.2400   12.7060 C.ar  232  TYR232     -0.0201
    135  CD1       32.6030   40.4070   11.4880 C.ar  232  TYR232     -0.0009
    136  CD2       34.4740   39.5870   12.7140 C.ar  232  TYR232     -0.0009
    137  CE1       33.1560   39.9280   10.3140 C.ar  232  TYR232      0.0417
    138  CE2       35.0360   39.1080   11.5470 C.ar  232  TYR232      0.0417
    139  CZ        34.3730   39.2800   10.3510 C.ar  232  TYR232      0.1957
    140  OH        34.9330   38.8000    9.1900 O.3   232  TYR232     -0.2866
    141  N         27.8140   40.7500   14.6980 N.3   253  ILE253     -0.1231
    142  CA        27.5640   39.3150   14.7690 C.3   253  ILE253      0.1692
    143  C         28.2590   38.6540   15.9480 C.2   253  ILE253      0.2591
    144  O         27.9390   37.4960   16.2620 O.2   253  ILE253     -0.2718
    145  CB        27.9650   38.6040   13.4590 C.3   253  ILE253      0.0266
    146  CG1       29.4270   38.8960   13.1210 C.3   253  ILE253      0.0019
    147  CG2       27.0450   39.0200   12.3260 C.3   253  ILE253      0.0020
    148  CD1       29.9810   38.0250   12.0240 C.3   253  ILE253      0.0001
    149  N         29.1930   39.3380   16.6090 N.am  254  LEU254     -0.1980
    150  CA        29.9600   38.7680   17.7160 C.3   254  LEU254      0.1596
    151  C         30.2000   39.8630   18.7460 C.2   254  LEU254      0.2287
    152  O         31.0230   40.7530   18.5170 O.2   254  LEU254     -0.2864
    153  CB        31.2900   38.1930   17.2290 C.3   254  LEU254      0.0297
    154  CG        31.2380   37.1110   16.1510 C.3   254  LEU254      0.0022
    155  CD1       32.6210   36.8650   15.5700 C.3   254  LEU254      0.0001
    156  CD2       30.6500   35.8260   16.7200 C.3   254  LEU254      0.0001
    157  N         31.8890   30.2660   19.3350 N.3   277  LEU277     -0.1245
    158  CA        33.0910   30.4030   18.5180 C.3   277  LEU277      0.1561
    159  C         34.3530   30.2560   19.3650 C.2   277  LEU277      0.2260
    160  O         35.2580   29.4790   19.0270 O.2   277  LEU277     -0.2867
    161  CB        33.0740   31.7480   17.7990 C.3   277  LEU277      0.0270
    162  CG        34.2540   32.0460   16.8750 C.3   277  LEU277      0.0019
    163  CD1       34.4390   30.9120   15.8920 C.3   277  LEU277      0.0001
    164  CD2       34.0240   33.3520   16.1460 C.3   277  LEU277      0.0001
@<TRIPOS>BOND
     1    64    63    1
     2    62    63    1
     3    62    59    1
     4    61    60    2
     5    63    65    1
     6    60    59    1
     7    59    58    1
     8    58    49   am
     9    66    67    1
    10    47    48    1
    11    56    54   ar
    12    56    57   ar
    13    49    50    2
    14    49    48    1
    15    79    78    1
    16    80    78    1
    17    67    68    1
    18    67    70    1
    19    78    77    1
    20    54    52   ar
    21    57    55   ar
    22    72    70    1
    23    68    69    2
    24    68    73   am
    25    48    51    1
    26    73    74    1
    27    70    71    1
    28    52    53   ar
    29    52    51    1
    30    55    53   ar
    31    77    74    1
    32    74    75    1
    33   105   104    2
    34   108   107    1
    35   101   100    2
    36   106   107    1
    37   106   103    1
    38   104   103    1
    39    75    76    2
    40    75    81   am
    41   107   109    1
    42   127   125   ar
    43   127   128   ar
    44   125   123   ar
    45   128   126   ar
    46   100   102   am
    47   100    99    1
    48    91    90    2
    49   103   102    1
    50    87    81    1
    51    87    86    1
    52    98    99    1
    53   123   122    1
    54   123   124   ar
    55   126   124   ar
    56    81    82    1
    57   122   119    1
    58    90    89    1
    59    45    43   ar
    60    45    46   ar
    61    43    42   ar
    62    86    85    1
    63    88    89    1
    64    88    83   am
    65    82    83    1
    66    82    85    1
    67   119   120    1
    68   119   118    1
    69   120   121    2
    70    89    92    1
    71    46    44   ar
    72    83    84    2
    73    42    41    1
    74    42    44   ar
    75   118   112   am
    76    40    39    2
    77    41    38    1
    78    92    93    1
    79    94    93   ar
    80    94    96   ar
    81   140   139    1
    82   110   111    1
    83    38    39    1
    84    38    37    1
    85   112   111    1
    86   112   113    2
    87    93    95   ar
    88   114   111    1
    89   114   115    1
    90   117   115    1
    91    96    97   ar
    92   137   139   ar
    93   137   135   ar
    94   115   116    1
    95   139   138   ar
    96    37    32   am
    97    33    32    2
    98    95    97   ar
    99    32    31    1
   100   135   134   ar
   101   138   136   ar
   102    29    28    2
   103    36    34    1
   104   148   146    1
   105    28    27    1
   106    27    26    1
   107   147   145    1
   108    34    31    1
   109    34    35    1
   110   134   136   ar
   111   134   133    1
   112    31    30    1
   113    20    17    1
   114     6     5    1
   115   146   145    1
   116    15    13    1
   117    19    18    2
   118    17    18    1
   119    17    16    1
   120   145   142    1
   121    26    23   am
   122    13    14    1
   123    13    12    1
   124   129   130    1
   125     7     5    1
   126   130   133    1
   127   130   131    1
   128    16    10   am
   129     5     2    1
   130    11    10    2
   131    24    23    2
   132    23    22    1
   133    10     9    1
   134     4     3    2
   135   141   142    1
   136   142   143    1
   137    12     9    1
   138   131   132    2
   139     2     3    1
   140     2     1    1
   141   155   154    1
   142     9     8    1
   143   163   162    1
   144   143   144    2
   145   143   149   am
   146    22    21    1
   147    22    25    1
   148   164   162    1
   149   154   156    1
   150   154   153    1
   151   149   150    1
   152   162   161    1
   153   153   150    1
   154   150   151    1
   155   161   158    1
   156   152   151    2
   157   158   157    1
   158   158   159    1
   159   160   159    2
