@<TRIPOS>MOLECULE
tmp/5l8rK12.pdb
 78 73 0 0 0
SMALL
GASTEIGER

@<TRIPOS>ATOM
      1  N         54.9060   33.0100   12.0300 N.3    11  THR11      -0.1218
      2  CA        55.0610   31.6450   11.5360 C.3    11  THR11       0.1862
      3  C         56.5200   31.3300   11.2240 C.2    11  THR11       0.2287
      4  O         56.9940   30.2190   11.4930 O.2    11  THR11      -0.2866
      5  CB        54.1750   31.4380   10.3090 C.3    11  THR11       0.1770
      6  OG1       52.8080   31.6340   10.6860 O.3    11  THR11      -0.2211
      7  CG2       54.3460   30.0370    9.7460 C.3    11  THR11       0.0375
      8  N         58.4390   28.3050   13.1560 N.3    15  LEU15      -0.1245
      9  CA        59.1930   27.2840   12.4330 C.3    15  LEU15       0.1561
     10  C         60.6690   27.3300   12.8050 C.2    15  LEU15       0.2260
     11  O         61.3140   26.2850   12.9580 O.2    15  LEU15      -0.2867
     12  CB        59.0180   27.4700   10.9240 C.3    15  LEU15       0.0270
     13  CG        57.6250   27.2650   10.3260 C.3    15  LEU15       0.0019
     14  CD1       57.6090   27.6870    8.8680 C.3    15  LEU15       0.0001
     15  CD2       57.1740   25.8180   10.4720 C.3    15  LEU15       0.0001
     16  N         65.1110   16.6770    4.7610 N.3    62  ASP62      -0.1239
     17  CA        65.6330   17.6310    5.7230 C.3    62  ASP62       0.1674
     18  C         66.6570   16.9290    6.6140 C.2    62  ASP62       0.2266
     19  O         66.3230   15.9120    7.2390 O.2    62  ASP62      -0.2867
     20  CB        64.4800   18.1800    6.5610 C.3    62  ASP62       0.1410
     21  CG        64.7670   19.5430    7.1470 C.2    62  ASP62       0.3668
     22  OD1       65.9470   19.8710    7.3770 O.co2  62  ASP62      -0.2456
     23  OD2       63.8010   20.2920    7.3950 O.co2  62  ASP62      -0.2456
     24  N         56.2390   21.0340   10.4440 N.3    71  VAL71      -0.1231
     25  CA        55.7610   22.2390    9.7680 C.3    71  VAL71       0.1692
     26  C         54.3470   22.5720   10.2180 C.2    71  VAL71       0.2591
     27  O         54.0420   23.7120   10.5800 O.2    71  VAL71      -0.2718
     28  CB        55.8210   22.0620    8.2400 C.3    71  VAL71       0.0266
     29  CG1       55.2650   23.2950    7.5400 C.3    71  VAL71       0.0020
     30  CG2       57.2330   21.7920    7.7870 C.3    71  VAL71       0.0020
     31  N         53.4620   21.5750   10.1990 N.am   72  LEU72      -0.1980
     32  CA        52.0650   21.8260   10.5330 C.3    72  LEU72       0.1596
     33  C         51.9100   22.2940   11.9750 C.2    72  LEU72       0.2287
     34  O         51.1660   23.2430   12.2500 O.2    72  LEU72      -0.2864
     35  CB        51.2370   20.5680   10.2730 C.3    72  LEU72       0.0297
     36  CG        51.1580   20.1290    8.8100 C.3    72  LEU72       0.0022
     37  CD1       50.4530   18.7890    8.6730 C.3    72  LEU72       0.0001
     38  CD2       50.4590   21.1910    7.9820 C.3    72  LEU72       0.0001
     39  N         53.9040   25.8580   12.4670 N.3    75  GLY75      -0.1210
     40  CA        53.1930   26.8560   11.6840 C.3    75  GLY75       0.1956
     41  C         51.8170   27.1630   12.2460 C.2    75  GLY75       0.2612
     42  O         51.3740   28.3160   12.2340 O.2    75  GLY75      -0.2717
     43  N         51.1210   26.1350   12.7430 N.am   76  SER76      -0.1952
     44  CA        49.8630   26.3650   13.4490 C.3    76  SER76       0.1924
     45  C         50.0690   27.3030   14.6310 C.2    76  SER76       0.2314
     46  O         49.3110   28.2650   14.8170 O.2    76  SER76      -0.2863
     47  CB        49.2700   25.0370   13.9180 C.3    76  SER76       0.2116
     48  OG        49.0060   24.1810   12.8230 O.3    76  SER76      -0.2180
     49  N         50.5990   30.8600   13.4560 N.3    79  HIS79      -0.1226
     50  CA        49.3750   31.5150   13.0070 C.3    79  HIS79       0.1752
     51  C         48.4420   31.8480   14.1640 C.2    79  HIS79       0.2595
     52  O         47.6980   32.8330   14.0860 O.2    79  HIS79      -0.2718
     53  CB        48.6520   30.6440   11.9850 C.3    79  HIS79       0.0759
     54  CG        49.2480   30.7040   10.6140 C.ar   79  HIS79       0.0818
     55  ND1       50.5280   30.2760   10.3380 N.ar   79  HIS79      -0.2268
     56  CD2       48.7390   31.1490    9.4400 C.ar   79  HIS79       0.1154
     57  CE1       50.7800   30.4480    9.0520 C.ar   79  HIS79       0.1986
     58  NE2       49.7130   30.9810    8.4860 N.ar   79  HIS79      -0.2212
     59  N         48.4640   31.0490   15.2340 N.am   80  ILE80      -0.1980
     60  CA        47.6310   31.3530   16.3950 C.3    80  ILE80       0.1595
     61  C         48.1790   32.5630   17.1470 C.2    80  ILE80       0.2287
     62  O         47.4220   33.4530   17.5570 O.2    80  ILE80      -0.2864
     63  CB        47.5150   30.1100   17.2960 C.3    80  ILE80       0.0276
     64  CG1       46.7410   29.0130   16.5600 C.3    80  ILE80       0.0022
     65  CG2       46.8400   30.4600   18.6140 C.3    80  ILE80       0.0022
     66  CD1       46.8110   27.6520   17.2150 C.3    80  ILE80       0.0001
     67  N         47.4280   35.6710   14.6250 N.3    83  TYR83      -0.1241
     68  CA        46.0720   36.1900   14.7470 C.3    83  TYR83       0.1605
     69  C         45.7640   36.6610   16.1590 C.2    83  TYR83       0.2264
     70  O         44.8470   37.4690   16.3450 O.2    83  TYR83      -0.2867
     71  CB        45.0580   35.1400   14.2960 C.3    83  TYR83       0.0534
     72  CG        44.9060   35.1090   12.7980 C.ar   83  TYR83      -0.0201
     73  CD1       44.0290   35.9720   12.1550 C.ar   83  TYR83      -0.0009
     74  CD2       45.6650   34.2440   12.0210 C.ar   83  TYR83      -0.0009
     75  CE1       43.8950   35.9620   10.7820 C.ar   83  TYR83       0.0417
     76  CE2       45.5380   34.2260   10.6440 C.ar   83  TYR83       0.0417
     77  CZ        44.6510   35.0860   10.0320 C.ar   83  TYR83       0.1957
     78  OH        44.5160   35.0750    8.6660 O.3    83  TYR83      -0.2866
@<TRIPOS>BOND
     1    16    17    1
     2    17    20    1
     3    17    18    1
     4    20    21    1
     5    18    19    2
     6    21    22   ar
     7    21    23   ar
     8    29    28    1
     9    30    28    1
    10    38    36    1
    11    28    25    1
    12    58    57   ar
    13    58    56   ar
    14    78    77    1
    15    37    36    1
    16    36    35    1
    17    14    13    1
    18    57    55   ar
    19    56    54   ar
    20     7     5    1
    21    25    26    1
    22    25    24    1
    23    77    76   ar
    24    77    75   ar
    25    31    26   am
    26    31    32    1
    27    26    27    2
    28    35    32    1
    29     5     6    1
    30     5     2    1
    31    13    15    1
    32    13    12    1
    33    55    54   ar
    34    32    33    1
    35    54    53    1
    36    76    74   ar
    37    75    73   ar
    38    12     9    1
    39     3     4    2
    40     3     2    1
    41     2     1    1
    42    40    41    1
    43    40    39    1
    44    33    34    2
    45    53    50    1
    46    74    72   ar
    47    73    72   ar
    48    42    41    2
    49    41    43   am
    50     9    10    1
    51     9     8    1
    52    43    44    1
    53    72    71    1
    54    10    11    2
    55    48    47    1
    56    50    49    1
    57    50    51    1
    58    44    47    1
    59    44    45    1
    60    52    51    2
    61    51    59   am
    62    71    68    1
    63    67    68    1
    64    45    46    2
    65    68    69    1
    66    59    60    1
    67    69    70    2
    68    60    61    1
    69    60    63    1
    70    64    66    1
    71    64    63    1
    72    61    62    2
    73    63    65    1
