@<TRIPOS>MOLECULE
tmp/5l8rF00.pdb
 121 116 0 0 0
SMALL
GASTEIGER

@<TRIPOS>ATOM
      1  N         13.2730  -18.1640   26.4350 N.3     4  PHE4       -0.1241
      2  CA        13.5090  -16.8560   27.0390 C.3     4  PHE4        0.1605
      3  C         13.8100  -16.9780   28.5240 C.2     4  PHE4        0.2264
      4  O         13.0780  -17.6450   29.2530 O.2     4  PHE4       -0.2867
      5  CB        12.2980  -15.9430   26.8280 C.3     4  PHE4        0.0534
      6  CG        12.4260  -14.5990   27.4940 C.ar    4  PHE4       -0.0203
      7  CD1       13.1040  -13.5620   26.8700 C.ar    4  PHE4       -0.0042
      8  CD2       11.8580  -14.3660   28.7370 C.ar    4  PHE4       -0.0042
      9  CE1       13.2250  -12.3250   27.4790 C.ar    4  PHE4       -0.0003
     10  CE2       11.9760  -13.1290   29.3510 C.ar    4  PHE4       -0.0003
     11  CZ        12.6600  -12.1090   28.7200 C.ar    4  PHE4       -0.0000
     12  N         17.0690  -16.1530   26.1750 N.3     6  ARG6       -0.1231
     13  CA        18.0410  -16.9580   25.4440 C.3     6  ARG6        0.1694
     14  C         19.4740  -16.6800   25.8720 C.2     6  ARG6        0.2592
     15  O         20.3550  -17.5050   25.6090 O.2     6  ARG6       -0.2718
     16  CB        17.8960  -16.7230   23.9410 C.3     6  ARG6        0.0321
     17  CG        16.5460  -17.1300   23.3850 C.3     6  ARG6        0.0489
     18  CD        16.2770  -18.6100   23.6060 C.3     6  ARG6        0.2205
     19  NE        17.1440  -19.4560   22.7930 N.pl3   6  ARG6       -0.0865
     20  CZ        16.8990  -19.7690   21.5260 C.cat   6  ARG6        0.5346
     21  NH1       15.8130  -19.3000   20.9260 N.pl3   6  ARG6        0.1354
     22  NH2       17.7390  -20.5470   20.8560 N.pl3   6  ARG6        0.1354
     23  N         19.7290  -15.5510   26.5270 N.am    7  PHE7       -0.1976
     24  CA        21.0740  -15.1990   26.9570 C.3     7  PHE7        0.1639
     25  C         21.4420  -15.7830   28.3140 C.2     7  PHE7        0.2290
     26  O         22.5890  -15.6260   28.7460 O.2     7  PHE7       -0.2864
     27  CB        21.2410  -13.6740   26.9870 C.3     7  PHE7        0.0560
     28  CG        20.1500  -12.9460   27.7270 C.ar    7  PHE7       -0.0200
     29  CD1       20.1880  -12.8230   29.1110 C.ar    7  PHE7       -0.0042
     30  CD2       19.1020  -12.3580   27.0340 C.ar    7  PHE7       -0.0042
     31  CE1       19.1930  -12.1370   29.7930 C.ar    7  PHE7       -0.0003
     32  CE2       18.1010  -11.6730   27.7090 C.ar    7  PHE7       -0.0003
     33  CZ        18.1500  -11.5600   29.0920 C.ar    7  PHE7       -0.0000
     34  N         14.4310  -12.2310   33.3190 N.3    23  GLY23      -0.1210
     35  CA        14.7750  -12.0870   31.9170 C.3    23  GLY23       0.1956
     36  C         14.7330  -10.6430   31.4600 C.2    23  GLY23       0.2611
     37  O         15.5400  -10.2270   30.6240 O.2    23  GLY23      -0.2717
     38  N         13.8060   -9.8590   32.0100 N.am   24  ILE24      -0.1979
     39  CA        13.6810   -8.4580   31.6320 C.3    24  ILE24       0.1595
     40  C         14.7640   -7.6200   32.2940 C.2    24  ILE24       0.2287
     41  O         15.4560   -6.8370   31.6350 O.2    24  ILE24      -0.2864
     42  CB        12.2760   -7.9450   31.9900 C.3    24  ILE24       0.0276
     43  CG1       11.2140   -8.8310   31.3320 C.3    24  ILE24       0.0022
     44  CG2       12.1220   -6.4940   31.5820 C.3    24  ILE24       0.0022
     45  CD1        9.8120   -8.5990   31.8420 C.3    24  ILE24       0.0001
     46  N         18.4760   -7.9780   30.8060 N.3    27  ALA27      -0.1231
     47  CA        18.6610   -8.0270   29.3600 C.3    27  ALA27       0.1694
     48  C         19.8260   -7.1600   28.8960 C.2    27  ALA27       0.2592
     49  O         20.4390   -7.4560   27.8630 O.2    27  ALA27      -0.2718
     50  CB        17.3710   -7.6040   28.6530 C.3    27  ALA27       0.0304
     51  N         20.1490   -6.0960   29.6320 N.am   28  HIS28      -0.1976
     52  CA        21.2000   -5.1760   29.2190 C.3    28  HIS28       0.1656
     53  C         22.5170   -5.3960   29.9450 C.2    28  HIS28       0.2291
     54  O         23.5140   -4.7640   29.5810 O.2    28  HIS28      -0.2864
     55  CB        20.7560   -3.7290   29.4320 C.3    28  HIS28       0.0771
     56  CG        19.5670   -3.3350   28.6190 C.ar   28  HIS28       0.0820
     57  ND1       18.8970   -2.1450   28.8130 N.ar   28  HIS28      -0.2267
     58  CD2       18.9280   -3.9680   27.6080 C.ar   28  HIS28       0.1154
     59  CE1       17.8950   -2.0630   27.9570 C.ar   28  HIS28       0.1986
     60  NE2       17.8910   -3.1570   27.2160 N.ar   28  HIS28      -0.2212
     61  N         25.2100   -7.1460   29.7930 N.3    30  PHE30      -0.1241
     62  CA        25.8110   -8.0450   28.8110 C.3    30  PHE30       0.1605
     63  C         26.8880   -8.9250   29.4310 C.2    30  PHE30       0.2264
     64  O         27.0290  -10.0960   29.0590 O.2    30  PHE30      -0.2867
     65  CB        26.3880   -7.2340   27.6520 C.3    30  PHE30       0.0534
     66  CG        25.3640   -6.4270   26.9090 C.ar   30  PHE30      -0.0203
     67  CD1       24.0980   -6.9380   26.6730 C.ar   30  PHE30      -0.0042
     68  CD2       25.6650   -5.1530   26.4540 C.ar   30  PHE30      -0.0042
     69  CE1       23.1520   -6.1950   25.9910 C.ar   30  PHE30      -0.0003
     70  CE2       24.7210   -4.4000   25.7680 C.ar   30  PHE30      -0.0003
     71  CZ        23.4650   -4.9220   25.5350 C.ar   30  PHE30      -0.0000
     72  N         25.7390  -12.3390   30.5200 N.3    33  HIS33      -0.1241
     73  CA        25.0790  -13.2280   29.5760 C.3    33  HIS33       0.1621
     74  C         25.9560  -14.4370   29.2510 C.2    33  HIS33       0.2264
     75  O         27.1840  -14.4040   29.3720 O.2    33  HIS33      -0.2867
     76  CB        24.7230  -12.4780   28.2940 C.3    33  HIS33       0.0745
     77  CG        23.6300  -11.4720   28.4700 C.ar   33  HIS33       0.0817
     78  ND1       23.1560  -10.6970   27.4330 N.ar   33  HIS33      -0.2268
     79  CD2       22.9130  -11.1180   29.5620 C.ar   33  HIS33       0.1154
     80  CE1       22.1940   -9.9100   27.8790 C.ar   33  HIS33       0.1986
     81  NE2       22.0270  -10.1460   29.1670 N.ar   33  HIS33      -0.2212
     82  N         27.9540   -5.0540   21.2110 N.3    44  ASN44      -0.1240
     83  CA        26.5810   -4.8590   21.6640 C.3    44  ASN44       0.1653
     84  C         26.3900   -3.4690   22.2550 C.2    44  ASN44       0.2266
     85  O         25.3520   -2.8300   22.0350 O.2    44  ASN44      -0.2867
     86  CB        26.2030   -5.9270   22.6890 C.3    44  ASN44       0.1155
     87  CG        26.2180   -7.3240   22.1070 C.2    44  ASN44       0.2627
     88  OD1       26.5360   -8.2860   22.8010 O.2    44  ASN44      -0.2716
     89  ND2       25.8830   -7.4430   20.8240 N.am   44  ASN44      -0.0877
     90  N         26.3500   -0.8680   19.2190 N.3    47  ALA47      -0.1231
     91  CA        25.0600   -0.9000   18.5400 C.3    47  ALA47       0.1694
     92  C         23.9630   -0.3080   19.4130 C.2    47  ALA47       0.2592
     93  O         23.0970    0.4280   18.9220 O.2    47  ALA47      -0.2718
     94  CB        24.7110   -2.3310   18.1460 C.3    47  ALA47       0.0304
     95  N         23.9830   -0.6160   20.7120 N.am   48  SER48      -0.1952
     96  CA        23.0050   -0.0260   21.6180 C.3    48  SER48       0.1924
     97  C         23.1030    1.4930   21.6270 C.2    48  SER48       0.2314
     98  O         22.0850    2.1790   21.7710 O.2    48  SER48      -0.2863
     99  CB        23.1940   -0.5800   23.0280 C.3    48  SER48       0.2116
    100  OG        23.0880   -1.9910   23.0340 O.3    48  SER48      -0.2180
    101  N         21.2760    2.6860   18.6870 N.3    51  GLY51      -0.1210
    102  CA        19.8490    2.5780   18.9530 C.3    51  GLY51       0.1956
    103  C         19.3340    3.7000   19.8340 C.2    51  GLY51       0.2611
    104  O         18.2600    4.2620   19.5850 O.2    51  GLY51      -0.2717
    105  N         20.0980    4.0500   20.8700 N.am   52  GLN52      -0.1979
    106  CA        19.7360    5.1860   21.7100 C.3    52  GLN52       0.1601
    107  C         19.6590    6.4750   20.8990 C.2    52  GLN52       0.2287
    108  O         18.6810    7.2280   21.0000 O.2    52  GLN52      -0.2864
    109  CB        20.7400    5.3390   22.8460 C.3    52  GLN52       0.0394
    110  CG        20.5910    6.6560   23.5550 C.3    52  GLN52       0.0908
    111  CD        19.3860    6.6860   24.4700 C.2    52  GLN52       0.2608
    112  OE1       19.4750    6.2960   25.6300 O.2    52  GLN52      -0.2717
    113  NE2       18.2520    7.1470   23.9540 N.am   52  GLN52      -0.0878
    114  N         16.5650    6.6030   18.9850 N.3    55  ILE55      -0.1245
    115  CA        15.4250    6.9300   19.8410 C.3    55  ILE55       0.1561
    116  C         15.3570    8.4320   20.0860 C.2    55  ILE55       0.2260
    117  O         14.2790    9.0390   20.0290 O.2    55  ILE55      -0.2867
    118  CB        15.5010    6.1520   21.1680 C.3    55  ILE55       0.0252
    119  CG1       15.4300    4.6410   20.9280 C.3    55  ILE55       0.0019
    120  CG2       14.3840    6.6040   22.1060 C.3    55  ILE55       0.0019
    121  CD1       14.0430    4.1360   20.6380 C.3    55  ILE55       0.0001
@<TRIPOS>BOND
     1    94    91    1
     2    91    90    1
     3    91    92    1
     4   101   102    1
     5    93    92    2
     6   102   103    1
     7   114   115    1
     8    92    95   am
     9   104   103    2
    10   103   105   am
    11   115   116    1
    12   115   118    1
    13   117   116    2
    14   121   119    1
    15    95    96    1
    16    89    87   am
    17    22    20    1
    18   105   106    1
    19   107   108    2
    20   107   106    1
    21    21    20    1
    22   119   118    1
    23   118   120    1
    24    82    83    1
    25    20    19    2
    26    96    97    1
    27    96    99    1
    28    97    98    2
    29    83    84    1
    30    83    86    1
    31   106   109    1
    32    85    84    2
    33    87    86    1
    34    87    88    2
    35    19    18    1
    36   109   110    1
    37    99   100    1
    38    17    18    1
    39    17    16    1
    40   110   111    1
    41    16    13    1
    42   113   111   am
    43   111   112    2
    44    13    14    1
    45    13    12    1
    46    71    70   ar
    47    71    69   ar
    48    15    14    2
    49    70    68   ar
    50    14    23   am
    51    69    67   ar
    52     1     2    1
    53    68    66   ar
    54    23    24    1
    55    67    66   ar
    56     5     2    1
    57     5     6    1
    58     7     9   ar
    59     7     6   ar
    60    66    65    1
    61    24    27    1
    62    24    25    1
    63    27    28    1
    64    30    32   ar
    65    30    28   ar
    66     2     3    1
    67    60    58   ar
    68    60    59   ar
    69    78    80   ar
    70    78    77   ar
    71     9    11   ar
    72     6     8   ar
    73    58    56   ar
    74    65    62    1
    75    32    33   ar
    76    28    29   ar
    77    49    48    2
    78    80    81   ar
    79    59    57   ar
    80    76    77    1
    81    76    73    1
    82    25    26    2
    83    77    79   ar
    84     3     4    2
    85    56    57   ar
    86    56    55    1
    87    50    47    1
    88    11    10   ar
    89     8    10   ar
    90    62    63    1
    91    62    61    1
    92    48    47    1
    93    48    51   am
    94    64    63    2
    95    33    31   ar
    96    29    31   ar
    97    81    79   ar
    98    52    55    1
    99    52    51    1
   100    52    53    1
   101    74    75    2
   102    74    73    1
   103    47    46    1
   104    73    72    1
   105    54    53    2
   106    37    36    2
   107    43    45    1
   108    43    42    1
   109    36    35    1
   110    36    38   am
   111    44    42    1
   112    39    42    1
   113    39    38    1
   114    39    40    1
   115    41    40    2
   116    35    34    1
