@<TRIPOS>MOLECULE
tmp/5l8rF17.pdb
 110 102 0 0 0
SMALL
GASTEIGER

@<TRIPOS>ATOM
      1  N         48.9270    9.0520   27.2040 N.3   300  ILE300     -0.1245
      2  CA        48.2110    9.2310   28.4670 C.3   300  ILE300      0.1561
      3  C         48.7770    8.3020   29.5320 C.2   300  ILE300      0.2260
      4  O         48.9330    8.6860   30.7010 O.2   300  ILE300     -0.2867
      5  CB        46.7010    9.0050   28.2590 C.3   300  ILE300      0.0252
      6  CG1       46.1300   10.0810   27.3360 C.3   300  ILE300      0.0019
      7  CG2       45.9650    8.9810   29.5920 C.3   300  ILE300      0.0019
      8  CD1       44.7280    9.8000   26.8700 C.3   300  ILE300      0.0001
      9  N         51.9170    9.9060   30.9610 N.3   303  ILE303     -0.1231
     10  CA        51.6010   11.0160   31.8580 C.3   303  ILE303      0.1692
     11  C         51.1460   10.4870   33.2100 C.2   303  ILE303      0.2591
     12  O         51.5800   10.9670   34.2650 O.2   303  ILE303     -0.2718
     13  CB        50.5360   11.9340   31.2290 C.3   303  ILE303      0.0266
     14  CG1       51.0210   12.4900   29.8920 C.3   303  ILE303      0.0019
     15  CG2       50.1980   13.0780   32.1640 C.3   303  ILE303      0.0020
     16  CD1       49.9690   13.2800   29.1580 C.3   303  ILE303      0.0001
     17  N         50.2600    9.4860   33.2000 N.am  304  LEU304     -0.1980
     18  CA        49.8030    8.9000   34.4570 C.3   304  LEU304      0.1596
     19  C         50.9610    8.2740   35.2290 C.2   304  LEU304      0.2287
     20  O         51.0740    8.4590   36.4480 O.2   304  LEU304     -0.2864
     21  CB        48.7100    7.8680   34.1830 C.3   304  LEU304      0.0297
     22  CG        47.3890    8.4410   33.6710 C.3   304  LEU304      0.0022
     23  CD1       46.5940    7.3840   32.9330 C.3   304  LEU304      0.0001
     24  CD2       46.5820    9.0120   34.8250 C.3   304  LEU304      0.0001
     25  N         53.1010   10.9880   37.1710 N.3   307  HIS307     -0.1241
     26  CA        52.5600   11.8260   38.2440 C.3   307  HIS307      0.1621
     27  C         52.5320   11.0640   39.5670 C.2   307  HIS307      0.2264
     28  O         51.4860   10.6800   40.0950 O.2   307  HIS307     -0.2867
     29  CB        51.1830   12.3430   37.8660 C.3   307  HIS307      0.0745
     30  CG        51.2290   13.4710   36.8910 C.ar  307  HIS307      0.0817
     31  ND1       51.4830   13.2820   35.5500 N.ar  307  HIS307     -0.2268
     32  CD2       51.0910   14.8050   37.0660 C.ar  307  HIS307      0.1154
     33  CE1       51.4800   14.4530   34.9380 C.ar  307  HIS307      0.1986
     34  NE2       51.2360   15.3900   35.8350 N.ar  307  HIS307     -0.2212
     35  N         51.4720    9.6040   48.1310 N.3   314  LEU314     -0.1245
     36  CA        50.4890    8.9140   47.3040 C.3   314  LEU314      0.1561
     37  C         50.9940    7.5540   46.8300 C.2   314  LEU314      0.2260
     38  O         50.4360    6.9830   45.8880 O.2   314  LEU314     -0.2867
     39  CB        50.0890    9.7810   46.1100 C.3   314  LEU314      0.0270
     40  CG        49.4450   11.1260   46.4540 C.3   314  LEU314      0.0019
     41  CD1       48.9710   11.8230   45.1950 C.3   314  LEU314      0.0001
     42  CD2       48.2920   10.9400   47.4250 C.3   314  LEU314      0.0001
     43  N         49.7480    7.3520   40.1310 N.3   318  HIS318     -0.1241
     44  CA        48.7340    6.9880   39.1510 C.3   318  HIS318      0.1621
     45  C         49.1950    5.8610   38.2330 C.2   318  HIS318      0.2264
     46  O         48.6150    5.6640   37.1600 O.2   318  HIS318     -0.2867
     47  CB        48.3340    8.2180   38.3360 C.3   318  HIS318      0.0745
     48  CG        47.9810    9.4040   39.1760 C.ar  318  HIS318      0.0817
     49  ND1       48.9290   10.1520   39.8410 N.ar  318  HIS318     -0.2268
     50  CD2       46.7840    9.9650   39.4720 C.ar  318  HIS318      0.1154
     51  CE1       48.3330   11.1240   40.5070 C.ar  318  HIS318      0.1986
     52  NE2       47.0320   11.0330   40.3010 N.ar  318  HIS318     -0.2212
     53  N         46.9200    3.1640   36.1150 N.3   321  LEU321     -0.1245
     54  CA        45.5470    3.6410   35.9900 C.3   321  LEU321      0.1561
     55  C         45.0660    3.6250   34.5450 C.2   321  LEU321      0.2260
     56  O         43.8630    3.4750   34.3010 O.2   321  LEU321     -0.2867
     57  CB        45.4200    5.0470   36.5780 C.3   321  LEU321      0.0270
     58  CG        45.3470    5.0840   38.1040 C.3   321  LEU321      0.0019
     59  CD1       45.1150    6.4960   38.6040 C.3   321  LEU321      0.0001
     60  CD2       44.2480    4.1540   38.5920 C.3   321  LEU321      0.0001
     61  N         41.4890    1.8530   33.8610 N.3   325  ILE325     -0.1245
     62  CA        40.3090    2.5420   33.3550 C.3   325  ILE325      0.1561
     63  C         39.9570    2.0880   31.9460 C.2   325  ILE325      0.2260
     64  O         38.7860    1.8500   31.6400 O.2   325  ILE325     -0.2867
     65  CB        40.5390    4.0630   33.4170 C.3   325  ILE325      0.0252
     66  CG1       40.6560    4.5090   34.8720 C.3   325  ILE325      0.0019
     67  CG2       39.4220    4.8070   32.7020 C.3   325  ILE325      0.0019
     68  CD1       41.2140    5.8830   35.0230 C.3   325  ILE325      0.0001
     69  N         34.2780    1.6560   35.1060 N.3   331  PHE331     -0.1241
     70  CA        35.0240    2.8400   35.5180 C.3   331  PHE331      0.1605
     71  C         34.7240    4.0100   34.5880 C.2   331  PHE331      0.2264
     72  O         34.4300    5.1250   35.0400 O.2   331  PHE331     -0.2867
     73  CB        36.5180    2.5120   35.5330 C.3   331  PHE331      0.0534
     74  CG        37.3440    3.4180   36.4030 C.ar  331  PHE331     -0.0203
     75  CD1       38.2210    2.8800   37.3270 C.ar  331  PHE331     -0.0042
     76  CD2       37.2760    4.7940   36.2760 C.ar  331  PHE331     -0.0042
     77  CE1       38.9990    3.6950   38.1240 C.ar  331  PHE331     -0.0003
     78  CE2       38.0470    5.6140   37.0720 C.ar  331  PHE331     -0.0003
     79  CZ        38.9130    5.0630   37.9950 C.ar  331  PHE331     -0.0000
     80  N         32.9470    7.6180   35.6150 N.3   335  LEU335     -0.1245
     81  CA        33.4660    8.9620   35.3850 C.3   335  LEU335      0.1561
     82  C         32.5180    9.7760   34.5080 C.2   335  LEU335      0.2260
     83  O         32.2250   10.9450   34.8040 O.2   335  LEU335     -0.2867
     84  CB        34.8560    8.8840   34.7580 C.3   335  LEU335      0.0270
     85  CG        35.9830    8.4430   35.6890 C.3   335  LEU335      0.0019
     86  CD1       37.3040    8.3900   34.9430 C.3   335  LEU335      0.0001
     87  CD2       36.0860    9.3910   36.8570 C.3   335  LEU335      0.0001
     88  N         46.9890    5.4090   43.9650 N.3   406  VAL406     -0.1231
     89  CA        45.9840    6.2080   44.6650 C.3   406  VAL406      0.1692
     90  C         44.6780    5.4280   44.8130 C.2   406  VAL406      0.2591
     91  O         44.0140    5.4760   45.8620 O.2   406  VAL406     -0.2718
     92  CB        45.7820    7.5520   43.9340 C.3   406  VAL406      0.0266
     93  CG1       47.0060    8.4370   44.1160 C.3   406  VAL406      0.0020
     94  CG2       45.5340    7.3330   42.4440 C.3   406  VAL406      0.0020
     95  N         44.3180    4.6560   43.7840 N.am  407  LEU407     -0.1980
     96  CA        43.0450    3.9440   43.7900 C.3   407  LEU407      0.1596
     97  C         43.0070    2.8790   44.8810 C.2   407  LEU407      0.2287
     98  O         42.0240    2.7730   45.6230 O.2   407  LEU407     -0.2864
     99  CB        42.7940    3.3240   42.4160 C.3   407  LEU407      0.0297
    100  CG        41.4460    2.6250   42.2570 C.3   407  LEU407      0.0022
    101  CD1       40.3100    3.5960   42.5300 C.3   407  LEU407      0.0001
    102  CD2       41.3240    1.9980   40.8710 C.3   407  LEU407      0.0001
    103  N         42.5770    4.3600   48.2760 N.3   410  MET410     -0.1245
    104  CA        41.1800    4.5960   48.6440 C.3   410  MET410      0.1570
    105  C         40.6390    3.4530   49.4970 C.2   410  MET410      0.2261
    106  O         40.0710    3.6790   50.5720 O.2   410  MET410     -0.2867
    107  CB        40.3110    4.7960   47.3960 C.3   410  MET410      0.0387
    108  CG        40.5470    6.0940   46.6180 C.3   410  MET410      0.0595
    109  SD        40.5230    7.6250   47.5870 S.3   410  MET410     -0.1393
    110  CE        42.2090    7.6320   48.1180 C.3   410  MET410      0.0692
@<TRIPOS>BOND
     1     8     6    1
     2     1     2    1
     3     6     5    1
     4     5     2    1
     5     5     7    1
     6     2     3    1
     7    16    14    1
     8     3     4    2
     9    14    13    1
    10     9    10    1
    11    13    10    1
    12    13    15    1
    13    64    63    2
    14    10    11    1
    15    63    62    1
    16    67    65    1
    17    23    22    1
    18    17    11   am
    19    17    18    1
    20    11    12    2
    21    62    65    1
    22    62    61    1
    23    65    66    1
    24    22    21    1
    25    22    24    1
    26    21    18    1
    27    56    55    2
    28    18    19    1
    29    82    83    2
    30    82    81    1
    31    55    54    1
    32    71    72    2
    33    71    70    1
    34    84    81    1
    35    84    85    1
    36    66    68    1
    37    33    31   ar
    38    33    34   ar
    39    86    85    1
    40    69    70    1
    41    19    20    2
    42    81    80    1
    43    70    73    1
    44    73    74    1
    45    31    30   ar
    46    85    87    1
    47    34    32   ar
    48    54    53    1
    49    54    57    1
    50    76    74   ar
    51    76    78   ar
    52    74    75   ar
    53    57    58    1
    54    30    32   ar
    55    30    29    1
    56    78    79   ar
    57    46    45    2
    58    25    26    1
    59    75    77   ar
    60    29    26    1
    61    79    77   ar
    62    58    60    1
    63    58    59    1
    64    45    44    1
    65    26    27    1
    66    47    44    1
    67    47    48    1
    68    44    43    1
    69    48    50   ar
    70    48    49   ar
    71    50    52   ar
    72    27    28    2
    73    49    51   ar
    74    52    51   ar
    75   102   100    1
    76   100    99    1
    77   100   101    1
    78    99    96    1
    79    94    92    1
    80    95    96    1
    81    95    90   am
    82    96    97    1
    83    92    93    1
    84    92    89    1
    85    88    89    1
    86    89    90    1
    87    90    91    2
    88    97    98    2
    89    41    40    1
    90    38    37    2
    91    39    40    1
    92    39    36    1
    93    40    42    1
    94   108   107    1
    95   108   109    1
    96    37    36    1
    97    36    35    1
    98   107   104    1
    99   109   110    1
   100   103   104    1
   101   104   105    1
   102   105   106    2
