@<TRIPOS>MOLECULE
tmp/5l8rP00.pdb
 98 96 0 0 0
SMALL
GASTEIGER

@<TRIPOS>ATOM
      1  N        -23.5120  -34.5630   40.2150 N.3    28  TRP28      -0.1227
      2  CA       -24.3350  -34.6280   39.0140 C.3    28  TRP28       0.1737
      3  C        -24.2920  -33.3120   38.2520 C.2    28  TRP28       0.2595
      4  O        -24.0810  -33.2970   37.0330 O.2    28  TRP28      -0.2718
      5  CB       -25.7780  -34.9840   39.3710 C.3    28  TRP28       0.0564
      6  CG       -26.6540  -35.0920   38.1640 C.ar   28  TRP28       0.0003
      7  CD1      -26.8830  -36.2100   37.4150 C.ar   28  TRP28       0.0946
      8  CD2      -27.4120  -34.0390   37.5540 C.ar   28  TRP28       0.0152
      9  NE1      -27.7400  -35.9210   36.3800 N.ar   28  TRP28      -0.2442
     10  CE2      -28.0800  -34.5950   36.4430 C.ar   28  TRP28       0.0810
     11  CE3      -27.5930  -32.6840   37.8410 C.ar   28  TRP28       0.0012
     12  CZ2      -28.9120  -33.8420   35.6190 C.ar   28  TRP28       0.0191
     13  CZ3      -28.4210  -31.9370   37.0200 C.ar   28  TRP28       0.0001
     14  CH2      -29.0710  -32.5180   35.9220 C.ar   28  TRP28       0.0015
     15  N        -24.4900  -32.1930   38.9600 N.am   29  TYR29      -0.1976
     16  CA       -24.5490  -30.8990   38.2860 C.3    29  TYR29       0.1639
     17  C        -23.2410  -30.5910   37.5720 C.2    29  TYR29       0.2290
     18  O        -23.2380  -30.2200   36.3920 O.2    29  TYR29      -0.2864
     19  CB       -24.8910  -29.7910   39.2830 C.3    29  TYR29       0.0560
     20  CG       -24.8170  -28.4070   38.6710 C.ar   29  TYR29      -0.0198
     21  CD1      -25.7240  -28.0100   37.6960 C.ar   29  TYR29      -0.0009
     22  CD2      -23.8330  -27.5040   39.0570 C.ar   29  TYR29      -0.0009
     23  CE1      -25.6560  -26.7520   37.1260 C.ar   29  TYR29       0.0417
     24  CE2      -23.7550  -26.2440   38.4940 C.ar   29  TYR29       0.0417
     25  CZ       -24.6710  -25.8710   37.5300 C.ar   29  TYR29       0.1957
     26  OH       -24.6010  -24.6150   36.9680 O.3    29  TYR29      -0.2866
     27  N        -22.6960  -32.6260   34.5590 N.3    32  ASN32      -0.1225
     28  CA       -23.5800  -32.2880   33.4560 C.3    32  ASN32       0.1785
     29  C        -23.3170  -30.8950   32.8890 C.2    32  ASN32       0.2597
     30  O        -24.0930  -30.4200   32.0520 O.2    32  ASN32      -0.2718
     31  CB       -25.0340  -32.4280   33.9000 C.3    32  ASN32       0.1169
     32  CG       -25.4450  -33.8770   34.0890 C.2    32  ASN32       0.2627
     33  OD1      -25.9290  -34.5220   33.1610 O.2    32  ASN32      -0.2716
     34  ND2      -25.2390  -34.3980   35.2920 N.am   32  ASN32      -0.0877
     35  N        -22.2420  -30.2310   33.3240 N.am   33  LEU33      -0.1966
     36  CA       -21.8040  -29.0120   32.6650 C.3    33  LEU33       0.1713
     37  C        -20.9240  -29.3640   31.4670 C.2    33  LEU33       0.2458
     38  O        -20.2230  -30.3790   31.4840 O.2    33  LEU33      -0.2730
     39  CB       -21.0360  -28.1210   33.6370 C.3    33  LEU33       0.0310
     40  CG       -21.8850  -27.5330   34.7660 C.3    33  LEU33       0.0022
     41  CD1      -21.0400  -26.6900   35.7140 C.3    33  LEU33       0.0001
     42  CD2      -23.0480  -26.7280   34.1910 C.3    33  LEU33       0.0001
     43  N        -20.9500  -28.5420   30.4100 N.am   34  PRO34      -0.2727
     44  CA       -20.2330  -28.9190   29.1780 C.3    34  PRO34       0.1402
     45  C        -18.7520  -29.1740   29.3840 C.2    34  PRO34       0.2269
     46  O        -18.2240  -30.1490   28.8430 O.2    34  PRO34      -0.2865
     47  CB       -20.4830  -27.7250   28.2470 C.3    34  PRO34       0.0296
     48  CG       -20.9070  -26.6140   29.1410 C.3    34  PRO34       0.0237
     49  CD       -21.6330  -27.2480   30.2760 C.3    34  PRO34       0.0939
     50  N        -17.9420  -32.7990   30.1070 N.3    37  ARG37      -0.1245
     51  CA       -18.4190  -33.8510   29.2100 C.3    37  ARG37       0.1563
     52  C        -17.2180  -34.3080   28.3880 C.2    37  ARG37       0.2260
     53  O        -16.9780  -33.8360   27.2760 O.2    37  ARG37      -0.2867
     54  CB       -19.5710  -33.3510   28.3470 C.3    37  ARG37       0.0307
     55  CG       -20.7580  -32.8920   29.1710 C.3    37  ARG37       0.0489
     56  CD       -22.0060  -32.7190   28.3400 C.3    37  ARG37       0.2205
     57  NE       -23.1570  -32.4190   29.1850 N.pl3  37  ARG37      -0.0865
     58  CZ       -23.9250  -33.3390   29.7620 C.cat  37  ARG37       0.5346
     59  NH1      -23.6740  -34.6320   29.5810 N.pl3  37  ARG37       0.1354
     60  NH2      -24.9520  -32.9660   30.5140 N.pl3  37  ARG37       0.1354
     61  N        -18.7800  -28.6140   20.4790 N.3    44  LEU44      -0.1245
     62  CA       -20.1470  -28.4440   20.9650 C.3    44  LEU44       0.1561
     63  C        -20.1650  -27.8710   22.3760 C.2    44  LEU44       0.2260
     64  O        -20.9830  -26.9950   22.6910 O.2    44  LEU44      -0.2867
     65  CB       -20.8800  -29.7820   20.9170 C.3    44  LEU44       0.0270
     66  CG       -20.9920  -30.4030   19.5230 C.3    44  LEU44       0.0019
     67  CD1      -21.4590  -31.8400   19.6100 C.3    44  LEU44       0.0001
     68  CD2      -21.9370  -29.5860   18.6610 C.3    44  LEU44       0.0001
     69  N        -19.6620  -24.4010   22.0760 N.3    47  ILE47      -0.1231
     70  CA       -20.8980  -23.7540   21.6450 C.3    47  ILE47       0.1692
     71  C        -21.7680  -23.4310   22.8520 C.2    47  ILE47       0.2591
     72  O        -22.2170  -22.2940   23.0250 O.2    47  ILE47      -0.2718
     73  CB       -21.6510  -24.6310   20.6290 C.3    47  ILE47       0.0266
     74  CG1      -20.8380  -24.7960   19.3450 C.3    47  ILE47       0.0019
     75  CG2      -23.0120  -24.0260   20.3210 C.3    47  ILE47       0.0020
     76  CD1      -20.6200  -23.5140   18.5870 C.3    47  ILE47       0.0001
     77  N        -21.9960  -24.4220   23.7180 N.am   48  GLU48      -0.1979
     78  CA       -22.8520  -24.2070   24.8840 C.3    48  GLU48       0.1602
     79  C        -22.2780  -23.1330   25.8070 C.2    48  GLU48       0.2287
     80  O        -22.9930  -22.2110   26.2290 O.2    48  GLU48      -0.2864
     81  CB       -23.0440  -25.5270   25.6340 C.3    48  GLU48       0.0415
     82  CG       -24.0880  -25.4870   26.7390 C.3    48  GLU48       0.1163
     83  CD       -24.0880  -26.7510   27.5810 C.2    48  GLU48       0.3649
     84  OE1      -23.5320  -27.7690   27.1310 O.co2  48  GLU48      -0.2457
     85  OE2      -24.6280  -26.7270   28.7010 O.co2  48  GLU48      -0.2457
     86  N        -22.6040  -19.7130   24.2040 N.3    51  LEU51      -0.1231
     87  CA       -23.9930  -19.2640   24.2100 C.3    51  LEU51       0.1693
     88  C        -24.3760  -18.7130   25.5760 C.2    51  LEU51       0.2591
     89  O        -24.8830  -17.5880   25.6880 O.2    51  LEU51      -0.2718
     90  CB       -24.9210  -20.4100   23.8040 C.3    51  LEU51       0.0284
     91  CG       -24.8780  -20.8500   22.3400 C.3    51  LEU51       0.0019
     92  CD1      -25.6220  -22.1620   22.1630 C.3    51  LEU51       0.0001
     93  CD2      -25.4420  -19.7760   21.4250 C.3    51  LEU51       0.0001
     94  N        -24.1050  -19.4830   26.6330 N.am   52  ALA52      -0.1980
     95  CA       -24.4510  -19.0340   27.9780 C.3    52  ALA52       0.1597
     96  C        -23.7450  -17.7240   28.3300 C.2    52  ALA52       0.2287
     97  O        -24.3860  -16.7480   28.7450 O.2    52  ALA52      -0.2864
     98  CB       -24.1150  -20.1280   28.9930 C.3    52  ALA52       0.0319
@<TRIPOS>BOND
     1    76    74    1
     2    68    66    1
     3    74    73    1
     4    66    67    1
     5    66    65    1
     6    75    73    1
     7    61    62    1
     8    73    70    1
     9    65    62    1
    10    62    63    1
    11    93    91    1
    12    70    69    1
    13    70    71    1
    14    92    91    1
    15    91    90    1
    16    63    64    2
    17    71    72    2
    18    71    77   am
    19    77    78    1
    20    90    87    1
    21    86    87    1
    22    87    88    1
    23    78    81    1
    24    78    79    1
    25    88    89    2
    26    88    94   am
    27    81    82    1
    28    79    80    2
    29    94    95    1
    30    82    83    1
    31    84    83   ar
    32    53    52    2
    33    83    85   ar
    34    95    96    1
    35    95    98    1
    36    47    48    1
    37    47    44    1
    38    96    97    2
    39    56    55    1
    40    56    57    1
    41    54    55    1
    42    54    51    1
    43    52    51    1
    44    46    45    2
    45    48    49    1
    46    44    45    1
    47    44    43    1
    48    57    58    2
    49    51    50    1
    50    59    58    1
    51    58    60    1
    52    49    43    1
    53    43    37   am
    54    37    38    2
    55    37    36    1
    56    30    29    2
    57    36    35    1
    58    36    39    1
    59    29    35   am
    60    29    28    1
    61    33    32    2
    62    28    31    1
    63    28    27    1
    64    39    40    1
    65    31    32    1
    66    32    34   am
    67    42    40    1
    68    40    41    1
    69    12    14   ar
    70    12    10   ar
    71    14    13   ar
    72     9    10   ar
    73     9     7   ar
    74    18    17    2
    75    10     8   ar
    76    26    25    1
    77    13    11   ar
    78     4     3    2
    79    23    25   ar
    80    23    21   ar
    81     7     6   ar
    82    25    24   ar
    83     8    11   ar
    84     8     6   ar
    85    17    16    1
    86    21    20   ar
    87     6     5    1
    88     3    15   am
    89     3     2    1
    90    16    15    1
    91    16    19    1
    92    24    22   ar
    93    20    22   ar
    94    20    19    1
    95     2     5    1
    96     2     1    1
