@<TRIPOS>MOLECULE
tmp/5l8rB22.pdb
 113 110 0 0 0
SMALL
GASTEIGER

@<TRIPOS>ATOM
      1  N         25.2870   18.6740  117.2680 N.3    55  TRP55      -0.1241
      2  CA        24.6440   19.8700  116.7290 C.3    55  TRP55       0.1605
      3  C         23.2240   20.0170  117.2510 C.2    55  TRP55       0.2264
      4  O         22.7790   21.1280  117.5550 O.2    55  TRP55      -0.2867
      5  CB        24.6240   19.8310  115.2040 C.3    55  TRP55       0.0550
      6  CG        25.9220   20.1530  114.5540 C.ar   55  TRP55       0.0003
      7  CD1       26.5850   19.3930  113.6400 C.ar   55  TRP55       0.0946
      8  CD2       26.7170   21.3280  114.7520 C.ar   55  TRP55       0.0152
      9  NE1       27.7480   20.0140  113.2570 N.ar   55  TRP55      -0.2442
     10  CE2       27.8510   21.2070  113.9240 C.ar   55  TRP55       0.0810
     11  CE3       26.5830   22.4700  115.5490 C.ar   55  TRP55       0.0012
     12  CZ2       28.8440   22.1800  113.8730 C.ar   55  TRP55       0.0191
     13  CZ3       27.5690   23.4330  115.4960 C.ar   55  TRP55       0.0001
     14  CH2       28.6850   23.2830  114.6640 C.ar   55  TRP55       0.0015
     15  N         23.3320   21.2850  120.9470 N.3    58  LEU58      -0.1231
     16  CA        23.5670   22.7260  120.9580 C.3    58  LEU58       0.1693
     17  C         22.3370   23.4860  120.4740 C.2    58  LEU58       0.2592
     18  O         21.9850   24.5370  121.0250 O.2    58  LEU58      -0.2718
     19  CB        24.7800   23.0660  120.0930 C.3    58  LEU58       0.0284
     20  CG        26.1200   22.5140  120.5730 C.3    58  LEU58       0.0019
     21  CD1       27.1930   22.7520  119.5250 C.3    58  LEU58       0.0001
     22  CD2       26.5080   23.1480  121.8960 C.3    58  LEU58       0.0001
     23  N         21.6610   22.9590  119.4530 N.am   59  GLY59      -0.1957
     24  CA        20.4670   23.6140  118.9520 C.3    59  GLY59       0.1869
     25  C         19.3120   23.5570  119.9320 C.2    59  GLY59       0.2309
     26  O         18.6010   24.5460  120.1220 O.2    59  GLY59      -0.2863
     27  N         19.5740   23.5270  123.0620 N.3    61  ALA61      -0.1231
     28  CA        19.8840   24.5740  124.0310 C.3    61  ALA61       0.1694
     29  C         19.5180   25.9510  123.4890 C.2    61  ALA61       0.2592
     30  O         18.8040   26.7180  124.1440 O.2    61  ALA61      -0.2718
     31  CB        21.3630   24.5180  124.4090 C.3    61  ALA61       0.0304
     32  N         19.9870   26.2740  122.2790 N.am   62  GLY62      -0.1957
     33  CA        19.7890   27.6070  121.7330 C.3    62  GLY62       0.1869
     34  C         18.3430   27.9710  121.4630 C.2    62  GLY62       0.2309
     35  O         17.9860   29.1530  121.4990 O.2    62  GLY62      -0.2863
     36  N         16.4270   27.1790  125.7930 N.3    65  ILE65      -0.1231
     37  CA        16.8680   27.9820  126.9310 C.3    65  ILE65       0.1678
     38  C         16.5450   29.4580  126.7020 C.2    65  ILE65       0.2434
     39  O         15.8890   30.0660  127.5590 O.2    65  ILE65      -0.2733
     40  CB        18.3610   27.7620  127.2260 C.3    65  ILE65       0.0265
     41  CG1       18.6490   26.2850  127.5060 C.3    65  ILE65       0.0019
     42  CG2       18.7940   28.6150  128.4120 C.3    65  ILE65       0.0020
     43  CD1       18.0540   25.7800  128.8020 C.3    65  ILE65       0.0001
     44  N         16.9610   30.0860  125.5910 N.am   66  PRO66      -0.2729
     45  CA        16.6270   31.5110  125.4230 C.3    66  PRO66       0.1401
     46  C         15.1410   31.7720  125.2590 C.2    66  PRO66       0.2269
     47  O         14.6510   32.7960  125.7460 O.2    66  PRO66      -0.2865
     48  CB        17.4170   31.9110  124.1690 C.3    66  PRO66       0.0296
     49  CG        18.5030   30.9080  124.0720 C.3    66  PRO66       0.0237
     50  CD        17.8680   29.6350  124.5220 C.3    66  PRO66       0.0939
     51  N         15.3870   37.8010  129.6770 N.3    75  LEU75      -0.1245
     52  CA        16.0770   38.1830  128.4550 C.3    75  LEU75       0.1561
     53  C         15.1050   38.7820  127.4460 C.2    75  LEU75       0.2260
     54  O         13.8830   38.7260  127.6040 O.2    75  LEU75      -0.2867
     55  CB        16.8070   36.9840  127.8350 C.3    75  LEU75       0.0270
     56  CG        18.1660   36.6360  128.4450 C.3    75  LEU75       0.0019
     57  CD1       18.6980   35.3310  127.8700 C.3    75  LEU75       0.0001
     58  CD2       19.1550   37.7690  128.2120 C.3    75  LEU75       0.0001
     59  N         15.7720   38.0400  124.0320 N.3    77  THR77      -0.1204
     60  CA        16.2060   37.3700  122.8140 C.3    77  THR77       0.1979
     61  C         15.0110   37.0520  121.9180 C.2    77  THR77       0.2459
     62  O         13.9750   36.5800  122.4010 O.2    77  THR77      -0.2732
     63  CB        16.9680   36.0850  123.1470 C.3    77  THR77       0.1783
     64  OG1       16.1240   35.2060  123.9010 O.3    77  THR77      -0.2211
     65  CG2       18.2160   36.4000  123.9610 C.3    77  THR77       0.0376
     66  N         15.1180   37.3000  120.6140 N.am   78  PRO78      -0.2728
     67  CA        13.9850   37.0490  119.7120 C.3    78  PRO78       0.1401
     68  C         13.7530   35.5710  119.4340 C.2    78  PRO78       0.2269
     69  O         14.4720   34.7080  119.9500 O.2    78  PRO78      -0.2865
     70  CB        14.3890   37.7970  118.4360 C.3    78  PRO78       0.0296
     71  CG        15.8820   37.7820  118.4610 C.3    78  PRO78       0.0237
     72  CD        16.2690   37.8930  119.9120 C.3    78  PRO78       0.0939
     73  N         15.4520   34.4430  113.8330 N.3    83  ALA83      -0.1231
     74  CA        16.7310   35.0590  114.1680 C.3    83  ALA83       0.1694
     75  C         17.6230   35.2650  112.9480 C.2    83  ALA83       0.2592
     76  O         18.5640   36.0630  113.0160 O.2    83  ALA83      -0.2718
     77  CB        17.4670   34.2180  115.2120 C.3    83  ALA83       0.0304
     78  N         17.3520   34.5690  111.8400 N.am   84  GLY84      -0.1957
     79  CA        18.1570   34.7550  110.6440 C.3    84  GLY84       0.1869
     80  C         17.8990   36.0730  109.9420 C.2    84  GLY84       0.2309
     81  O         18.8110   36.6490  109.3400 O.2    84  GLY84      -0.2863
     82  N         17.4010   38.9010  111.2750 N.3    86  GLN86      -0.1245
     83  CA        17.9030   40.0360  112.0330 C.3    86  GLN86       0.1566
     84  C         19.1250   40.6530  111.3590 C.2    86  GLN86       0.2260
     85  O         19.8230   40.0190  110.5630 O.2    86  GLN86      -0.2867
     86  CB        18.2570   39.6090  113.4570 C.3    86  GLN86       0.0367
     87  CG        17.0890   39.0320  114.2280 C.3    86  GLN86       0.0905
     88  CD        15.9010   39.9680  114.2540 C.2    86  GLN86       0.2608
     89  OE1       16.0490   41.1750  114.4560 O.2    86  GLN86      -0.2717
     90  NE2       14.7110   39.4180  114.0360 N.am   86  GLN86      -0.0878
     91  N         22.6840   42.0600  112.1270 N.3    88  TYR88      -0.1227
     92  CA        23.7910   42.0910  113.0620 C.3    88  TYR88       0.1736
     93  C         24.8310   43.0750  112.5340 C.2    88  TYR88       0.2595
     94  O         24.6070   43.7530  111.5270 O.2    88  TYR88      -0.2718
     95  CB        24.3280   40.6720  113.2570 C.3    88  TYR88       0.0548
     96  CG        23.2380   39.6990  113.6640 C.ar   88  TYR88      -0.0200
     97  CD1       22.9330   39.4880  115.0030 C.ar   88  TYR88      -0.0009
     98  CD2       22.4960   39.0150  112.7100 C.ar   88  TYR88      -0.0009
     99  CE1       21.9290   38.6120  115.3790 C.ar   88  TYR88       0.0417
    100  CE2       21.4900   38.1400  113.0770 C.ar   88  TYR88       0.0417
    101  CZ        21.2120   37.9400  114.4120 C.ar   88  TYR88       0.1957
    102  OH        20.2120   37.0700  114.7840 O.3    88  TYR88      -0.2866
    103  N         25.9850   43.1550  113.2060 N.am   89  PHE89      -0.1976
    104  CA        26.9720   44.1810  112.8740 C.3    89  PHE89       0.1639
    105  C         27.3920   44.1540  111.4110 C.2    89  PHE89       0.2290
    106  O         28.0220   45.1100  110.9470 O.2    89  PHE89      -0.2864
    107  CB        28.2080   44.0460  113.7680 C.3    89  PHE89       0.0560
    108  CG        29.0100   42.8060  113.5160 C.ar   89  PHE89      -0.0200
    109  CD1       30.0710   42.8160  112.6260 C.ar   89  PHE89      -0.0042
    110  CD2       28.7100   41.6310  114.1770 C.ar   89  PHE89      -0.0042
    111  CE1       30.8070   41.6800  112.3970 C.ar   89  PHE89      -0.0003
    112  CE2       29.4450   40.4920  113.9490 C.ar   89  PHE89      -0.0003
    113  CZ        30.4960   40.5150  113.0590 C.ar   89  PHE89      -0.0000
@<TRIPOS>BOND
     1    81    80    2
     2    80    79    1
     3    85    84    2
     4    79    78    1
     5   106   105    2
     6    82    83    1
     7    84    83    1
     8   105   104    1
     9    94    93    2
    10    78    75   am
    11    83    86    1
    12    91    92    1
    13   111   109   ar
    14   111   113   ar
    15    93    92    1
    16    93   103   am
    17   109   108   ar
    18    98   100   ar
    19    98    96   ar
    20   104   103    1
    21   104   107    1
    22    75    76    2
    23    75    74    1
    24   113   112   ar
    25    92    95    1
    26   100   101   ar
    27    95    96    1
    28     9     7   ar
    29     9    10   ar
    30    86    87    1
    31   108   107    1
    32   108   110   ar
    33     7     6   ar
    34    96    97   ar
    35    73    74    1
    36    12    10   ar
    37    12    14   ar
    38    10     8   ar
    39   112   110   ar
    40    90    88   am
    41    74    77    1
    42    87    88    1
    43    88    89    2
    44   101   102    1
    45   101    99   ar
    46     6     8   ar
    47     6     5    1
    48    14    13   ar
    49     8    11   ar
    50    97    99   ar
    51     5     2    1
    52    13    11   ar
    53     2     3    1
    54     2     1    1
    55     3     4    2
    56    70    71    1
    57    70    67    1
    58    71    72    1
    59    24    23    1
    60    24    25    1
    61    68    67    1
    62    68    69    2
    63    23    17   am
    64    21    20    1
    65    67    66    1
    66    72    66    1
    67    25    26    2
    68    19    20    1
    69    19    16    1
    70    17    16    1
    71    17    18    2
    72    20    22    1
    73    66    61   am
    74    15    16    1
    75    34    35    2
    76    34    33    1
    77    33    32    1
    78    61    62    2
    79    61    60    1
    80    32    29   am
    81    60    63    1
    82    60    59    1
    83    27    28    1
    84    63    64    1
    85    63    65    1
    86    29    28    1
    87    29    30    2
    88    28    31    1
    89    49    48    1
    90    49    50    1
    91    48    45    1
    92    50    44    1
    93    46    45    1
    94    46    47    2
    95    45    44    1
    96    44    38   am
    97    36    37    1
    98    38    37    1
    99    38    39    2
   100    37    40    1
   101    40    41    1
   102    40    42    1
   103    53    54    2
   104    53    52    1
   105    41    43    1
   106    55    56    1
   107    55    52    1
   108    57    56    1
   109    58    56    1
   110    52    51    1
