@<TRIPOS>MOLECULE
tmp/5l8rF35.pdb
 169 159 0 0 0
SMALL
GASTEIGER

@<TRIPOS>ATOM
      1  N         13.2730  -18.1640   26.4350 N.3     4  PHE4       -0.1241
      2  CA        13.5090  -16.8560   27.0390 C.3     4  PHE4        0.1605
      3  C         13.8100  -16.9780   28.5240 C.2     4  PHE4        0.2264
      4  O         13.0780  -17.6450   29.2530 O.2     4  PHE4       -0.2867
      5  CB        12.2980  -15.9430   26.8280 C.3     4  PHE4        0.0534
      6  CG        12.4260  -14.5990   27.4940 C.ar    4  PHE4       -0.0203
      7  CD1       13.1040  -13.5620   26.8700 C.ar    4  PHE4       -0.0042
      8  CD2       11.8580  -14.3660   28.7370 C.ar    4  PHE4       -0.0042
      9  CE1       13.2250  -12.3250   27.4790 C.ar    4  PHE4       -0.0003
     10  CE2       11.9760  -13.1290   29.3510 C.ar    4  PHE4       -0.0003
     11  CZ        12.6600  -12.1090   28.7200 C.ar    4  PHE4       -0.0000
     12  N         17.0690  -16.1530   26.1750 N.3     6  ARG6       -0.1231
     13  CA        18.0410  -16.9580   25.4440 C.3     6  ARG6        0.1694
     14  C         19.4740  -16.6800   25.8720 C.2     6  ARG6        0.2592
     15  O         20.3550  -17.5050   25.6090 O.2     6  ARG6       -0.2718
     16  CB        17.8960  -16.7230   23.9410 C.3     6  ARG6        0.0321
     17  CG        16.5460  -17.1300   23.3850 C.3     6  ARG6        0.0489
     18  CD        16.2770  -18.6100   23.6060 C.3     6  ARG6        0.2205
     19  NE        17.1440  -19.4560   22.7930 N.pl3   6  ARG6       -0.0865
     20  CZ        16.8990  -19.7690   21.5260 C.cat   6  ARG6        0.5346
     21  NH1       15.8130  -19.3000   20.9260 N.pl3   6  ARG6        0.1354
     22  NH2       17.7390  -20.5470   20.8560 N.pl3   6  ARG6        0.1354
     23  N         19.7290  -15.5510   26.5270 N.am    7  PHE7       -0.1976
     24  CA        21.0740  -15.1990   26.9570 C.3     7  PHE7        0.1639
     25  C         21.4420  -15.7830   28.3140 C.2     7  PHE7        0.2290
     26  O         22.5890  -15.6260   28.7460 O.2     7  PHE7       -0.2864
     27  CB        21.2410  -13.6740   26.9870 C.3     7  PHE7        0.0560
     28  CG        20.1500  -12.9460   27.7270 C.ar    7  PHE7       -0.0200
     29  CD1       20.1880  -12.8230   29.1110 C.ar    7  PHE7       -0.0042
     30  CD2       19.1020  -12.3580   27.0340 C.ar    7  PHE7       -0.0042
     31  CE1       19.1930  -12.1370   29.7930 C.ar    7  PHE7       -0.0003
     32  CE2       18.1010  -11.6730   27.7090 C.ar    7  PHE7       -0.0003
     33  CZ        18.1500  -11.5600   29.0920 C.ar    7  PHE7       -0.0000
     34  N         20.1490   -6.0960   29.6320 N.3    28  HIS28      -0.1241
     35  CA        21.2000   -5.1760   29.2190 C.3    28  HIS28       0.1621
     36  C         22.5170   -5.3960   29.9450 C.2    28  HIS28       0.2264
     37  O         23.5140   -4.7640   29.5810 O.2    28  HIS28      -0.2867
     38  CB        20.7560   -3.7290   29.4320 C.3    28  HIS28       0.0745
     39  CG        19.5670   -3.3350   28.6190 C.ar   28  HIS28       0.0817
     40  ND1       18.8970   -2.1450   28.8130 N.ar   28  HIS28      -0.2268
     41  CD2       18.9280   -3.9680   27.6080 C.ar   28  HIS28       0.1154
     42  CE1       17.8950   -2.0630   27.9570 C.ar   28  HIS28       0.1986
     43  NE2       17.8910   -3.1570   27.2160 N.ar   28  HIS28      -0.2212
     44  N         25.2100   -7.1460   29.7930 N.3    30  PHE30      -0.1241
     45  CA        25.8110   -8.0450   28.8110 C.3    30  PHE30       0.1605
     46  C         26.8880   -8.9250   29.4310 C.2    30  PHE30       0.2264
     47  O         27.0290  -10.0960   29.0590 O.2    30  PHE30      -0.2867
     48  CB        26.3880   -7.2340   27.6520 C.3    30  PHE30       0.0534
     49  CG        25.3640   -6.4270   26.9090 C.ar   30  PHE30      -0.0203
     50  CD1       24.0980   -6.9380   26.6730 C.ar   30  PHE30      -0.0042
     51  CD2       25.6650   -5.1530   26.4540 C.ar   30  PHE30      -0.0042
     52  CE1       23.1520   -6.1950   25.9910 C.ar   30  PHE30      -0.0003
     53  CE2       24.7210   -4.4000   25.7680 C.ar   30  PHE30      -0.0003
     54  CZ        23.4650   -4.9220   25.5350 C.ar   30  PHE30      -0.0000
     55  N         25.7390  -12.3390   30.5200 N.3    33  HIS33      -0.1226
     56  CA        25.0790  -13.2280   29.5760 C.3    33  HIS33       0.1752
     57  C         25.9560  -14.4370   29.2510 C.2    33  HIS33       0.2596
     58  O         27.1840  -14.4040   29.3720 O.2    33  HIS33      -0.2718
     59  CB        24.7230  -12.4780   28.2940 C.3    33  HIS33       0.0759
     60  CG        23.6300  -11.4720   28.4700 C.ar   33  HIS33       0.0818
     61  ND1       23.1560  -10.6970   27.4330 N.ar   33  HIS33      -0.2268
     62  CD2       22.9130  -11.1180   29.5620 C.ar   33  HIS33       0.1154
     63  CE1       22.1940   -9.9100   27.8790 C.ar   33  HIS33       0.1986
     64  NE2       22.0270  -10.1460   29.1670 N.ar   33  HIS33      -0.2212
     65  N         25.3020  -15.5190   28.8340 N.am   34  ASP34      -0.1960
     66  CA        26.0180  -16.7480   28.5210 C.3    34  ASP34       0.1840
     67  C         26.9220  -16.5510   27.3140 C.2    34  ASP34       0.2622
     68  O         26.5390  -15.9110   26.3310 O.2    34  ASP34      -0.2715
     69  CB        25.0400  -17.8880   28.2500 C.3    34  ASP34       0.1450
     70  CG        24.1060  -18.1400   29.4080 C.2    34  ASP34       0.3671
     71  OD1       24.3400  -17.5730   30.4980 O.co2  34  ASP34      -0.2456
     72  OD2       23.1370  -18.9050   29.2250 O.co2  34  ASP34      -0.2456
     73  N         28.1360  -17.1000   27.4060 N.am   35  ASP35      -0.1957
     74  CA        29.1060  -17.1060   26.3090 C.3    35  ASP35       0.1840
     75  C         29.5540  -15.6990   25.9240 C.2    35  ASP35       0.2621
     76  O         29.9660  -15.4590   24.7870 O.2    35  ASP35      -0.2715
     77  CB        28.5530  -17.8430   25.0860 C.3    35  ASP35       0.1450
     78  CG        28.0490  -19.2280   25.4260 C.2    35  ASP35       0.3671
     79  OD1       28.6160  -19.8600   26.3450 O.co2  35  ASP35      -0.2456
     80  OD2       27.0820  -19.6830   24.7790 O.co2  35  ASP35      -0.2456
     81  N         29.4900  -14.7570   26.8630 N.am   36  ILE36      -0.1977
     82  CA        29.8980  -13.3920   26.5640 C.3    36  ILE36       0.1596
     83  C         31.4020  -13.3470   26.3300 C.2    36  ILE36       0.2287
     84  O         32.1770  -14.0740   26.9660 O.2    36  ILE36      -0.2864
     85  CB        29.4760  -12.4400   27.6990 C.3    36  ILE36       0.0276
     86  CG1       29.6570  -10.9820   27.2730 C.3    36  ILE36       0.0022
     87  CG2       30.2620  -12.7230   28.9690 C.3    36  ILE36       0.0022
     88  CD1       28.8000  -10.5840   26.0950 C.3    36  ILE36       0.0001
     89  N         32.0960   -9.2430   21.8240 N.3    40  ARG40      -0.1245
     90  CA        30.6380   -9.1660   21.8460 C.3    40  ARG40       0.1563
     91  C         30.1610   -8.0600   22.7780 C.2    40  ARG40       0.2260
     92  O         29.2230   -7.3260   22.4480 O.2    40  ARG40      -0.2867
     93  CB        30.0430  -10.5090   22.2670 C.3    40  ARG40       0.0307
     94  CG        29.9830  -11.5330   21.1550 C.3    40  ARG40       0.0489
     95  CD        29.6510  -12.9090   21.6970 C.3    40  ARG40       0.2205
     96  NE        29.7340  -13.9270   20.6560 N.pl3  40  ARG40      -0.0865
     97  CZ        30.8730  -14.4560   20.2190 C.cat  40  ARG40       0.5346
     98  NH1       32.0310  -14.0590   20.7310 N.pl3  40  ARG40       0.1354
     99  NH2       30.8570  -15.3780   19.2640 N.pl3  40  ARG40       0.1354
    100  N         27.9540   -5.0540   21.2110 N.3    44  ASN44      -0.1240
    101  CA        26.5810   -4.8590   21.6640 C.3    44  ASN44       0.1653
    102  C         26.3900   -3.4690   22.2550 C.2    44  ASN44       0.2266
    103  O         25.3520   -2.8300   22.0350 O.2    44  ASN44      -0.2867
    104  CB        26.2030   -5.9270   22.6890 C.3    44  ASN44       0.1155
    105  CG        26.2180   -7.3240   22.1070 C.2    44  ASN44       0.2627
    106  OD1       26.5360   -8.2860   22.8010 O.2    44  ASN44      -0.2716
    107  ND2       25.8830   -7.4430   20.8240 N.am   44  ASN44      -0.0877
    108  N         26.3500   -0.8680   19.2190 N.3    47  ALA47      -0.1231
    109  CA        25.0600   -0.9000   18.5400 C.3    47  ALA47       0.1694
    110  C         23.9630   -0.3080   19.4130 C.2    47  ALA47       0.2592
    111  O         23.0970    0.4280   18.9220 O.2    47  ALA47      -0.2718
    112  CB        24.7110   -2.3310   18.1460 C.3    47  ALA47       0.0304
    113  N         23.9830   -0.6160   20.7120 N.am   48  SER48      -0.1952
    114  CA        23.0050   -0.0260   21.6180 C.3    48  SER48       0.1924
    115  C         23.1030    1.4930   21.6270 C.2    48  SER48       0.2314
    116  O         22.0850    2.1790   21.7710 O.2    48  SER48      -0.2863
    117  CB        23.1940   -0.5800   23.0280 C.3    48  SER48       0.2116
    118  OG        23.0880   -1.9910   23.0340 O.3    48  SER48      -0.2180
    119  N         21.2760    2.6860   18.6870 N.3    51  GLY51      -0.1225
    120  CA        19.8490    2.5780   18.9530 C.3    51  GLY51       0.1811
    121  C         19.3340    3.7000   19.8340 C.2    51  GLY51       0.2280
    122  O         18.2600    4.2620   19.5850 O.2    51  GLY51      -0.2866
    123  N         19.1040    6.8540   17.7670 N.3    54  ALA54      -0.1231
    124  CA        17.9010    6.7850   16.9440 C.3    54  ALA54       0.1694
    125  C         16.6570    7.1240   17.7560 C.2    54  ALA54       0.2591
    126  O         15.7780    7.8530   17.2780 O.2    54  ALA54      -0.2718
    127  CB        17.7700    5.3960   16.3190 C.3    54  ALA54       0.0304
    128  N         16.5650    6.6030   18.9850 N.am   55  ILE55      -0.1980
    129  CA        15.4250    6.9300   19.8410 C.3    55  ILE55       0.1595
    130  C         15.3570    8.4320   20.0860 C.2    55  ILE55       0.2287
    131  O         14.2790    9.0390   20.0290 O.2    55  ILE55      -0.2864
    132  CB        15.5010    6.1520   21.1680 C.3    55  ILE55       0.0276
    133  CG1       15.4300    4.6410   20.9280 C.3    55  ILE55       0.0022
    134  CG2       14.3840    6.6040   22.1060 C.3    55  ILE55       0.0022
    135  CD1       14.0430    4.1360   20.6380 C.3    55  ILE55       0.0001
    136  N         14.2260   10.2830   16.9170 N.3    58  LEU58      -0.1245
    137  CA        12.8100   10.0220   16.6740 C.3    58  LEU58       0.1561
    138  C         11.9320   10.7890   17.6580 C.2    58  LEU58       0.2260
    139  O         10.8590   11.2890   17.2960 O.2    58  LEU58      -0.2867
    140  CB        12.5450    8.5190   16.7620 C.3    58  LEU58       0.0270
    141  CG        11.1000    8.0520   16.6010 C.3    58  LEU58       0.0019
    142  CD1       10.5660    8.3990   15.2200 C.3    58  LEU58       0.0001
    143  CD2       10.9920    6.5640   16.8610 C.3    58  LEU58       0.0001
    144  N         17.4210    9.4550   12.6680 N.3   145  SER145     -0.1217
    145  CA        17.0920    8.2420   13.4080 C.3   145  SER145      0.1889
    146  C         17.2920    7.0130   12.5330 C.2   145  SER145      0.2288
    147  O         17.9240    6.0270   12.9460 O.2   145  SER145     -0.2866
    148  CB        15.6520    8.3210   13.9160 C.3   145  SER145      0.2089
    149  OG        15.3030    7.1720   14.6660 O.3   145  SER145     -0.2183
    150  N         19.8890    3.7580   13.1150 N.3   149  LEU149     -0.1245
    151  CA        19.5880    2.3350   12.9920 C.3   149  LEU149      0.1561
    152  C         20.4750    1.6790   11.9410 C.2   149  LEU149      0.2260
    153  O         20.9390    0.5470   12.1230 O.2   149  LEU149     -0.2867
    154  CB        18.1120    2.1380   12.6460 C.3   149  LEU149      0.0270
    155  CG        17.1150    2.5800   13.7160 C.3   149  LEU149      0.0019
    156  CD1       15.6980    2.2550   13.2820 C.3   149  LEU149      0.0001
    157  CD2       17.4350    1.9140   15.0330 C.3   149  LEU149      0.0001
    158  N         24.1400    1.2930   13.3620 N.3   152  GLY152     -0.1225
    159  CA        24.1450    0.2770   14.4020 C.3   152  GLY152      0.1811
    160  C         23.9890   -1.1210   13.8410 C.2   152  GLY152      0.2280
    161  O         24.6890   -2.0490   14.2530 O.2   152  GLY152     -0.2866
    162  N         27.3770   -4.4190   13.2810 N.3   156  LEU156     -0.1245
    163  CA        27.2090   -5.7350   13.8690 C.3   156  LEU156      0.1561
    164  C         27.5410   -6.8620   12.8980 C.2   156  LEU156      0.2260
    165  O         27.6010   -8.0220   13.3190 O.2   156  LEU156     -0.2867
    166  CB        25.7800   -5.8960   14.3970 C.3   156  LEU156      0.0270
    167  CG        25.6450   -5.7320   15.9110 C.3   156  LEU156      0.0019
    168  CD1       26.6470   -4.7180   16.4320 C.3   156  LEU156      0.0001
    169  CD2       24.2260   -5.3270   16.2780 C.3   156  LEU156      0.0001
@<TRIPOS>BOND
     1   152   153    2
     2   152   151    1
     3   146   147    2
     4   146   145    1
     5   154   151    1
     6   154   155    1
     7   144   145    1
     8   164   165    2
     9   164   163    1
    10   151   150    1
    11   162   163    1
    12   156   155    1
    13   158   159    1
    14   145   148    1
    15   155   157    1
    16   160   161    2
    17   160   159    1
    18   163   166    1
    19   148   149    1
    20   166   167    1
    21   142   141    1
    22   167   169    1
    23   167   168    1
    24   127   124    1
    25   141   140    1
    26   141   143    1
    27   137   140    1
    28   137   136    1
    29   137   138    1
    30   124   125    1
    31   124   123    1
    32   126   125    2
    33   139   138    2
    34   125   128   am
    35   112   109    1
    36   109   108    1
    37   109   110    1
    38   119   120    1
    39   111   110    2
    40   120   121    1
    41   128   129    1
    42    99    97    1
    43   110   113   am
    44   122   121    2
    45   129   130    1
    46   129   132    1
    47   131   130    2
    48    97    96    2
    49    97    98    1
    50   135   133    1
    51    96    95    1
    52   113   114    1
    53   107   105   am
    54    22    20    1
    55    21    20    1
    56   133   132    1
    57    94    95    1
    58    94    93    1
    59   132   134    1
    60   100   101    1
    61    20    19    2
    62   114   115    1
    63   114   117    1
    64   115   116    2
    65   101   102    1
    66   101   104    1
    67    89    90    1
    68    90    93    1
    69    90    91    1
    70   103   102    2
    71   105   104    1
    72   105   106    2
    73    92    91    2
    74    19    18    1
    75   117   118    1
    76    17    18    1
    77    17    16    1
    78    16    13    1
    79    80    78   ar
    80    76    75    2
    81    77    78    1
    82    77    74    1
    83    78    79   ar
    84    13    14    1
    85    13    12    1
    86    54    53   ar
    87    54    52   ar
    88    15    14    2
    89    53    51   ar
    90    14    23   am
    91    75    74    1
    92    75    81   am
    93    52    50   ar
    94    88    86    1
    95    74    73    1
    96    83    82    1
    97    83    84    2
    98    68    67    2
    99     1     2    1
   100    51    49   ar
   101    23    24    1
   102    82    81    1
   103    82    85    1
   104    50    49   ar
   105     5     2    1
   106     5     6    1
   107     7     9   ar
   108     7     6   ar
   109    49    48    1
   110    24    27    1
   111    24    25    1
   112    27    28    1
   113    30    32   ar
   114    30    28   ar
   115     2     3    1
   116    43    41   ar
   117    43    42   ar
   118    86    85    1
   119    67    73   am
   120    67    66    1
   121    61    63   ar
   122    61    60   ar
   123     9    11   ar
   124     6     8   ar
   125    41    39   ar
   126    48    45    1
   127    85    87    1
   128    32    33   ar
   129    28    29   ar
   130    63    64   ar
   131    42    40   ar
   132    69    66    1
   133    69    70    1
   134    59    60    1
   135    59    56    1
   136    25    26    2
   137    60    62   ar
   138    66    65    1
   139     3     4    2
   140    39    40   ar
   141    39    38    1
   142    11    10   ar
   143     8    10   ar
   144    45    46    1
   145    45    44    1
   146    65    57   am
   147    47    46    2
   148    33    31   ar
   149    29    31   ar
   150    64    62   ar
   151    35    38    1
   152    35    34    1
   153    35    36    1
   154    72    70   ar
   155    57    58    2
   156    57    56    1
   157    70    71   ar
   158    56    55    1
   159    37    36    2
