@<TRIPOS>MOLECULE
tmp/5l8rD14.pdb
 114 115 0 0 0
SMALL
GASTEIGER

@<TRIPOS>ATOM
      1  N         49.7760   19.1840  100.9350 N.3     5  TRP5       -0.1227
      2  CA        48.7480   20.1870  100.6910 C.3     5  TRP5        0.1737
      3  C         47.4080   19.7400  101.2650 C.2     5  TRP5        0.2595
      4  O         46.6430   20.5530  101.7810 O.2     5  TRP5       -0.2718
      5  CB        48.6380   20.4740   99.1970 C.3     5  TRP5        0.0564
      6  CG        48.0240   19.3670   98.4350 C.ar    5  TRP5        0.0003
      7  CD1       48.6600   18.2870   97.9030 C.ar    5  TRP5        0.0946
      8  CD2       46.6370   19.2170   98.1210 C.ar    5  TRP5        0.0152
      9  NE1       47.7520   17.4730   97.2670 N.ar    5  TRP5       -0.2442
     10  CE2       46.5020   18.0230   97.3890 C.ar    5  TRP5        0.0810
     11  CE3       45.4940   19.9790   98.3850 C.ar    5  TRP5        0.0012
     12  CZ2       45.2720   17.5740   96.9160 C.ar    5  TRP5        0.0191
     13  CZ3       44.2720   19.5300   97.9160 C.ar    5  TRP5        0.0001
     14  CH2       44.1710   18.3380   97.1920 C.ar    5  TRP5        0.0015
     15  N         47.1070   18.4560  101.2060 N.am    6  LEU6       -0.1980
     16  CA        45.9770   17.9310  101.9670 C.3     6  LEU6        0.1596
     17  C         46.5380   16.9470  102.9790 C.2     6  LEU6        0.2287
     18  O         47.0670   15.8920  102.5820 O.2     6  LEU6       -0.2864
     19  CB        44.9350   17.2700  101.0650 C.3     6  LEU6        0.0297
     20  CG        43.5530   17.1040  101.7100 C.3     6  LEU6        0.0022
     21  CD1       42.9680   18.4530  102.0880 C.3     6  LEU6        0.0001
     22  CD2       42.6000   16.3520  100.7990 C.3     6  LEU6        0.0001
     23  N         45.4710   13.2400  102.7180 N.3     9  LEU9       -0.1231
     24  CA        45.6670   12.6620  101.3970 C.3     9  LEU9        0.1693
     25  C         47.1250   12.2870  101.1590 C.2     9  LEU9        0.2592
     26  O         48.0460   13.0080  101.5520 O.2     9  LEU9       -0.2718
     27  CB        45.1970   13.6510  100.3330 C.3     9  LEU9        0.0284
     28  CG        45.4370   13.2960   98.8720 C.3     9  LEU9        0.0019
     29  CD1       44.8080   11.9590   98.5430 C.3     9  LEU9        0.0001
     30  CD2       44.8540   14.3820   98.0070 C.3     9  LEU9        0.0001
     31  N         47.3280   11.1480  100.5020 N.am   10  ALA10      -0.1966
     32  CA        48.6610   10.6790  100.1680 C.3    10  ALA10       0.1728
     33  C         49.1890   11.4010   98.9330 C.2    10  ALA10       0.2617
     34  O         48.4430   12.0260   98.1750 O.2    10  ALA10      -0.2715
     35  CB        48.6580    9.1710   99.9250 C.3    10  ALA10       0.0334
     36  N         50.4940   11.3070   98.7400 N.am   11  SER11      -0.1936
     37  CA        51.1080   11.9380   97.5870 C.3    11  SER11       0.2040
     38  C         50.9660   11.0490   96.3570 C.2    11  SER11       0.2485
     39  O         50.9550    9.8210   96.4700 O.2    11  SER11      -0.2729
     40  CB        52.5850   12.2110   97.8480 C.3    11  SER11       0.2129
     41  OG        53.2200   12.7110   96.6820 O.3    11  SER11      -0.2179
     42  N         50.8310   11.6460   95.1730 N.am   12  PRO12      -0.2715
     43  CA        50.9840   10.8630   93.9430 C.3    12  PRO12       0.1536
     44  C         52.3680   10.2360   93.9010 C.2    12  PRO12       0.2599
     45  O         53.3590   10.8450   94.3110 O.2    12  PRO12      -0.2715
     46  CB        50.7980   11.9010   92.8320 C.3    12  PRO12       0.0310
     47  CG        50.0010   12.9890   93.4660 C.3    12  PRO12       0.0237
     48  CD        50.4540   13.0430   94.8960 C.3    12  PRO12       0.0939
     49  N         52.4280    8.9950   93.4230 N.am   13  GLY13      -0.1941
     50  CA        53.6940    8.2850   93.4130 C.3    13  GLY13       0.2014
     51  C         54.7580    8.9690   92.5800 C.2    13  GLY13       0.2638
     52  O         55.9470    8.8940   92.9040 O.2    13  GLY13      -0.2714
     53  N         54.3520    9.6580   91.5110 N.am   14  TYR14      -0.1973
     54  CA        55.3060   10.2730   90.5980 C.3    14  TYR14       0.1639
     55  C         55.9360   11.5450   91.1510 C.2    14  TYR14       0.2290
     56  O         56.9010   12.0420   90.5580 O.2    14  TYR14      -0.2864
     57  CB        54.6390   10.5640   89.2510 C.3    14  TYR14       0.0560
     58  CG        53.3050   11.2750   89.3260 C.ar   14  TYR14      -0.0198
     59  CD1       53.2350   12.6550   89.4530 C.ar   14  TYR14      -0.0009
     60  CD2       52.1160   10.5670   89.2410 C.ar   14  TYR14      -0.0009
     61  CE1       52.0160   13.3080   89.5100 C.ar   14  TYR14       0.0417
     62  CE2       50.8950   11.2100   89.2930 C.ar   14  TYR14       0.0417
     63  CZ        50.8490   12.5780   89.4270 C.ar   14  TYR14       0.1957
     64  OH        49.6280   13.2120   89.4790 O.3    14  TYR14      -0.2866
     65  N         50.9650   17.8220   95.1900 N.3    25  PHE25      -0.1227
     66  CA        49.7610   18.4590   94.6650 C.3    25  PHE25       0.1736
     67  C         49.7240   18.3130   93.1460 C.2    25  PHE25       0.2595
     68  O         50.3810   19.0670   92.4220 O.2    25  PHE25      -0.2718
     69  CB        49.7110   19.9230   95.0950 C.3    25  PHE25       0.0547
     70  CG        48.5210   20.6700   94.5740 C.ar   25  PHE25      -0.0202
     71  CD1       47.2460   20.3710   95.0260 C.ar   25  PHE25      -0.0042
     72  CD2       48.6760   21.6760   93.6390 C.ar   25  PHE25      -0.0042
     73  CE1       46.1460   21.0570   94.5470 C.ar   25  PHE25      -0.0003
     74  CE2       47.5800   22.3650   93.1590 C.ar   25  PHE25      -0.0003
     75  CZ        46.3140   22.0540   93.6130 C.ar   25  PHE25      -0.0000
     76  N         48.9510   17.3340   92.6720 N.am   26  ASP26      -0.1960
     77  CA        48.6180   17.1780   91.2600 C.3    26  ASP26       0.1825
     78  C         47.3090   16.4030   91.1480 C.2    26  ASP26       0.2464
     79  O         47.2840   15.3060   90.5750 O.2    26  ASP26      -0.2730
     80  CB        49.7450   16.4690   90.5060 C.3    26  ASP26       0.1450
     81  CG        49.5670   16.5220   89.0010 C.2    26  ASP26       0.3671
     82  OD1       48.8850   17.4500   88.5100 O.co2  26  ASP26      -0.2456
     83  OD2       50.1130   15.6350   88.3100 O.co2  26  ASP26      -0.2456
     84  N         46.2030   16.9410   91.6730 N.am   27  PRO27      -0.2715
     85  CA        44.9640   16.1470   91.7520 C.3    27  PRO27       0.1536
     86  C         44.3920   15.7470   90.4050 C.2    27  PRO27       0.2598
     87  O         43.6490   14.7620   90.3390 O.2    27  PRO27      -0.2715
     88  CB        44.0000   17.0720   92.5090 C.3    27  PRO27       0.0310
     89  CG        44.8740   18.0680   93.1980 C.3    27  PRO27       0.0237
     90  CD        46.0370   18.2710   92.2830 C.3    27  PRO27       0.0939
     91  N         44.6940   16.4730   89.3320 N.am   28  LEU28      -0.1978
     92  CA        44.1880   16.1280   88.0110 C.3    28  LEU28       0.1596
     93  C         45.2090   15.3480   87.1900 C.2    28  LEU28       0.2287
     94  O         45.0190   15.1720   85.9810 O.2    28  LEU28      -0.2864
     95  CB        43.7440   17.3950   87.2730 C.3    28  LEU28       0.0297
     96  CG        42.8520   18.3230   88.1110 C.3    28  LEU28       0.0022
     97  CD1       42.4350   19.5580   87.3290 C.3    28  LEU28       0.0001
     98  CD2       41.6280   17.5870   88.6430 C.3    28  LEU28       0.0001
     99  N         49.0200   33.7350   92.1520 N.3   162  LEU162     -0.1245
    100  CA        47.7380   33.9910   92.8020 C.3   162  LEU162      0.1561
    101  C         47.4860   35.4850   92.9450 C.2   162  LEU162      0.2260
    102  O         46.3770   35.9660   92.6770 O.2   162  LEU162     -0.2867
    103  CB        47.6950   33.3150   94.1690 C.3   162  LEU162      0.0270
    104  CG        47.6480   31.7950   94.1150 C.3   162  LEU162      0.0019
    105  CD1       47.2130   31.2440   95.4550 C.3   162  LEU162      0.0001
    106  CD2       46.6980   31.3570   93.0140 C.3   162  LEU162      0.0001
    107  N         46.3610   36.9980   89.6170 N.3   165  LEU165     -0.1245
    108  CA        44.9620   36.6330   89.4090 C.3   165  LEU165      0.1561
    109  C         44.0360   37.5400   90.2160 C.2   165  LEU165      0.2260
    110  O         43.0430   38.0750   89.6950 O.2   165  LEU165     -0.2867
    111  CB        44.7540   35.1660   89.7870 C.3   165  LEU165      0.0270
    112  CG        43.3530   34.5700   89.6480 C.3   165  LEU165      0.0019
    113  CD1       42.8750   34.6180   88.2080 C.3   165  LEU165      0.0001
    114  CD2       43.3500   33.1410   90.1630 C.3   165  LEU165      0.0001
@<TRIPOS>BOND
     1    94    93    2
     2    93    92    1
     3    95    92    1
     4    95    96    1
     5    97    96    1
     6    92    91    1
     7    96    98    1
     8   113   112    1
     9    83    81   ar
    10    82    81   ar
    11    81    80    1
    12    60    62   ar
    13    60    58   ar
    14    57    58    1
    15    57    54    1
    16    62    63   ar
    17    58    59   ar
    18    91    86   am
    19   108   107    1
    20   108   111    1
    21   108   109    1
    22    63    64    1
    23    63    61   ar
    24    59    61   ar
    25   112   111    1
    26   112   114    1
    27   110   109    2
    28    87    86    2
    29    86    85    1
    30    80    77    1
    31    56    55    2
    32    79    78    2
    33    54    55    1
    34    54    53    1
    35    78    77    1
    36    78    84   am
    37    77    76    1
    38    53    51   am
    39    84    85    1
    40    84    90    1
    41    85    88    1
    42    99   100    1
    43    90    89    1
    44    68    67    2
    45    88    89    1
    46    51    52    2
    47    51    50    1
    48    76    67   am
    49   102   101    2
    50   100   101    1
    51   100   103    1
    52    46    47    1
    53    46    43    1
    54   106   104    1
    55    67    66    1
    56    74    75   ar
    57    74    72   ar
    58    50    49    1
    59    49    44   am
    60    47    48    1
    61    75    73   ar
    62    72    70   ar
    63    44    43    1
    64    44    45    2
    65    43    42    1
    66   104   103    1
    67   104   105    1
    68    73    71   ar
    69    70    71   ar
    70    70    69    1
    71    66    69    1
    72    66    65    1
    73    48    42    1
    74    42    38   am
    75    38    39    2
    76    38    37    1
    77    41    40    1
    78    12    14   ar
    79    12    10   ar
    80    14    13   ar
    81     9    10   ar
    82     9     7   ar
    83    10     8   ar
    84    37    40    1
    85    37    36    1
    86     7     6   ar
    87    13    11   ar
    88    30    28    1
    89     8    11   ar
    90     8     6   ar
    91    34    33    2
    92     6     5    1
    93    29    28    1
    94    36    33   am
    95    28    27    1
    96    33    32    1
    97     5     2    1
    98    35    32    1
    99    32    31    1
   100    27    24    1
   101    31    25   am
   102     2     1    1
   103     2     3    1
   104    22    20    1
   105    19    20    1
   106    19    16    1
   107    25    24    1
   108    25    26    2
   109    15     3   am
   110    15    16    1
   111     3     4    2
   112    24    23    1
   113    20    21    1
   114    16    17    1
   115    18    17    2
