@<TRIPOS>MOLECULE
tmp/5l8rE54.pdb
 219 213 0 0 0
SMALL
GASTEIGER

@<TRIPOS>ATOM
      1  N          9.4690   -9.4810   80.5310 N.3    47  HIS47      -0.1226
      2  CA         8.1510   -9.9560   80.9250 C.3    47  HIS47       0.1752
      3  C          7.7960  -11.2940   80.3060 C.2    47  HIS47       0.2596
      4  O          6.6790  -11.7760   80.5120 O.2    47  HIS47      -0.2718
      5  CB         7.0790   -8.9360   80.5500 C.3    47  HIS47       0.0759
      6  CG         7.1560   -7.6650   81.3280 C.ar   47  HIS47       0.0818
      7  ND1        6.3680   -6.5700   81.0400 N.ar   47  HIS47      -0.2268
      8  CD2        7.9170   -7.3150   82.3900 C.ar   47  HIS47       0.1154
      9  CE1        6.6450   -5.5990   81.8910 C.ar   47  HIS47       0.1986
     10  NE2        7.5810   -6.0260   82.7190 N.ar   47  HIS47      -0.2212
     11  N          8.7040  -11.8990   79.5430 N.am   48  ASP48      -0.1960
     12  CA         8.4590  -13.2100   78.9410 C.3    48  ASP48       0.1840
     13  C          8.7610  -14.2810   79.9870 C.2    48  ASP48       0.2622
     14  O          9.8210  -14.9100   79.9980 O.2    48  ASP48      -0.2715
     15  CB         9.3040  -13.3830   77.6870 C.3    48  ASP48       0.1450
     16  CG         8.8620  -14.5540   76.8490 C.2    48  ASP48       0.3671
     17  OD1        7.7570  -15.0790   77.1040 O.co2  48  ASP48      -0.2456
     18  OD2        9.6160  -14.9410   75.9310 O.co2  48  ASP48      -0.2456
     19  N          7.7910  -14.4940   80.8830 N.am   49  PHE49      -0.1960
     20  CA         8.0240  -15.3460   82.0490 C.3    49  PHE49       0.1771
     21  C          8.2050  -16.8060   81.6540 C.2    49  PHE49       0.2619
     22  O          9.1310  -17.4750   82.1270 O.2    49  PHE49      -0.2715
     23  CB         6.8720  -15.2120   83.0430 C.3    49  PHE49       0.0574
     24  CG         6.7180  -13.8370   83.6120 C.ar   49  PHE49      -0.0200
     25  CD1        7.7810  -12.9510   83.6180 C.ar   49  PHE49      -0.0042
     26  CD2        5.5060  -13.4310   84.1490 C.ar   49  PHE49      -0.0042
     27  CE1        7.6330  -11.6700   84.1400 C.ar   49  PHE49      -0.0003
     28  CE2        5.3480  -12.1500   84.6690 C.ar   49  PHE49      -0.0003
     29  CZ         6.4140  -11.2720   84.6680 C.ar   49  PHE49      -0.0000
     30  N          7.3170  -17.3250   80.8010 N.am   50  ASP50      -0.1971
     31  CA         7.4030  -18.7230   80.3930 C.3    50  ASP50       0.1709
     32  C          8.6360  -19.0180   79.5530 C.2    50  ASP50       0.2293
     33  O          8.8670  -20.1840   79.2140 O.2    50  ASP50      -0.2864
     34  CB         6.1390  -19.1380   79.6370 C.3    50  ASP50       0.1436
     35  CG         5.9750  -18.4060   78.3300 C.2    50  ASP50       0.3671
     36  OD1        6.3380  -17.2160   78.2730 O.co2  50  ASP50      -0.2456
     37  OD2        5.4820  -19.0190   77.3600 O.co2  50  ASP50      -0.2456
     38  N          5.4370  -19.2250   87.0750 N.3    59  ILE59      -0.1245
     39  CA         4.9050  -18.3090   86.0660 C.3    59  ILE59       0.1561
     40  C          3.6100  -17.6750   86.5560 C.2    59  ILE59       0.2260
     41  O          3.4160  -16.4570   86.4560 O.2    59  ILE59      -0.2867
     42  CB         4.6920  -19.0450   84.7310 C.3    59  ILE59       0.0252
     43  CG1        6.0080  -19.6250   84.2200 C.3    59  ILE59       0.0019
     44  CG2        4.1010  -18.1110   83.6950 C.3    59  ILE59       0.0019
     45  CD1        5.8300  -20.5620   83.0510 C.3    59  ILE59       0.0001
     46  N          2.8180  -13.7180   87.1810 N.3    63  VAL63      -0.1245
     47  CA         1.6950  -13.0630   86.5100 C.3    63  VAL63       0.1561
     48  C          0.8090  -12.3520   87.5270 C.2    63  VAL63       0.2260
     49  O          0.4760  -11.1690   87.3770 O.2    63  VAL63      -0.2867
     50  CB         0.8990  -14.0930   85.6860 C.3    63  VAL63       0.0252
     51  CG1       -0.4430  -13.5290   85.2510 C.3    63  VAL63       0.0019
     52  CG2        1.7060  -14.5500   84.4760 C.3    63  VAL63       0.0019
     53  N          2.4640   -9.3210   89.1010 N.3    66  ALA66      -0.1231
     54  CA         2.5570   -8.2920   88.0730 C.3    66  ALA66       0.1694
     55  C          1.2300   -7.5610   87.9120 C.2    66  ALA66       0.2592
     56  O          1.2010   -6.3280   87.7980 O.2    66  ALA66      -0.2718
     57  CB         3.0000   -8.9090   86.7480 C.3    66  ALA66       0.0304
     58  N          0.1190   -8.3000   87.9200 N.am   67  HIS67      -0.1976
     59  CA        -1.1810   -7.6430   87.8650 C.3    67  HIS67       0.1656
     60  C         -1.3550   -6.6850   89.0320 C.2    67  HIS67       0.2291
     61  O         -1.8990   -5.5810   88.8680 O.2    67  HIS67      -0.2864
     62  CB        -2.2980   -8.6770   87.8560 C.3    67  HIS67       0.0771
     63  CG        -2.2900   -9.5530   86.6490 C.ar   67  HIS67       0.0820
     64  ND1       -3.2300  -10.5370   86.4400 N.ar   67  HIS67      -0.2267
     65  CD2       -1.4540   -9.5970   85.5870 C.ar   67  HIS67       0.1154
     66  CE1       -2.9750  -11.1490   85.3000 C.ar   67  HIS67       0.1986
     67  NE2       -1.9000  -10.6010   84.7640 N.ar   67  HIS67      -0.2212
     68  N          0.4150   -3.5180   88.0500 N.3    70  GLN70      -0.1231
     69  CA        -0.4000   -2.7370   87.1270 C.3    70  GLN70       0.1698
     70  C         -1.4840   -1.9640   87.8660 C.2    70  GLN70       0.2592
     71  O         -1.6540   -0.7580   87.6500 O.2    70  GLN70      -0.2718
     72  CB        -1.0280   -3.6440   86.0740 C.3    70  GLN70       0.0381
     73  CG        -2.0780   -2.9280   85.2570 C.3    70  GLN70       0.0905
     74  CD        -1.4770   -1.9770   84.2450 C.2    70  GLN70       0.2608
     75  OE1       -0.9960   -2.3980   83.1980 O.2    70  GLN70      -0.2717
     76  NE2       -1.4950   -0.6900   84.5570 N.am   70  GLN70      -0.0878
     77  N         -2.2300   -2.6420   88.7450 N.am   71  LEU71      -0.1980
     78  CA        -3.3100   -1.9620   89.4580 C.3    71  LEU71       0.1596
     79  C         -2.7750   -0.8420   90.3420 C.2    71  LEU71       0.2287
     80  O         -3.3990    0.2210   90.4560 O.2    71  LEU71      -0.2864
     81  CB        -4.1170   -2.9630   90.2820 C.3    71  LEU71       0.0297
     82  CG        -4.9110   -3.9670   89.4440 C.3    71  LEU71       0.0022
     83  CD1       -5.9180   -4.7060   90.3030 C.3    71  LEU71       0.0001
     84  CD2       -5.6050   -3.2600   88.2860 C.3    71  LEU71       0.0001
     85  N         -0.1970    1.0230   89.6540 N.3    73  ILE73      -0.1231
     86  CA         0.0500    2.1440   88.7510 C.3    73  ILE73       0.1692
     87  C         -1.2560    2.8260   88.3600 C.2    73  ILE73       0.2592
     88  O         -1.3300    4.0610   88.2880 O.2    73  ILE73      -0.2718
     89  CB         0.8370    1.6670   87.5190 C.3    73  ILE73       0.0266
     90  CG1        2.2970    1.4310   87.9050 C.3    73  ILE73       0.0019
     91  CG2        0.7020    2.6650   86.3670 C.3    73  ILE73       0.0020
     92  CD1        2.9950    0.4430   87.0260 C.3    73  ILE73       0.0001
     93  N         -2.3110    2.0430   88.1200 N.am   74  ILE74      -0.1966
     94  CA        -3.5880    2.6370   87.7270 C.3    74  ILE74       0.1727
     95  C         -4.1520    3.4950   88.8550 C.2    74  ILE74       0.2616
     96  O         -4.6750    4.5900   88.6170 O.2    74  ILE74      -0.2715
     97  CB        -4.5830    1.5460   87.2920 C.3    74  ILE74       0.0290
     98  CG1       -4.0050    0.7280   86.1400 C.3    74  ILE74       0.0022
     99  CG2       -5.8970    2.1740   86.8560 C.3    74  ILE74       0.0023
    100  CD1       -4.9620   -0.3030   85.5880 C.3    74  ILE74       0.0001
    101  N         -4.0550    3.0180   90.0990 N.am   75  PHE75      -0.1974
    102  CA        -4.5510    3.8050   91.2240 C.3    75  PHE75       0.1639
    103  C         -3.7210    5.0660   91.4300 C.2    75  PHE75       0.2290
    104  O         -4.2590    6.1110   91.8130 O.2    75  PHE75      -0.2864
    105  CB        -4.5610    2.9640   92.5010 C.3    75  PHE75       0.0560
    106  CG        -5.8140    2.1600   92.6960 C.ar   75  PHE75      -0.0200
    107  CD1       -7.0260    2.7850   92.9530 C.ar   75  PHE75      -0.0042
    108  CD2       -5.7770    0.7780   92.6460 C.ar   75  PHE75      -0.0042
    109  CE1       -8.1800    2.0450   93.1420 C.ar   75  PHE75      -0.0003
    110  CE2       -6.9230    0.0300   92.8370 C.ar   75  PHE75      -0.0003
    111  CZ        -8.1270    0.6640   93.0850 C.ar   75  PHE75      -0.0000
    112  N         -5.0440    7.4520   88.7350 N.3    78  LEU78      -0.1245
    113  CA        -6.3160    8.0440   89.1450 C.3    78  LEU78       0.1561
    114  C         -6.1170    9.0560   90.2640 C.2    78  LEU78       0.2260
    115  O         -6.7400   10.1260   90.2640 O.2    78  LEU78      -0.2867
    116  CB        -7.2880    6.9500   89.5840 C.3    78  LEU78       0.0270
    117  CG        -7.8440    6.0820   88.4590 C.3    78  LEU78       0.0019
    118  CD1       -8.7650    5.0070   89.0100 C.3    78  LEU78       0.0001
    119  CD2       -8.5710    6.9570   87.4550 C.3    78  LEU78       0.0001
    120  N         -5.0180    3.0210   97.8750 N.3   159  PHE159     -0.1241
    121  CA        -5.2430    1.7570   97.1810 C.3   159  PHE159      0.1605
    122  C         -4.0730    1.3920   96.2830 C.2   159  PHE159      0.2264
    123  O         -3.7860    0.2050   96.1040 O.2   159  PHE159     -0.2867
    124  CB        -6.5400    1.8090   96.3770 C.3   159  PHE159      0.0534
    125  CG        -7.7600    1.5240   97.1940 C.ar  159  PHE159     -0.0203
    126  CD1       -7.7160    1.6080   98.5750 C.ar  159  PHE159     -0.0042
    127  CD2       -8.9430    1.1500   96.5900 C.ar  159  PHE159     -0.0042
    128  CE1       -8.8350    1.3410   99.3340 C.ar  159  PHE159     -0.0003
    129  CE2      -10.0620    0.8830   97.3470 C.ar  159  PHE159     -0.0003
    130  CZ       -10.0090    0.9760   98.7180 C.ar  159  PHE159     -0.0000
    131  N         -2.4270   -2.2500   96.6790 N.3   163  MET163     -0.1245
    132  CA        -2.1990   -3.1570   95.5600 C.3   163  MET163      0.1570
    133  C         -0.7230   -3.5110   95.4400 C.2   163  MET163      0.2261
    134  O         -0.3640   -4.6870   95.2950 O.2   163  MET163     -0.2867
    135  CB        -2.7120   -2.5310   94.2620 C.3   163  MET163      0.0387
    136  CG        -4.2170   -2.3380   94.2220 C.3   163  MET163      0.0595
    137  SD        -5.1030   -3.8750   94.5300 S.3   163  MET163     -0.1393
    138  CE        -6.7970   -3.3330   94.3300 C.3   163  MET163      0.0692
    139  N        -23.2300   -1.6940   94.1140 N.3   202  SER202     -0.1217
    140  CA       -22.6700   -0.5980   94.9000 C.3   202  SER202      0.1889
    141  C        -22.8030    0.7280   94.1650 C.2   202  SER202      0.2288
    142  O        -23.1910    1.7490   94.7560 O.2   202  SER202     -0.2866
    143  CB       -21.2030   -0.8810   95.2150 C.3   202  SER202      0.2089
    144  OG       -21.0320   -2.1990   95.7010 O.3   202  SER202     -0.2183
    145  N         -1.2170  -19.8270   79.7130 N.3   339  TRP339     -0.1227
    146  CA        -1.5400  -18.4240   79.9520 C.3   339  TRP339      0.1737
    147  C         -1.7620  -17.6790   78.6420 C.2   339  TRP339      0.2595
    148  O         -2.6860  -16.8670   78.5380 O.2   339  TRP339     -0.2718
    149  CB        -0.4340  -17.7520   80.7610 C.3   339  TRP339      0.0564
    150  CG        -0.5040  -17.9990   82.2370 C.ar  339  TRP339      0.0003
    151  CD1        0.2770  -18.8500   82.9620 C.ar  339  TRP339      0.0946
    152  CD2       -1.3970  -17.3770   83.1720 C.ar  339  TRP339      0.0152
    153  NE1       -0.0750  -18.7990   84.2910 N.ar  339  TRP339     -0.2442
    154  CE2       -1.1010  -17.9050   84.4450 C.ar  339  TRP339      0.0810
    155  CE3       -2.4220  -16.4300   83.0550 C.ar  339  TRP339      0.0012
    156  CZ2       -1.7940  -17.5200   85.5930 C.ar  339  TRP339      0.0191
    157  CZ3       -3.1080  -16.0480   84.1980 C.ar  339  TRP339      0.0001
    158  CH2       -2.7920  -16.5940   85.4490 C.ar  339  TRP339      0.0015
    159  N         -0.9280  -17.9450   77.6290 N.am  340  HIS340     -0.1975
    160  CA        -1.0490  -17.2380   76.3550 C.3   340  HIS340      0.1656
    161  C         -2.4030  -17.4750   75.6910 C.2   340  HIS340      0.2291
    162  O         -2.9150  -16.5880   74.9970 O.2   340  HIS340     -0.2864
    163  CB         0.0780  -17.6520   75.4090 C.3   340  HIS340      0.0771
    164  CG         1.4400  -17.2470   75.8780 C.ar  340  HIS340      0.0820
    165  ND1        1.8630  -15.9340   75.8890 N.ar  340  HIS340     -0.2267
    166  CD2        2.4770  -17.9810   76.3470 C.ar  340  HIS340      0.1154
    167  CE1        3.1010  -15.8780   76.3480 C.ar  340  HIS340      0.1986
    168  NE2        3.4960  -17.1060   76.6330 N.ar  340  HIS340     -0.2212
    169  N         -5.3690  -17.9750   77.3340 N.3   342  GLN342     -0.1231
    170  CA        -6.2850  -17.1060   78.0610 C.3   342  GLN342      0.1698
    171  C         -6.0870  -15.6530   77.6640 C.2   342  GLN342      0.2592
    172  O         -7.0560  -14.9360   77.3910 O.2   342  GLN342     -0.2718
    173  CB        -6.0870  -17.2840   79.5640 C.3   342  GLN342      0.0381
    174  CG        -6.7010  -18.5550   80.1120 C.3   342  GLN342      0.0905
    175  CD        -8.2120  -18.4990   80.0970 C.2   342  GLN342      0.2608
    176  OE1       -8.8030  -17.4260   79.9490 O.2   342  GLN342     -0.2717
    177  NE2       -8.8490  -19.6540   80.2550 N.am  342  GLN342     -0.0878
    178  N         -4.8290  -15.2070   77.6150 N.am  343  LEU343     -0.1980
    179  CA        -4.5350  -13.8360   77.2190 C.3   343  LEU343      0.1596
    180  C         -5.0050  -13.5550   75.7990 C.2   343  LEU343      0.2287
    181  O         -5.4050  -12.4280   75.4910 O.2   343  LEU343     -0.2864
    182  CB        -3.0350  -13.5640   77.3560 C.3   343  LEU343      0.0297
    183  CG        -2.5750  -12.1260   77.1060 C.3   343  LEU343      0.0022
    184  CD1       -3.2970  -11.1810   78.0530 C.3   343  LEU343      0.0001
    185  CD2       -1.0720  -12.0120   77.2690 C.3   343  LEU343      0.0001
    186  N         -8.8890  -13.1990   76.0210 N.3   346  ASN346     -0.1225
    187  CA        -9.2280  -12.0090   76.7960 C.3   346  ASN346      0.1785
    188  C         -8.8340  -10.7280   76.0740 C.2   346  ASN346      0.2597
    189  O         -9.5300   -9.7180   76.1960 O.2   346  ASN346     -0.2718
    190  CB        -8.5670  -12.0730   78.1720 C.3   346  ASN346      0.1169
    191  CG        -9.0440  -13.2590   78.9890 C.2   346  ASN346      0.2627
    192  OD1      -10.0940  -13.8400   78.7050 O.2   346  ASN346     -0.2716
    193  ND2       -8.2790  -13.6230   80.0120 N.am  346  ASN346     -0.0877
    194  N         -7.7240  -10.7400   75.3350 N.am  347  LEU347     -0.1980
    195  CA        -7.3680   -9.5800   74.5260 C.3   347  LEU347      0.1596
    196  C         -8.3820   -9.3720   73.4100 C.2   347  LEU347      0.2287
    197  O         -8.8330   -8.2440   73.1700 O.2   347  LEU347     -0.2864
    198  CB        -5.9570   -9.7390   73.9530 C.3   347  LEU347      0.0297
    199  CG        -4.8070   -9.4160   74.9080 C.3   347  LEU347      0.0022
    200  CD1       -3.4710   -9.7460   74.2690 C.3   347  LEU347      0.0001
    201  CD2       -4.8560   -7.9640   75.3350 C.3   347  LEU347      0.0001
    202  N        -11.6740   -8.1530   75.1200 N.3   350  LEU350     -0.1245
    203  CA       -11.5420   -6.8600   75.7810 C.3   350  LEU350      0.1561
    204  C        -11.3780   -5.7390   74.7630 C.2   350  LEU350      0.2260
    205  O        -11.9300   -4.6460   74.9430 O.2   350  LEU350     -0.2867
    206  CB       -10.3640   -6.8830   76.7510 C.3   350  LEU350      0.0270
    207  CG       -10.1880   -5.6440   77.6320 C.3   350  LEU350      0.0019
    208  CD1      -11.4150   -5.4390   78.5090 C.3   350  LEU350      0.0001
    209  CD2       -8.9240   -5.7520   78.4750 C.3   350  LEU350      0.0001
    210  N         -0.7370  -13.5850   70.8250 N.3   398  HIS398     -0.1241
    211  CA        -0.6800  -14.6210   71.8510 C.3   398  HIS398      0.1621
    212  C         -1.3500  -15.9190   71.4110 C.2   398  HIS398      0.2264
    213  O         -0.9740  -16.9920   71.8920 O.2   398  HIS398     -0.2867
    214  CB        -1.2680  -14.0900   73.1510 C.3   398  HIS398      0.0745
    215  CG        -0.3940  -13.0700   73.7970 C.ar  398  HIS398      0.0817
    216  ND1        0.7750  -13.4010   74.4460 N.ar  398  HIS398     -0.2268
    217  CD2       -0.4780  -11.7210   73.8330 C.ar  398  HIS398      0.1154
    218  CE1        1.3580  -12.3000   74.8840 C.ar  398  HIS398      0.1986
    219  NE2        0.6160  -11.2680   74.5270 N.ar  398  HIS398     -0.2212
@<TRIPOS>BOND
     1   210   211    1
     2   212   211    1
     3   212   213    2
     4   211   214    1
     5   214   215    1
     6   197   196    2
     7   196   195    1
     8   215   217   ar
     9   215   216   ar
    10   217   219   ar
    11   198   195    1
    12   198   199    1
    13   200   199    1
    14   216   218   ar
    15   195   194    1
    16   219   218   ar
    17   204   205    2
    18   204   203    1
    19   199   201    1
    20   162   161    2
    21   202   203    1
    22   194   188   am
    23   163   164    1
    24   163   160    1
    25   181   180    2
    26   161   160    1
    27   203   206    1
    28   180   179    1
    29   164   165   ar
    30   164   166   ar
    31   165   167   ar
    32    18    16   ar
    33   186   187    1
    34   188   189    2
    35   188   187    1
    36   166   168   ar
    37   167   168   ar
    38   160   159    1
    39   206   207    1
    40   187   190    1
    41    16    17   ar
    42    16    15    1
    43   183   185    1
    44   183   182    1
    45   183   184    1
    46   179   182    1
    47   179   178    1
    48   169   170    1
    49    37    35   ar
    50   172   171    2
    51   178   171   am
    52   159   147   am
    53   207   209    1
    54   207   208    1
    55   171   170    1
    56    15    12    1
    57   170   173    1
    58   190   191    1
    59    36    35   ar
    60    35    34    1
    61   148   147    2
    62   147   146    1
    63   192   191    2
    64    12    11    1
    65    12    13    1
    66   191   193   am
    67    33    32    2
    68    11     3   am
    69    32    31    1
    70   173   174    1
    71    34    31    1
    72   145   146    1
    73   176   175    2
    74   146   149    1
    75    13    14    2
    76    13    19   am
    77   175   174    1
    78   175   177   am
    79     3     4    2
    80     3     2    1
    81    31    30    1
    82     1     2    1
    83     5     2    1
    84     5     6    1
    85   149   150    1
    86    30    21   am
    87    19    20    1
    88     7     6   ar
    89     7     9   ar
    90     6     8   ar
    91    21    20    1
    92    21    22    2
    93     9    10   ar
    94    20    23    1
    95   150   151   ar
    96   150   152   ar
    97     8    10   ar
    98   151   153   ar
    99    23    24    1
   100    45    43    1
   101   155   152   ar
   102   155   157   ar
   103   152   154   ar
   104    75    74    2
   105    24    25   ar
   106    24    26   ar
   107    25    27   ar
   108    44    42    1
   109    27    29   ar
   110    26    28   ar
   111   157   158   ar
   112    43    42    1
   113    74    76   am
   114    74    73    1
   115   153   154   ar
   116   154   156   ar
   117    52    50    1
   118    29    28   ar
   119    42    39    1
   120    67    66   ar
   121    67    65   ar
   122    51    50    1
   123    73    72    1
   124    66    64   ar
   125   158   156   ar
   126    65    63   ar
   127   100    98    1
   128    50    47    1
   129    39    40    1
   130    39    38    1
   131    72    69    1
   132    98    97    1
   133    91    89    1
   134    64    63   ar
   135    41    40    2
   136    47    46    1
   137    47    48    1
   138    63    62    1
   139    57    54    1
   140    99    97    1
   141    92    90    1
   142    69    70    1
   143    69    68    1
   144    97    94    1
   145    49    48    2
   146   119   117    1
   147    89    90    1
   148    89    86    1
   149    71    70    2
   150    94    93    1
   151    94    95    1
   152    56    55    2
   153    62    59    1
   154    59    58    1
   155    59    60    1
   156    70    77   am
   157    55    58   am
   158    55    54    1
   159    54    53    1
   160    93    87   am
   161    84    82    1
   162    88    87    2
   163    87    86    1
   164   117   118    1
   165   117   116    1
   166    96    95    2
   167   112   113    1
   168    77    78    1
   169    86    85    1
   170    95   101   am
   171    61    60    2
   172   113   116    1
   173   113   114    1
   174    82    81    1
   175    82    83    1
   176    78    81    1
   177    78    79    1
   178   101   102    1
   179   114   115    2
   180    79    80    2
   181   102   103    1
   182   102   105    1
   183   103   104    2
   184   105   106    1
   185   108   106   ar
   186   108   110   ar
   187   106   107   ar
   188   110   111   ar
   189   107   109   ar
   190   111   109   ar
   191   139   140    1
   192   141   142    2
   193   141   140    1
   194   136   135    1
   195   136   137    1
   196   135   132    1
   197   138   137    1
   198   140   143    1
   199   143   144    1
   200   134   133    2
   201   133   132    1
   202   132   131    1
   203   123   122    2
   204   122   121    1
   205   124   121    1
   206   124   125    1
   207   127   125   ar
   208   127   129   ar
   209   121   120    1
   210   125   126   ar
   211   129   130   ar
   212   126   128   ar
   213   130   128   ar
