@<TRIPOS>MOLECULE
tmp/5l8rC15.pdb
 89 86 0 0 0
SMALL
GASTEIGER

@<TRIPOS>ATOM
      1  N        -16.8970   -7.5920  126.4190 N.3    57  LEU57      -0.1245
      2  CA       -16.7950   -6.2500  126.9870 C.3    57  LEU57       0.1561
      3  C        -17.7030   -5.2640  126.2610 C.2    57  LEU57       0.2260
      4  O        -18.4170   -4.4760  126.8920 O.2    57  LEU57      -0.2867
      5  CB       -15.3470   -5.7730  126.9320 C.3    57  LEU57       0.0270
      6  CG       -14.3420   -6.6450  127.6770 C.3    57  LEU57       0.0019
      7  CD1      -12.9500   -6.0790  127.4970 C.3    57  LEU57       0.0001
      8  CD2      -14.7130   -6.7140  129.1410 C.3    57  LEU57       0.0001
      9  N        -21.5170   -5.7490  126.7540 N.3    60  VAL60      -0.1245
     10  CA       -21.9700   -5.2010  128.0320 C.3    60  VAL60       0.1561
     11  C        -21.9860   -3.6750  127.9860 C.2    60  VAL60       0.2260
     12  O        -23.0300   -3.0380  128.1820 O.2    60  VAL60      -0.2867
     13  CB       -21.0920   -5.7180  129.1840 C.3    60  VAL60       0.0252
     14  CG1      -21.4640   -5.0190  130.4840 C.3    60  VAL60       0.0019
     15  CG2      -21.2370   -7.2240  129.3220 C.3    60  VAL60       0.0019
     16  N        -24.7400   -1.4730  125.9330 N.3    63  ILE63      -0.1231
     17  CA       -26.1100   -1.3670  126.4150 C.3    63  ILE63       0.1692
     18  C        -26.1830   -0.9100  127.8700 C.2    63  ILE63       0.2591
     19  O        -27.2550   -0.4710  128.3140 O.2    63  ILE63      -0.2718
     20  CB       -26.8400   -2.7170  126.2310 C.3    63  ILE63       0.0266
     21  CG1      -28.3570   -2.5480  126.3320 C.3    63  ILE63       0.0019
     22  CG2      -26.3370   -3.7380  127.2420 C.3    63  ILE63       0.0020
     23  CD1      -29.1280   -3.8180  126.0360 C.3    63  ILE63       0.0001
     24  N        -25.0730   -0.9740  128.6160 N.am   64  ALA64      -0.1980
     25  CA       -25.1090   -0.6580  130.0440 C.3    64  ALA64       0.1597
     26  C        -25.5770    0.7650  130.3380 C.2    64  ALA64       0.2287
     27  O        -26.5880    0.9280  131.0440 O.2    64  ALA64      -0.2864
     28  CB       -23.7390   -0.9510  130.6630 C.3    64  ALA64       0.0319
     29  N        -29.3560    1.3620  129.7400 N.3    67  TYR67      -0.1227
     30  CA       -30.2120    0.7010  130.7200 C.3    67  TYR67       0.1736
     31  C        -30.1670    1.4120  132.0660 C.2    67  TYR67       0.2595
     32  O        -31.2110    1.7610  132.6290 O.2    67  TYR67      -0.2718
     33  CB       -29.8020   -0.7610  130.8850 C.3    67  TYR67       0.0548
     34  CG       -30.3720   -1.3810  132.1390 C.ar   67  TYR67      -0.0200
     35  CD1      -31.6980   -1.7890  132.1920 C.ar   67  TYR67      -0.0009
     36  CD2      -29.5910   -1.5410  133.2780 C.ar   67  TYR67      -0.0009
     37  CE1      -32.2260   -2.3490  133.3380 C.ar   67  TYR67       0.0417
     38  CE2      -30.1110   -2.1000  134.4270 C.ar   67  TYR67       0.0417
     39  CZ       -31.4290   -2.5030  134.4520 C.ar   67  TYR67       0.1957
     40  OH       -31.9520   -3.0610  135.5970 O.3    67  TYR67      -0.2866
     41  N        -28.9620    1.6120  132.6110 N.am   68  LEU68      -0.1980
     42  CA       -28.8480    2.3250  133.8800 C.3    68  LEU68       0.1596
     43  C        -29.4470    3.7220  133.7870 C.2    68  LEU68       0.2287
     44  O        -29.9700    4.2430  134.7790 O.2    68  LEU68      -0.2864
     45  CB       -27.3850    2.4000  134.3180 C.3    68  LEU68       0.0297
     46  CG       -26.7090    1.0860  134.7120 C.3    68  LEU68       0.0022
     47  CD1      -25.2570    1.3240  135.0960 C.3    68  LEU68       0.0001
     48  CD2      -27.4600    0.4150  135.8490 C.3    68  LEU68       0.0001
     49  N          7.0760   -6.8640  136.2860 N.3   136  LEU136     -0.1245
     50  CA         5.9220   -7.3710  135.5460 C.3   136  LEU136      0.1561
     51  C          6.2960   -8.4980  134.5880 C.2   136  LEU136      0.2260
     52  O          5.4130   -9.1810  134.0570 O.2   136  LEU136     -0.2867
     53  CB         5.2340   -6.2440  134.7650 C.3   136  LEU136      0.0270
     54  CG         4.7600   -4.9900  135.5010 C.3   136  LEU136      0.0019
     55  CD1        4.4300   -3.8930  134.5020 C.3   136  LEU136      0.0001
     56  CD2        3.5570   -5.2940  136.3770 C.3   136  LEU136      0.0001
     57  N          4.4490  -12.0420  132.2730 N.3   140  PHE140     -0.1241
     58  CA         4.4900  -11.8720  130.8290 C.3   140  PHE140      0.1605
     59  C          5.2800  -12.9680  130.1270 C.2   140  PHE140      0.2264
     60  O          5.4680  -12.8950  128.9080 O.2   140  PHE140     -0.2867
     61  CB         5.0730  -10.5000  130.4840 C.3   140  PHE140      0.0534
     62  CG         4.2270   -9.3550  130.9560 C.ar  140  PHE140     -0.0203
     63  CD1        2.8690   -9.5290  131.1710 C.ar  140  PHE140     -0.0042
     64  CD2        4.7820   -8.1090  131.1860 C.ar  140  PHE140     -0.0042
     65  CE1        2.0810   -8.4830  131.6040 C.ar  140  PHE140     -0.0003
     66  CE2        3.9970   -7.0590  131.6210 C.ar  140  PHE140     -0.0003
     67  CZ         2.6440   -7.2470  131.8300 C.ar  140  PHE140     -0.0000
     68  N         -1.0230  -12.1920  136.4700 N.3   153  PHE153     -0.1227
     69  CA        -1.8580  -11.0750  136.0340 C.3   153  PHE153      0.1736
     70  C         -3.1610  -11.5630  135.4200 C.2   153  PHE153      0.2595
     71  O         -4.2490  -11.1220  135.8060 O.2   153  PHE153     -0.2718
     72  CB        -1.1060  -10.2090  135.0250 C.3   153  PHE153      0.0547
     73  CG         0.1790   -9.6540  135.5440 C.ar  153  PHE153     -0.0202
     74  CD1        0.1790   -8.6060  136.4470 C.ar  153  PHE153     -0.0042
     75  CD2        1.3880  -10.1720  135.1230 C.ar  153  PHE153     -0.0042
     76  CE1        1.3650   -8.0920  136.9250 C.ar  153  PHE153     -0.0003
     77  CE2        2.5770   -9.6610  135.5970 C.ar  153  PHE153     -0.0003
     78  CZ         2.5660   -8.6220  136.4990 C.ar  153  PHE153     -0.0000
     79  N         -3.0670  -12.4670  134.4510 N.am  154  PHE154     -0.1976
     80  CA        -4.2110  -12.8130  133.6270 C.3   154  PHE154      0.1639
     81  C         -5.0300  -13.9630  134.1900 C.2   154  PHE154      0.2290
     82  O         -6.2030  -14.1030  133.8290 O.2   154  PHE154     -0.2864
     83  CB        -3.7280  -13.1320  132.2120 C.3   154  PHE154      0.0560
     84  CG        -2.8720  -12.0500  131.6260 C.ar  154  PHE154     -0.0200
     85  CD1       -3.4330  -10.8430  131.2460 C.ar  154  PHE154     -0.0042
     86  CD2       -1.5060  -12.2250  131.4820 C.ar  154  PHE154     -0.0042
     87  CE1       -2.6520   -9.8360  130.7210 C.ar  154  PHE154     -0.0003
     88  CE2       -0.7180  -11.2210  130.9540 C.ar  154  PHE154     -0.0003
     89  CZ        -1.2920  -10.0240  130.5740 C.ar  154  PHE154     -0.0000
@<TRIPOS>BOND
     1    16    17    1
     2    23    21    1
     3    20    21    1
     4    20    17    1
     5    20    22    1
     6     3     4    2
     7     3     2    1
     8    17    18    1
     9     1     2    1
    10     9    10    1
    11     5     2    1
    12     5     6    1
    13     7     6    1
    14     6     8    1
    15    18    19    2
    16    18    24   am
    17    11    10    1
    18    11    12    2
    19    10    13    1
    20    24    25    1
    21    60    59    2
    22    13    15    1
    23    13    14    1
    24    29    30    1
    25    25    26    1
    26    25    28    1
    27    59    58    1
    28    26    27    2
    29    61    58    1
    30    61    62    1
    31    89    87   ar
    32    89    88   ar
    33    30    33    1
    34    30    31    1
    35    87    85   ar
    36    58    57    1
    37    33    34    1
    38    88    86   ar
    39    62    63   ar
    40    62    64   ar
    41    63    65   ar
    42    64    66   ar
    43    85    84   ar
    44    86    84   ar
    45    65    67   ar
    46    66    67   ar
    47    84    83    1
    48    31    41   am
    49    31    32    2
    50    34    35   ar
    51    34    36   ar
    52    35    37   ar
    53    83    80    1
    54    41    42    1
    55    36    38   ar
    56    37    39   ar
    57    80    81    1
    58    80    79    1
    59    43    42    1
    60    43    44    2
    61    82    81    2
    62    42    45    1
    63    52    51    2
    64    45    46    1
    65    38    39   ar
    66    79    70   am
    67    39    40    1
    68    55    54    1
    69    51    50    1
    70    46    47    1
    71    46    48    1
    72    53    54    1
    73    53    50    1
    74    72    73    1
    75    72    69    1
    76    75    73   ar
    77    75    77   ar
    78    70    71    2
    79    70    69    1
    80    54    56    1
    81    73    74   ar
    82    50    49    1
    83    77    78   ar
    84    69    68    1
    85    74    76   ar
    86    78    76   ar
