@<TRIPOS>MOLECULE
tmp/5l8rF18.pdb
 176 166 0 0 0
SMALL
GASTEIGER

@<TRIPOS>ATOM
      1  N         42.2730    5.1460   23.0700 N.3   170  ALA170     -0.1245
      2  CA        41.6950    6.2620   23.8140 C.3   170  ALA170      0.1562
      3  C         42.1780    7.6140   23.2980 C.2   170  ALA170      0.2260
      4  O         41.3960    8.5690   23.2280 O.2   170  ALA170     -0.2867
      5  CB        42.0190    6.1180   25.3010 C.3   170  ALA170      0.0290
      6  N         40.2910    8.7180   20.0750 N.3   173  ARG173     -0.1231
      7  CA        38.9100    9.0790   20.3740 C.3   173  ARG173      0.1694
      8  C         38.8270   10.3970   21.1320 C.2   173  ARG173      0.2591
      9  O         37.8840   11.1710   20.9290 O.2   173  ARG173     -0.2718
     10  CB        38.2370    7.9610   21.1700 C.3   173  ARG173      0.0321
     11  CG        36.7230    8.0680   21.2380 C.3   173  ARG173      0.0489
     12  CD        36.1110    6.7990   21.8030 C.3   173  ARG173      0.2205
     13  NE        36.2940    6.6850   23.2460 N.pl3 173  ARG173     -0.0865
     14  CZ        36.0890    5.5670   23.9350 C.cat 173  ARG173      0.5346
     15  NH1       35.7080    4.4640   23.3080 N.pl3 173  ARG173      0.1354
     16  NH2       36.2670    5.5490   25.2480 N.pl3 173  ARG173      0.1354
     17  N         39.8000   10.6730   22.0030 N.am  174  LEU174     -0.1980
     18  CA        39.8050   11.9500   22.7070 C.3   174  LEU174      0.1596
     19  C         40.1210   13.0970   21.7610 C.2   174  LEU174      0.2287
     20  O         39.4960   14.1600   21.8400 O.2   174  LEU174     -0.2864
     21  CB        40.8040   11.9160   23.8600 C.3   174  LEU174      0.0297
     22  CG        40.3210   11.1930   25.1150 C.3   174  LEU174      0.0022
     23  CD1       41.4610   10.9950   26.0920 C.3   174  LEU174      0.0001
     24  CD2       39.1910   11.9740   25.7610 C.3   174  LEU174      0.0001
     25  N         36.9770   13.6150   19.6810 N.3   177  HIS177     -0.1226
     26  CA        35.8360   14.0940   20.4490 C.3   177  HIS177      0.1752
     27  C         36.0350   15.5350   20.8970 C.2   177  HIS177      0.2595
     28  O         35.1090   16.3490   20.8150 O.2   177  HIS177     -0.2718
     29  CB        35.5880   13.1790   21.6420 C.3   177  HIS177      0.0759
     30  CG        34.8940   11.9060   21.2780 C.ar  177  HIS177      0.0818
     31  ND1       34.4520   11.0020   22.2180 N.ar  177  HIS177     -0.2268
     32  CD2       34.5590   11.3900   20.0720 C.ar  177  HIS177      0.1154
     33  CE1       33.8770    9.9830   21.6070 C.ar  177  HIS177      0.1986
     34  NE2       33.9280   10.1950   20.3060 N.ar  177  HIS177     -0.2212
     35  N         37.2370   15.8710   21.3660 N.am  178  LEU178     -0.1980
     36  CA        37.5280   17.2480   21.7480 C.3   178  LEU178      0.1596
     37  C         37.5040   18.1700   20.5340 C.2   178  LEU178      0.2287
     38  O         36.7650   19.1600   20.5050 O.2   178  LEU178     -0.2864
     39  CB        38.8820   17.3220   22.4550 C.3   178  LEU178      0.0297
     40  CG        38.9490   16.7560   23.8720 C.3   178  LEU178      0.0022
     41  CD1       40.3570   16.8820   24.4260 C.3   178  LEU178      0.0001
     42  CD2       37.9500   17.4600   24.7730 C.3   178  LEU178      0.0001
     43  N         33.9680   16.4990   17.8160 N.3   181  LEU181     -0.1231
     44  CA        32.6410   16.3740   18.4090 C.3   181  LEU181      0.1693
     45  C         32.2730   17.6070   19.2260 C.2   181  LEU181      0.2592
     46  O         31.1450   18.1020   19.1350 O.2   181  LEU181     -0.2718
     47  CB        32.5700   15.1170   19.2750 C.3   181  LEU181      0.0284
     48  CG        31.2270   14.8450   19.9550 C.3   181  LEU181      0.0019
     49  CD1       30.0910   14.9120   18.9400 C.3   181  LEU181      0.0001
     50  CD2       31.2480   13.4880   20.6460 C.3   181  LEU181      0.0001
     51  N         33.2040   18.1070   20.0400 N.am  182  PHE182     -0.1976
     52  CA        32.9550   19.3190   20.8150 C.3   182  PHE182      0.1639
     53  C         33.2160   20.5660   19.9810 C.2   182  PHE182      0.2290
     54  O         32.3030   21.3570   19.7220 O.2   182  PHE182     -0.2864
     55  CB        33.8280   19.3340   22.0730 C.3   182  PHE182      0.0560
     56  CG        33.2980   18.4900   23.1980 C.ar  182  PHE182     -0.0200
     57  CD1       32.5630   19.0610   24.2220 C.ar  182  PHE182     -0.0042
     58  CD2       33.5400   17.1270   23.2350 C.ar  182  PHE182     -0.0042
     59  CE1       32.0810   18.2880   25.2580 C.ar  182  PHE182     -0.0003
     60  CE2       33.0560   16.3460   24.2690 C.ar  182  PHE182     -0.0003
     61  CZ        32.3280   16.9270   25.2820 C.ar  182  PHE182     -0.0000
     62  N         34.8850   29.0160   22.5860 N.3   279  ILE279     -0.1245
     63  CA        35.1050   27.6860   23.1560 C.3   279  ILE279      0.1561
     64  C         35.3560   26.6700   22.0540 C.2   279  ILE279      0.2260
     65  O         36.0660   25.6820   22.2670 O.2   279  ILE279     -0.2867
     66  CB        33.9350   27.2480   24.0600 C.3   279  ILE279      0.0252
     67  CG1       32.6660   27.0220   23.2400 C.3   279  ILE279      0.0019
     68  CG2       33.7030   28.2660   25.1660 C.3   279  ILE279      0.0019
     69  CD1       31.5080   26.5320   24.0600 C.3   279  ILE279      0.0001
     70  N         38.9390   26.7780   21.5290 N.3   282  LEU282     -0.1231
     71  CA        39.6360   26.1060   22.6240 C.3   282  LEU282      0.1693
     72  C         39.5790   24.5890   22.4760 C.2   282  LEU282      0.2592
     73  O         40.5720   23.8970   22.7310 O.2   282  LEU282     -0.2718
     74  CB        39.0510   26.5420   23.9640 C.3   282  LEU282      0.0284
     75  CG        39.2360   28.0300   24.2720 C.3   282  LEU282      0.0019
     76  CD1       38.7230   28.3690   25.6650 C.3   282  LEU282      0.0001
     77  CD2       40.6940   28.4380   24.1220 C.3   282  LEU282      0.0001
     78  N         38.4300   24.0530   22.0580 N.am  283  PHE283     -0.1976
     79  CA        38.3180   22.6110   21.8610 C.3   283  PHE283      0.1639
     80  C         39.1360   22.1490   20.6630 C.2   283  PHE283      0.2290
     81  O         39.7590   21.0810   20.7080 O.2   283  PHE283     -0.2864
     82  CB        36.8570   22.2120   21.6800 C.3   283  PHE283      0.0560
     83  CG        36.0980   22.0840   22.9620 C.ar  283  PHE283     -0.0200
     84  CD1       36.3580   21.0400   23.8350 C.ar  283  PHE283     -0.0042
     85  CD2       35.1090   22.9940   23.2850 C.ar  283  PHE283     -0.0042
     86  CE1       35.6530   20.9160   25.0160 C.ar  283  PHE283     -0.0003
     87  CE2       34.4010   22.8790   24.4620 C.ar  283  PHE283     -0.0003
     88  CZ        34.6740   21.8370   25.3300 C.ar  283  PHE283     -0.0000
     89  N         48.9270    9.0520   27.2040 N.3   300  ILE300     -0.1245
     90  CA        48.2110    9.2310   28.4670 C.3   300  ILE300      0.1561
     91  C         48.7770    8.3020   29.5320 C.2   300  ILE300      0.2260
     92  O         48.9330    8.6860   30.7010 O.2   300  ILE300     -0.2867
     93  CB        46.7010    9.0050   28.2590 C.3   300  ILE300      0.0252
     94  CG1       46.1300   10.0810   27.3360 C.3   300  ILE300      0.0019
     95  CG2       45.9650    8.9810   29.5920 C.3   300  ILE300      0.0019
     96  CD1       44.7280    9.8000   26.8700 C.3   300  ILE300      0.0001
     97  N         50.2600    9.4860   33.2000 N.3   304  LEU304     -0.1245
     98  CA        49.8030    8.9000   34.4570 C.3   304  LEU304      0.1561
     99  C         50.9610    8.2740   35.2290 C.2   304  LEU304      0.2260
    100  O         51.0740    8.4590   36.4480 O.2   304  LEU304     -0.2867
    101  CB        48.7100    7.8680   34.1830 C.3   304  LEU304      0.0270
    102  CG        47.3890    8.4410   33.6710 C.3   304  LEU304      0.0019
    103  CD1       46.5940    7.3840   32.9330 C.3   304  LEU304      0.0001
    104  CD2       46.5820    9.0120   34.8250 C.3   304  LEU304      0.0001
    105  N         45.9770    3.7730   33.5780 N.3   322  TYR322     -0.1241
    106  CA        45.5600    3.7850   32.1790 C.3   322  TYR322      0.1605
    107  C         44.8740    2.4780   31.8030 C.2   322  TYR322      0.2264
    108  O         43.7970    2.4800   31.1960 O.2   322  TYR322     -0.2867
    109  CB        46.7540    4.0440   31.2580 C.3   322  TYR322      0.0534
    110  CG        46.3570    4.0800   29.7980 C.ar  322  TYR322     -0.0201
    111  CD1       45.8860    5.2500   29.2180 C.ar  322  TYR322     -0.0009
    112  CD2       46.4270    2.9390   29.0050 C.ar  322  TYR322     -0.0009
    113  CE1       45.5090    5.2910   27.8900 C.ar  322  TYR322      0.0417
    114  CE2       46.0490    2.9690   27.6720 C.ar  322  TYR322      0.0417
    115  CZ        45.5910    4.1490   27.1220 C.ar  322  TYR322      0.1957
    116  OH        45.2120    4.1950   25.8020 O.3   322  TYR322     -0.2866
    117  N         41.4890    1.8530   33.8610 N.3   325  ILE325     -0.1231
    118  CA        40.3090    2.5420   33.3550 C.3   325  ILE325      0.1692
    119  C         39.9570    2.0880   31.9460 C.2   325  ILE325      0.2592
    120  O         38.7860    1.8500   31.6400 O.2   325  ILE325     -0.2718
    121  CB        40.5390    4.0630   33.4170 C.3   325  ILE325      0.0266
    122  CG1       40.6560    4.5090   34.8720 C.3   325  ILE325      0.0019
    123  CG2       39.4220    4.8070   32.7020 C.3   325  ILE325      0.0020
    124  CD1       41.2140    5.8830   35.0230 C.3   325  ILE325      0.0001
    125  N         40.9560    1.9550   31.0740 N.am  326  ASN326     -0.1974
    126  CA        40.6720    1.6090   29.6870 C.3   326  ASN326      0.1688
    127  C         40.1100    0.2010   29.5600 C.2   326  ASN326      0.2292
    128  O         39.3490   -0.0770   28.6260 O.2   326  ASN326     -0.2864
    129  CB        41.9340    1.7600   28.8370 C.3   326  ASN326      0.1181
    130  CG        41.6230    1.9940   27.3680 C.2   326  ASN326      0.2629
    131  OD1       40.5440    2.4710   27.0170 O.2   326  ASN326     -0.2716
    132  ND2       42.5720    1.6590   26.5040 N.am  326  ASN326     -0.0877
    133  N         34.7690    3.7580   33.2790 N.3   332  GLN332     -0.1245
    134  CA        34.4850    4.7970   32.2960 C.3   332  GLN332      0.1566
    135  C         33.0670    5.3350   32.4540 C.2   332  GLN332      0.2260
    136  O         32.8480    6.5520   32.4580 O.2   332  GLN332     -0.2867
    137  CB        34.7040    4.2390   30.8890 C.3   332  GLN332      0.0367
    138  CG        36.0600    3.5740   30.7120 C.3   332  GLN332      0.0905
    139  CD        36.1650    2.7930   29.4210 C.2   332  GLN332      0.2608
    140  OE1       35.3130    2.9110   28.5410 O.2   332  GLN332     -0.2717
    141  NE2       37.2130    1.9840   29.3010 N.am  332  GLN332     -0.0878
    142  N         32.9470    7.6180   35.6150 N.3   335  LEU335     -0.1231
    143  CA        33.4660    8.9620   35.3850 C.3   335  LEU335      0.1693
    144  C         32.5180    9.7760   34.5080 C.2   335  LEU335      0.2591
    145  O         32.2250   10.9450   34.8040 O.2   335  LEU335     -0.2718
    146  CB        34.8560    8.8840   34.7580 C.3   335  LEU335      0.0284
    147  CG        35.9830    8.4430   35.6890 C.3   335  LEU335      0.0019
    148  CD1       37.3040    8.3900   34.9430 C.3   335  LEU335      0.0001
    149  CD2       36.0860    9.3910   36.8570 C.3   335  LEU335      0.0001
    150  N         32.0080    9.1630   33.4380 N.am  336  ALA336     -0.1980
    151  CA        31.1000    9.8660   32.5390 C.3   336  ALA336      0.1597
    152  C         29.8400   10.3180   33.2680 C.2   336  ALA336      0.2287
    153  O         29.3940   11.4580   33.1090 O.2   336  ALA336     -0.2864
    154  CB        30.7450    8.9730   31.3480 C.3   336  ALA336      0.0319
    155  N         30.7070   13.2520   35.9000 N.3   339  SER339     -0.1202
    156  CA        30.8800   14.5310   35.2250 C.3   339  SER339      0.2020
    157  C         29.5610   15.0220   34.6430 C.2   339  SER339      0.2618
    158  O         29.1880   16.1950   34.8020 O.2   339  SER339     -0.2717
    159  CB        31.9360   14.3950   34.1310 C.3   339  SER339      0.2103
    160  OG        33.0710   13.6820   34.5940 O.3   339  SER339     -0.2182
    161  N         28.8310   14.1240   33.9760 N.am  340  LEU340     -0.1979
    162  CA        27.5810   14.4980   33.3250 C.3   340  LEU340      0.1596
    163  C         26.5320   14.9410   34.3350 C.2   340  LEU340      0.2287
    164  O         25.7100   15.8140   34.0340 O.2   340  LEU340     -0.2864
    165  CB        27.0620   13.3270   32.4920 C.3   340  LEU340      0.0297
    166  CG        25.7450   13.5740   31.7640 C.3   340  LEU340      0.0022
    167  CD1       25.9310   14.5980   30.6440 C.3   340  LEU340      0.0001
    168  CD2       25.1600   12.2790   31.2390 C.3   340  LEU340      0.0001
    169  N         27.5620   18.5940   35.3950 N.3   343  ILE343     -0.1245
    170  CA        27.1740   19.6020   34.4120 C.3   343  ILE343      0.1561
    171  C         25.6690   19.6180   34.1660 C.2   343  ILE343      0.2260
    172  O         25.1510   20.6010   33.6230 O.2   343  ILE343     -0.2867
    173  CB        27.9260   19.4320   33.0780 C.3   343  ILE343      0.0252
    174  CG1       27.6180   18.0740   32.4540 C.3   343  ILE343      0.0019
    175  CG2       29.4230   19.6310   33.2750 C.3   343  ILE343      0.0019
    176  CD1       28.2630   17.8800   31.1010 C.3   343  ILE343      0.0001
@<TRIPOS>BOND
     1    43    44    1
     2    44    45    1
     3    44    47    1
     4    49    48    1
     5    46    45    2
     6    45    51   am
     7    47    48    1
     8    25    26    1
     9    54    53    2
    10    48    50    1
    11    53    52    1
    12    51    52    1
    13    32    34   ar
    14    32    30   ar
    15     6     7    1
    16    34    33   ar
    17     7     8    1
    18     7    10    1
    19    26    27    1
    20    26    29    1
    21    38    37    2
    22    37    36    1
    23    80    81    2
    24    80    79    1
    25    28    27    2
    26    52    55    1
    27    27    35   am
    28     9     8    2
    29     8    17   am
    30    10    11    1
    31    11    12    1
    32    30    29    1
    33    30    31   ar
    34    35    36    1
    35    70    71    1
    36    33    31   ar
    37    82    79    1
    38    82    83    1
    39    36    39    1
    40    19    20    2
    41    19    18    1
    42    12    13    1
    43    79    78    1
    44    17    18    1
    45    64    65    2
    46    64    63    1
    47    78    72   am
    48    55    56    1
    49    39    40    1
    50    72    71    1
    51    72    73    2
    52    62    63    1
    53    71    74    1
    54    18    21    1
    55    83    85   ar
    56    83    84   ar
    57     1     2    1
    58    63    66    1
    59    56    58   ar
    60    56    57   ar
    61     4     3    2
    62    58    60   ar
    63    67    66    1
    64    67    69    1
    65    13    14    2
    66    85    87   ar
    67     3     2    1
    68    15    14    1
    69     2     5    1
    70    84    86   ar
    71    21    22    1
    72    40    41    1
    73    40    42    1
    74    14    16    1
    75    74    75    1
    76    66    68    1
    77    77    75    1
    78    57    59   ar
    79    60    61   ar
    80    75    76    1
    81    87    88   ar
    82    86    88   ar
    83    22    24    1
    84    22    23    1
    85    59    61   ar
    86   116   115    1
    87   132   130   am
    88    96    94    1
    89   131   130    2
    90   115   114   ar
    91   115   113   ar
    92    89    90    1
    93    94    93    1
    94   130   129    1
    95   114   112   ar
    96   113   111   ar
    97    93    90    1
    98    93    95    1
    99    90    91    1
   100   140   139    2
   101   128   127    2
   102   129   126    1
   103   112   110   ar
   104   111   110   ar
   105   141   139   am
   106   139   138    1
   107    91    92    2
   108   127   126    1
   109   126   125    1
   110   110   109    1
   111   167   166    1
   112   138   137    1
   113   137   134    1
   114   125   119   am
   115   176   174    1
   116   108   107    2
   117   168   166    1
   118   109   106    1
   119   154   151    1
   120   120   119    2
   121   166   165    1
   122   107   106    1
   123   119   118    1
   124   106   105    1
   125   134   135    1
   126   134   133    1
   127   174   173    1
   128   135   136    2
   129   165   162    1
   130   151   152    1
   131   151   150    1
   132   123   121    1
   133   103   102    1
   134   173   175    1
   135   173   170    1
   136   153   152    2
   137    97    98    1
   138   162   161    1
   139   162   163    1
   140   118   121    1
   141   118   117    1
   142   121   122    1
   143   150   144   am
   144   172   171    2
   145   102   101    1
   146   102   104    1
   147   161   157   am
   148   164   163    2
   149   159   160    1
   150   159   156    1
   151   171   170    1
   152   101    98    1
   153   170   169    1
   154    98    99    1
   155   144   145    2
   156   144   143    1
   157   157   158    2
   158   157   156    1
   159   146   143    1
   160   146   147    1
   161   122   124    1
   162   148   147    1
   163   156   155    1
   164    99   100    2
   165   143   142    1
   166   147   149    1
