@<TRIPOS>MOLECULE
tmp/5l8tA00.pdb
 122 122 0 0 0
SMALL
GASTEIGER

@<TRIPOS>ATOM
      1  N        -29.0690  -18.1140    3.0620 N.3    32  TRP32      -0.1228
      2  CA       -29.9850  -17.2430    2.3160 C.3    32  TRP32       0.1722
      3  C        -29.3900  -15.9290    1.7830 C.2    32  TRP32       0.2437
      4  O        -29.8040  -15.4780    0.7020 O.2    32  TRP32      -0.2733
      5  CB       -31.2270  -16.9270    3.1560 C.3    32  TRP32       0.0563
      6  CG       -30.9440  -16.2070    4.4240 C.ar   32  TRP32       0.0003
      7  CD1      -30.6800  -16.7690    5.6420 C.ar   32  TRP32       0.0946
      8  CD2      -30.8980  -14.7870    4.6170 C.ar   32  TRP32       0.0152
      9  NE1      -30.4690  -15.7870    6.5760 N.ar   32  TRP32      -0.2442
     10  CE2      -30.5920  -14.5600    5.9730 C.ar   32  TRP32       0.0810
     11  CE3      -31.0690  -13.6840    3.7710 C.ar   32  TRP32       0.0012
     12  CZ2      -30.4610  -13.2780    6.5090 C.ar   32  TRP32       0.0191
     13  CZ3      -30.9420  -12.4140    4.3020 C.ar   32  TRP32       0.0001
     14  CH2      -30.6400  -12.2200    5.6590 C.ar   32  TRP32       0.0015
     15  N        -28.4150  -15.3100    2.4870 N.am   33  PRO33      -0.2718
     16  CA       -27.9620  -14.0660    1.8440 C.3    33  PRO33       0.1535
     17  C        -27.1000  -14.3040    0.5920 C.2    33  PRO33       0.2598
     18  O        -26.8170  -13.3580   -0.1350 O.2    33  PRO33      -0.2715
     19  CB       -27.1220  -13.3840    2.9310 C.3    33  PRO33       0.0310
     20  CG       -27.5150  -14.0670    4.2410 C.3    33  PRO33       0.0237
     21  CD       -27.7980  -15.4810    3.8160 C.3    33  PRO33       0.0939
     22  N        -26.6920  -15.5480    0.3630 N.am   34  PHE34      -0.1974
     23  CA       -25.6530  -15.8420   -0.6280 C.3    34  PHE34       0.1639
     24  C        -26.0970  -16.7390   -1.7600 C.2    34  PHE34       0.2290
     25  O        -25.2730  -17.1440   -2.5730 O.2    34  PHE34      -0.2864
     26  CB       -24.4580  -16.4960    0.0610 C.3    34  PHE34       0.0560
     27  CG       -24.0590  -15.7990    1.3310 C.ar   34  PHE34      -0.0200
     28  CD1      -23.4840  -14.5400    1.2810 C.ar   34  PHE34      -0.0042
     29  CD2      -24.2960  -16.3800    2.5620 C.ar   34  PHE34      -0.0042
     30  CE1      -23.1280  -13.8700    2.4500 C.ar   34  PHE34      -0.0003
     31  CE2      -23.9420  -15.7250    3.7270 C.ar   34  PHE34      -0.0003
     32  CZ       -23.3580  -14.4800    3.6760 C.ar   34  PHE34      -0.0000
     33  N        -28.2050  -16.2350   -4.2760 N.3    36  LEU36      -0.1231
     34  CA       -28.3300  -15.5650   -5.5800 C.3    36  LEU36       0.1678
     35  C        -27.4530  -14.3180   -5.6060 C.2    36  LEU36       0.2434
     36  O        -27.0910  -13.7980   -4.5500 O.2    36  LEU36      -0.2733
     37  CB       -29.7890  -15.1910   -5.8450 C.3    36  LEU36       0.0284
     38  CG       -30.7910  -16.3370   -5.9630 C.3    36  LEU36       0.0019
     39  CD1      -32.1870  -15.7720   -6.1980 C.3    36  LEU36       0.0001
     40  CD2      -30.3890  -17.2800   -7.0840 C.3    36  LEU36       0.0001
     41  N        -27.1020  -13.8270   -6.8050 N.am   37  PRO37      -0.2718
     42  CA       -26.2990  -12.6040   -6.8730 C.3    37  PRO37       0.1535
     43  C        -26.9510  -11.4650   -6.1000 C.2    37  PRO37       0.2598
     44  O        -28.1820  -11.3720   -6.0860 O.2    37  PRO37      -0.2715
     45  CB       -26.2740  -12.2700   -8.3770 C.3    37  PRO37       0.0310
     46  CG       -26.5050  -13.5610   -9.0470 C.3    37  PRO37       0.0237
     47  CD       -27.4130  -14.3590   -8.1440 C.3    37  PRO37       0.0939
     48  N        -26.1500  -10.6280   -5.4520 N.am   38  VAL38      -0.1964
     49  CA       -26.7060   -9.4210   -4.8560 C.3    38  VAL38       0.1727
     50  C        -27.4050   -8.6300   -5.9470 C.2    38  VAL38       0.2616
     51  O        -26.8400   -8.3800   -7.0180 O.2    38  VAL38      -0.2715
     52  CB       -25.6350   -8.5560   -4.1730 C.3    38  VAL38       0.0290
     53  CG1      -26.2190   -7.2120   -3.7670 C.3    38  VAL38       0.0023
     54  CG2      -25.0640   -9.2930   -2.9550 C.3    38  VAL38       0.0023
     55  N        -28.6600   -8.2890   -5.6820 N.am   39  ASN39      -0.1972
     56  CA       -29.4580   -7.4920   -6.5990 C.3    39  ASN39       0.1688
     57  C        -28.8920   -6.0790   -6.6940 C.2    39  ASN39       0.2292
     58  O        -29.0570   -5.2680   -5.7760 O.2    39  ASN39      -0.2864
     59  CB       -30.9120   -7.4720   -6.1310 C.3    39  ASN39       0.1181
     60  CG       -31.8660   -6.9930   -7.2030 C.2    39  ASN39       0.2629
     61  OD1      -31.5510   -6.0900   -7.9760 O.2    39  ASN39      -0.2716
     62  ND2      -33.0450   -7.5980   -7.2530 N.am   39  ASN39      -0.0877
     63  N        -31.2510   -3.2430   -6.1610 N.3    42  LEU42      -0.1231
     64  CA       -32.0090   -3.2740   -4.9170 C.3    42  LEU42       0.1693
     65  C        -31.1040   -2.8630   -3.7660 C.2    42  LEU42       0.2591
     66  O        -31.5630   -2.4120   -2.7180 O.2    42  LEU42      -0.2718
     67  CB       -32.5810   -4.6780   -4.6760 C.3    42  LEU42       0.0284
     68  CG       -33.4990   -5.0350   -3.4990 C.3    42  LEU42       0.0019
     69  CD1      -34.3080   -6.2740   -3.8460 C.3    42  LEU42       0.0001
     70  CD2      -32.7270   -5.2870   -2.2150 C.3    42  LEU42       0.0001
     71  N        -29.8050   -3.0380   -3.9670 N.am   43  VAL43      -0.1980
     72  CA       -28.8360   -2.7970   -2.9120 C.3    43  VAL43       0.1595
     73  C        -27.9140   -1.6680   -3.2960 C.2    43  VAL43       0.2287
     74  O        -26.9960   -1.8600   -4.0880 O.2    43  VAL43      -0.2864
     75  CB       -28.0050   -4.0630   -2.6040 C.3    43  VAL43       0.0276
     76  CG1      -26.9980   -3.8020   -1.4940 C.3    43  VAL43       0.0022
     77  CG2      -28.9200   -5.2000   -2.2180 C.3    43  VAL43       0.0022
     78  N        -23.6510   -1.4020   -4.0350 N.3    46  TYR46      -0.1241
     79  CA       -22.9540   -2.6800   -4.1490 C.3    46  TYR46       0.1605
     80  C        -22.0500   -2.7640   -5.3830 C.2    46  TYR46       0.2264
     81  O        -20.9050   -3.2090   -5.2880 O.2    46  TYR46      -0.2867
     82  CB       -23.9370   -3.8510   -4.1650 C.3    46  TYR46       0.0534
     83  CG       -23.2660   -5.1290   -3.7140 C.ar   46  TYR46      -0.0201
     84  CD1      -22.8470   -6.0860   -4.6390 C.ar   46  TYR46      -0.0009
     85  CD2      -23.0050   -5.3530   -2.3710 C.ar   46  TYR46      -0.0009
     86  CE1      -22.2090   -7.2390   -4.2310 C.ar   46  TYR46       0.0417
     87  CE2      -22.3700   -6.5050   -1.9490 C.ar   46  TYR46       0.0417
     88  CZ       -21.9770   -7.4460   -2.8840 C.ar   46  TYR46       0.1957
     89  OH       -21.3430   -8.5880   -2.4760 O.3    46  TYR46      -0.2866
     90  N        -18.8570  -10.1320    1.6420 N.3    85  CYS85      -0.1235
     91  CA       -19.8590   -9.9480    2.6770 C.3    85  CYS85       0.1677
     92  C        -19.2770   -9.1430    3.8310 C.2    85  CYS85       0.2270
     93  O        -19.9400   -8.2580    4.3760 O.2    85  CYS85      -0.2867
     94  CB       -20.3800  -11.3130    3.1650 C.3    85  CYS85       0.0956
     95  SG       -21.6200  -11.2230    4.5080 S.3    85  CYS85      -0.0801
     96  N        -18.9450   -5.4280    3.0210 N.3    88  PHE88      -0.1227
     97  CA       -20.1630   -4.6400    2.8610 C.3    88  PHE88       0.1736
     98  C        -21.0760   -4.6060    4.0790 C.2    88  PHE88       0.2595
     99  O        -21.8860   -3.6880    4.2230 O.2    88  PHE88      -0.2718
    100  CB       -20.9670   -5.1510    1.6590 C.3    88  PHE88       0.0547
    101  CG       -21.8210   -4.0810    1.0230 C.ar   88  PHE88      -0.0202
    102  CD1      -21.2520   -3.1360    0.1850 C.ar   88  PHE88      -0.0042
    103  CD2      -23.1810   -4.0080    1.2840 C.ar   88  PHE88      -0.0042
    104  CE1      -22.0260   -2.1440   -0.4000 C.ar   88  PHE88      -0.0003
    105  CE2      -23.9610   -3.0270    0.7000 C.ar   88  PHE88      -0.0003
    106  CZ       -23.3830   -2.0860   -0.1380 C.ar   88  PHE88      -0.0000
    107  N        -20.9490   -5.5980    4.9530 N.am   89  ASN89      -0.1974
    108  CA       -21.8690   -5.7320    6.0720 C.3    89  ASN89       0.1688
    109  C        -21.1690   -5.6440    7.4180 C.2    89  ASN89       0.2292
    110  O        -20.0460   -6.1240    7.5880 O.2    89  ASN89      -0.2864
    111  CB       -22.6330   -7.0580    5.9780 C.3    89  ASN89       0.1181
    112  CG       -23.4160   -7.1950    4.6790 C.2    89  ASN89       0.2629
    113  OD1      -24.5770   -6.7880    4.5900 O.2    89  ASN89      -0.2716
    114  ND2      -22.7850   -7.7870    3.6680 N.am   89  ASN89      -0.0877
    115  N        -26.8130  -10.3620    8.1150 N.3    95  ILE95      -0.1245
    116  CA       -26.0750  -10.8430    6.9480 C.3    95  ILE95       0.1561
    117  C        -24.5910  -11.0020    7.2670 C.2    95  ILE95       0.2260
    118  O        -23.9620  -11.9920    6.8770 O.2    95  ILE95      -0.2867
    119  CB       -26.2570   -9.8890    5.7530 C.3    95  ILE95       0.0252
    120  CG1      -27.6820  -10.0020    5.2180 C.3    95  ILE95       0.0019
    121  CG2      -25.2520  -10.1930    4.6600 C.3    95  ILE95       0.0019
    122  CD1      -28.0150   -8.9750    4.1430 C.3    95  ILE95       0.0001
@<TRIPOS>BOND
     1    46    45    1
     2    46    47    1
     3    45    42    1
     4    47    41    1
     5    61    60    2
     6    62    60   am
     7    60    59    1
     8    40    38    1
     9    51    50    2
    10    42    41    1
    11    42    43    1
    12    41    35   am
    13    57    56    1
    14    57    58    2
    15    56    59    1
    16    56    55    1
    17    39    38    1
    18    63    64    1
    19    43    44    2
    20    43    48   am
    21    38    37    1
    22    50    55   am
    23    50    49    1
    24    37    34    1
    25    35    34    1
    26    35    36    2
    27    34    33    1
    28    48    49    1
    29    80    81    2
    30    80    79    1
    31    64    67    1
    32    64    65    1
    33    49    52    1
    34    67    68    1
    35    84    86   ar
    36    84    83   ar
    37    86    88   ar
    38    52    53    1
    39    52    54    1
    40    82    79    1
    41    82    83    1
    42    79    78    1
    43    74    73    2
    44    71    65   am
    45    71    72    1
    46    69    68    1
    47    65    66    2
    48    83    85   ar
    49    68    70    1
    50    73    72    1
    51    72    75    1
    52    88    89    1
    53    88    87   ar
    54    75    77    1
    55    75    76    1
    56    25    24    2
    57    85    87   ar
    58    24    23    1
    59    23    26    1
    60    23    22    1
    61   104   106   ar
    62   104   102   ar
    63   106   105   ar
    64    18    17    2
    65    26    27    1
    66   102   101   ar
    67    22    17   am
    68    17    16    1
    69   105   103   ar
    70     4     3    2
    71   101   103   ar
    72   101   100    1
    73    28    27   ar
    74    28    30   ar
    75    27    29   ar
    76    90    91    1
    77   100    97    1
    78     3     2    1
    79     3    15   am
    80    16    15    1
    81    16    19    1
    82     2     1    1
    83     2     5    1
    84    30    32   ar
    85    15    21    1
    86    29    31   ar
    87    91    94    1
    88    91    92    1
    89    97    96    1
    90    97    98    1
    91    19    20    1
    92     5     6    1
    93    94    95    1
    94   114   112   am
    95    32    31   ar
    96    11    13   ar
    97    11     8   ar
    98    21    20    1
    99    92    93    2
   100    98    99    2
   101    98   107   am
   102   122   120    1
   103    13    14   ar
   104     6     8   ar
   105     6     7   ar
   106   113   112    2
   107     8    10   ar
   108   121   119    1
   109   112   111    1
   110   107   108    1
   111   120   119    1
   112     7     9   ar
   113    14    12   ar
   114   119   116    1
   115    10    12   ar
   116    10     9   ar
   117   111   108    1
   118   108   109    1
   119   118   117    2
   120   116   117    1
   121   116   115    1
   122   109   110    2
