@<TRIPOS>MOLECULE
tmp/5l8uA00.pdb
 114 114 0 0 0
SMALL
GASTEIGER

@<TRIPOS>ATOM
      1  N        -29.2920  -18.2990    3.4140 N.3    32  TRP32      -0.1228
      2  CA       -30.2250  -17.4430    2.6740 C.3    32  TRP32       0.1722
      3  C        -29.6550  -16.1250    2.1050 C.2    32  TRP32       0.2437
      4  O        -30.1020  -15.6930    1.0250 O.2    32  TRP32      -0.2733
      5  CB       -31.4550  -17.1210    3.5380 C.3    32  TRP32       0.0563
      6  CG       -31.1660  -16.4680    4.8530 C.ar   32  TRP32       0.0003
      7  CD1      -30.9620  -17.0940    6.0550 C.ar   32  TRP32       0.0946
      8  CD2      -31.0780  -15.0620    5.1140 C.ar   32  TRP32       0.0152
      9  NE1      -30.7370  -16.1610    7.0390 N.ar   32  TRP32      -0.2442
     10  CE2      -30.8010  -14.9080    6.4890 C.ar   32  TRP32       0.0810
     11  CE3      -31.1860  -13.9170    4.3130 C.ar   32  TRP32       0.0012
     12  CZ2      -30.6360  -13.6580    7.0830 C.ar   32  TRP32       0.0191
     13  CZ3      -31.0210  -12.6730    4.9080 C.ar   32  TRP32       0.0001
     14  CH2      -30.7480  -12.5560    6.2790 C.ar   32  TRP32       0.0015
     15  N        -28.6810  -15.4770    2.7870 N.am   33  PRO33      -0.2718
     16  CA       -28.2090  -14.2440    2.1280 C.3    33  PRO33       0.1535
     17  C        -27.3500  -14.5030    0.8920 C.2    33  PRO33       0.2598
     18  O        -27.0420  -13.5580    0.1610 O.2    33  PRO33      -0.2715
     19  CB       -27.3510  -13.5610    3.2010 C.3    33  PRO33       0.0310
     20  CG       -27.6720  -14.2800    4.5230 C.3    33  PRO33       0.0237
     21  CD       -28.0200  -15.6780    4.0960 C.3    33  PRO33       0.0939
     22  N        -26.9590  -15.7580    0.6840 N.am   34  PHE34      -0.1974
     23  CA       -25.9220  -16.0970   -0.2960 C.3    34  PHE34       0.1639
     24  C        -26.3860  -17.0190   -1.4120 C.2    34  PHE34       0.2290
     25  O        -25.5800  -17.4310   -2.2490 O.2    34  PHE34      -0.2864
     26  CB       -24.7260  -16.7390    0.4290 C.3    34  PHE34       0.0560
     27  CG       -24.3170  -16.0020    1.6750 C.ar   34  PHE34      -0.0200
     28  CD1      -23.7830  -14.7220    1.5810 C.ar   34  PHE34      -0.0042
     29  CD2      -24.4850  -16.5650    2.9380 C.ar   34  PHE34      -0.0042
     30  CE1      -23.4230  -14.0160    2.7180 C.ar   34  PHE34      -0.0003
     31  CE2      -24.1100  -15.8640    4.0950 C.ar   34  PHE34      -0.0003
     32  CZ       -23.5840  -14.5850    3.9820 C.ar   34  PHE34      -0.0000
     33  N        -28.5390  -16.4960   -3.9340 N.3    36  LEU36      -0.1231
     34  CA       -28.6850  -15.8380   -5.2420 C.3    36  LEU36       0.1678
     35  C        -27.8050  -14.6000   -5.3310 C.2    36  LEU36       0.2434
     36  O        -27.3990  -14.0580   -4.3090 O.2    36  LEU36      -0.2733
     37  CB       -30.1440  -15.4440   -5.4830 C.3    36  LEU36       0.0284
     38  CG       -31.1440  -16.5930   -5.5690 C.3    36  LEU36       0.0019
     39  CD1      -32.5440  -16.0300   -5.7280 C.3    36  LEU36       0.0001
     40  CD2      -30.7910  -17.5260   -6.7300 C.3    36  LEU36       0.0001
     41  N        -27.5250  -14.1250   -6.5600 N.am   37  PRO37      -0.2718
     42  CA       -26.7560  -12.8820   -6.6690 C.3    37  PRO37       0.1535
     43  C        -27.4490  -11.7190   -5.9720 C.2    37  PRO37       0.2598
     44  O        -28.6770  -11.6210   -6.0120 O.2    37  PRO37      -0.2715
     45  CB       -26.6880  -12.6310   -8.1800 C.3    37  PRO37       0.0310
     46  CG       -26.8900  -13.9680   -8.7970 C.3    37  PRO37       0.0237
     47  CD       -27.7950  -14.7340   -7.8760 C.3    37  PRO37       0.0939
     48  N        -26.6740  -10.8640   -5.3250 N.am   38  VAL38      -0.1964
     49  CA       -27.2120   -9.5940   -4.8400 C.3    38  VAL38       0.1727
     50  C        -27.7430   -8.8000   -6.0230 C.2    38  VAL38       0.2616
     51  O        -27.0670   -8.6850   -7.0470 O.2    38  VAL38      -0.2715
     52  CB       -26.1540   -8.7760   -4.0890 C.3    38  VAL38       0.0290
     53  CG1      -26.7230   -7.4090   -3.6700 C.3    38  VAL38       0.0023
     54  CG2      -25.6600   -9.5530   -2.8680 C.3    38  VAL38       0.0023
     55  N        -28.9580   -8.2700   -5.8940 N.am   39  ASN39      -0.1972
     56  CA       -29.5800   -7.5240   -6.9840 C.3    39  ASN39       0.1688
     57  C        -28.9560   -6.1410   -7.1240 C.2    39  ASN39       0.2292
     58  O        -29.2160   -5.2350   -6.3250 O.2    39  ASN39      -0.2864
     59  CB       -31.0940   -7.4160   -6.7670 C.3    39  ASN39       0.1181
     60  CG       -31.8330   -6.8990   -7.9990 C.2    39  ASN39       0.2629
     61  OD1      -31.3190   -6.0710   -8.7510 O.2    39  ASN39      -0.2716
     62  ND2      -33.0490   -7.3880   -8.2050 N.am   39  ASN39      -0.0877
     63  N        -30.0920   -2.9040   -4.6350 N.3    43  VAL43      -0.1245
     64  CA       -29.2790   -2.6910   -3.4410 C.3    43  VAL43       0.1561
     65  C        -28.2670   -1.5830   -3.6700 C.2    43  VAL43       0.2260
     66  O        -27.2600   -1.7880   -4.3480 O.2    43  VAL43      -0.2867
     67  CB       -28.5340   -3.9680   -3.0170 C.3    43  VAL43       0.0252
     68  CG1      -27.7120   -3.7070   -1.7550 C.3    43  VAL43       0.0019
     69  CG2      -29.5190   -5.1130   -2.7980 C.3    43  VAL43       0.0019
     70  N        -23.9550   -1.4510   -3.9290 N.3    46  TYR46      -0.1241
     71  CA       -23.3130   -2.7610   -4.0640 C.3    46  TYR46       0.1605
     72  C        -22.4570   -2.8710   -5.3320 C.2    46  TYR46       0.2264
     73  O        -21.3020   -3.3040   -5.2750 O.2    46  TYR46      -0.2867
     74  CB       -24.3440   -3.8940   -4.0520 C.3    46  TYR46       0.0534
     75  CG       -23.7260   -5.1950   -3.5840 C.ar   46  TYR46      -0.0201
     76  CD1      -23.2620   -6.1440   -4.4860 C.ar   46  TYR46      -0.0009
     77  CD2      -23.5510   -5.4350   -2.2270 C.ar   46  TYR46      -0.0009
     78  CE1      -22.6690   -7.3400   -4.0350 C.ar   46  TYR46       0.0417
     79  CE2      -22.9640   -6.6030   -1.7710 C.ar   46  TYR46       0.0417
     80  CZ       -22.5260   -7.5490   -2.6690 C.ar   46  TYR46       0.1957
     81  OH       -21.9470   -8.6970   -2.1740 O.3    46  TYR46      -0.2866
     82  N        -19.2710  -10.1490    1.8420 N.3    85  CYS85      -0.1235
     83  CA       -20.2370   -9.9860    2.9180 C.3    85  CYS85       0.1677
     84  C        -19.6680   -9.1130    4.0360 C.2    85  CYS85       0.2270
     85  O        -20.3430   -8.2070    4.5330 O.2    85  CYS85      -0.2867
     86  CB       -20.6540  -11.3610    3.4700 C.3    85  CYS85       0.0956
     87  SG       -21.9180  -11.2880    4.7560 S.3    85  CYS85      -0.0801
     88  N        -19.5070   -5.3490    3.0700 N.3    88  PHE88      -0.1227
     89  CA       -20.7460   -4.5940    2.9140 C.3    88  PHE88       0.1736
     90  C        -21.6370   -4.6160    4.1450 C.2    88  PHE88       0.2595
     91  O        -22.5250   -3.7670    4.2960 O.2    88  PHE88      -0.2718
     92  CB       -21.5330   -5.1210    1.7070 C.3    88  PHE88       0.0547
     93  CG       -22.3970   -4.0720    1.0550 C.ar   88  PHE88      -0.0202
     94  CD1      -21.8400   -3.1340    0.2000 C.ar   88  PHE88      -0.0042
     95  CD2      -23.7560   -4.0120    1.3100 C.ar   88  PHE88      -0.0042
     96  CE1      -22.6200   -2.1610   -0.4000 C.ar   88  PHE88      -0.0003
     97  CE2      -24.5430   -3.0320    0.7030 C.ar   88  PHE88      -0.0003
     98  CZ       -23.9740   -2.1180   -0.1500 C.ar   88  PHE88      -0.0000
     99  N        -21.3970   -5.5750    5.0330 N.am   89  ASN89      -0.1974
    100  CA       -22.2710   -5.7760    6.1860 C.3    89  ASN89       0.1688
    101  C        -21.5670   -5.6270    7.5300 C.2    89  ASN89       0.2292
    102  O        -20.4510   -6.1090    7.7200 O.2    89  ASN89      -0.2864
    103  CB       -22.9180   -7.1670    6.1080 C.3    89  ASN89       0.1181
    104  CG       -23.7720   -7.3490    4.8550 C.2    89  ASN89       0.2629
    105  OD1      -24.9370   -6.9560    4.8290 O.2    89  ASN89      -0.2716
    106  ND2      -23.1950   -7.9570    3.8160 N.am   89  ASN89      -0.0877
    107  N        -27.1350  -10.5070    8.4050 N.3    95  ILE95      -0.1245
    108  CA       -26.3690  -10.9730    7.2530 C.3    95  ILE95       0.1561
    109  C        -24.8870  -11.0980    7.6040 C.2    95  ILE95       0.2260
    110  O        -24.2290  -12.0630    7.2160 O.2    95  ILE95      -0.2867
    111  CB       -26.5350  -10.0310    6.0410 C.3    95  ILE95       0.0252
    112  CG1      -27.9770  -10.0670    5.5370 C.3    95  ILE95       0.0019
    113  CG2      -25.5930  -10.4310    4.9000 C.3    95  ILE95       0.0019
    114  CD1      -28.2270   -9.1300    4.3790 C.3    95  ILE95       0.0001
@<TRIPOS>BOND
     1    46    45    1
     2    46    47    1
     3    61    60    2
     4    62    60   am
     5    45    42    1
     6    60    59    1
     7    47    41    1
     8    57    56    1
     9    57    58    2
    10    51    50    2
    11    56    59    1
    12    56    55    1
    13    40    38    1
    14    42    41    1
    15    42    43    1
    16    41    35   am
    17    50    55   am
    18    50    49    1
    19    44    43    2
    20    43    48   am
    21    39    38    1
    22    38    37    1
    23    37    34    1
    24    72    73    2
    25    72    71    1
    26    35    34    1
    27    35    36    2
    28    48    49    1
    29    34    33    1
    30    49    52    1
    31    63    64    1
    32    76    78   ar
    33    76    75   ar
    34    66    65    2
    35    52    53    1
    36    52    54    1
    37    71    74    1
    38    71    70    1
    39    74    75    1
    40    78    80   ar
    41    65    64    1
    42    75    77   ar
    43    64    67    1
    44    67    69    1
    45    67    68    1
    46    80    81    1
    47    80    79   ar
    48    25    24    2
    49    77    79   ar
    50    24    23    1
    51    96    98   ar
    52    96    94   ar
    53    23    26    1
    54    23    22    1
    55    98    97   ar
    56    18    17    2
    57    94    93   ar
    58    26    27    1
    59    22    17   am
    60    97    95   ar
    61    17    16    1
    62     4     3    2
    63    93    95   ar
    64    93    92    1
    65    28    27   ar
    66    28    30   ar
    67    27    29   ar
    68    92    89    1
    69    82    83    1
    70     3     2    1
    71     3    15   am
    72    16    15    1
    73    16    19    1
    74     2     1    1
    75     2     5    1
    76    30    32   ar
    77    15    21    1
    78    89    88    1
    79    89    90    1
    80    83    86    1
    81    83    84    1
    82    29    31   ar
    83    19    20    1
    84    86    87    1
    85     5     6    1
    86   106   104   am
    87    32    31   ar
    88    84    85    2
    89    21    20    1
    90    90    91    2
    91    90    99   am
    92    11    13   ar
    93    11     8   ar
    94   114   112    1
    95   105   104    2
    96     6     8   ar
    97     6     7   ar
    98   104   103    1
    99   113   111    1
   100    13    14   ar
   101    99   100    1
   102     8    10   ar
   103   112   111    1
   104   111   108    1
   105     7     9   ar
   106   103   100    1
   107   100   101    1
   108    14    12   ar
   109    10     9   ar
   110    10    12   ar
   111   110   109    2
   112   108   109    1
   113   108   107    1
   114   101   102    2
