@<TRIPOS>MOLECULE
tmp/5l8yB00.pdb
 232 223 0 0 0
SMALL
GASTEIGER

@<TRIPOS>ATOM
      1  N         26.7190   26.0770   23.9840 N.3    83  TYR83      -0.1227
      2  CA        26.9920   26.8090   25.2630 C.3    83  TYR83       0.1736
      3  C         26.4770   28.2360   25.2920 C.2    83  TYR83       0.2595
      4  O         25.7330   28.5960   26.1900 O.2    83  TYR83      -0.2718
      5  CB        28.4660   26.7580   25.6220 C.3    83  TYR83       0.0548
      6  CG        28.8050   27.4270   26.9370 C.ar   83  TYR83      -0.0200
      7  CD1       28.4570   26.8200   28.1520 C.ar   83  TYR83      -0.0009
      8  CD2       29.5270   28.6170   26.9760 C.ar   83  TYR83      -0.0009
      9  CE1       28.7910   27.3960   29.3590 C.ar   83  TYR83       0.0417
     10  CE2       29.8720   29.2150   28.1850 C.ar   83  TYR83       0.0417
     11  CZ        29.4990   28.6020   29.3780 C.ar   83  TYR83       0.1957
     12  OH        29.7990   29.1610   30.5870 O.3    83  TYR83      -0.2866
     13  N         26.8590   29.0590   24.3230 N.am   84  HIS84      -0.1975
     14  CA        26.4760   30.4670   24.3340 C.3    84  HIS84       0.1656
     15  C         25.0970   30.6790   23.8050 C.2    84  HIS84       0.2291
     16  O         24.8870   31.4500   22.8620 O.2    84  HIS84      -0.2864
     17  CB        27.5010   31.3510   23.5920 C.3    84  HIS84       0.0771
     18  CG        28.8230   31.4110   24.2800 C.ar   84  HIS84       0.0820
     19  ND1       29.8920   30.6380   23.8970 N.ar   84  HIS84      -0.2267
     20  CD2       29.2330   32.1100   25.3630 C.ar   84  HIS84       0.1154
     21  CE1       30.9160   30.8680   24.7010 C.ar   84  HIS84       0.1986
     22  NE2       30.5400   31.7550   25.6030 N.ar   84  HIS84      -0.2212
     23  N         25.9580   38.1600   25.7030 N.3   125  ASP125     -0.1239
     24  CA        26.3950   37.3160   24.5680 C.3   125  ASP125      0.1674
     25  C         25.4260   37.3140   23.3510 C.2   125  ASP125      0.2266
     26  O         25.4160   36.3590   22.5790 O.2   125  ASP125     -0.2867
     27  CB        26.5960   35.8700   25.0550 C.3   125  ASP125      0.1410
     28  CG        27.9550   35.6430   25.7440 C.2   125  ASP125      0.3668
     29  OD1       27.9390   34.8870   26.7110 O.co2 125  ASP125     -0.2456
     30  OD2       29.0260   36.2060   25.3570 O.co2 125  ASP125     -0.2456
     31  N         25.6120   35.2140   19.7070 N.3   128  HIS128     -0.1241
     32  CA        26.8510   34.4260   19.6630 C.3   128  HIS128      0.1621
     33  C         26.5850   33.2020   18.7510 C.2   128  HIS128      0.2264
     34  O         25.5620   32.5440   18.8660 O.2   128  HIS128     -0.2867
     35  CB        27.2090   33.9750   21.0890 C.3   128  HIS128      0.0745
     36  CG        28.6510   33.6820   21.3240 C.ar  128  HIS128      0.0817
     37  ND1       29.3030   32.6100   20.7580 N.ar  128  HIS128     -0.2268
     38  CD2       29.5590   34.2810   22.1360 C.ar  128  HIS128      0.1154
     39  CE1       30.5560   32.5690   21.1810 C.ar  128  HIS128      0.1986
     40  NE2       30.7370   33.5660   22.0280 N.ar  128  HIS128     -0.2212
     41  N         34.6740   32.0430   18.7340 N.3   132  ASN132     -0.1240
     42  CA        35.3500   33.0940   19.5370 C.3   132  ASN132      0.1653
     43  C         35.9700   34.1450   18.6520 C.2   132  ASN132      0.2266
     44  O         35.9890   34.0050   17.4230 O.2   132  ASN132     -0.2867
     45  CB        36.3730   32.5060   20.5270 C.3   132  ASN132      0.1155
     46  CG        37.5820   31.8750   19.8620 C.2   132  ASN132      0.2627
     47  OD1       37.8950   32.0680   18.6740 O.2   132  ASN132     -0.2716
     48  ND2       38.2820   31.1000   20.6430 N.am  132  ASN132     -0.0877
     49  N         34.0110   41.5130   29.2740 N.3   198  THR198     -0.1218
     50  CA        33.8670   40.0470   29.2690 C.3   198  THR198      0.1862
     51  C         34.7410   39.3760   28.2210 C.2   198  THR198      0.2287
     52  O         34.8690   38.1450   28.2160 O.2   198  THR198     -0.2866
     53  CB        32.4230   39.5650   29.0860 C.3   198  THR198      0.1770
     54  OG1       31.8790   39.9650   27.8070 O.3   198  THR198     -0.2211
     55  CG2       31.5520   40.1010   30.1700 C.3   198  THR198      0.0375
     56  N         37.7800   37.7900   27.1200 N.3   200  MET200     -0.1245
     57  CA        38.8300   37.1260   27.9310 C.3   200  MET200      0.1570
     58  C         40.2590   37.5160   27.5700 C.2   200  MET200      0.2261
     59  O         41.1700   37.3250   28.3900 O.2   200  MET200     -0.2867
     60  CB        38.6810   35.5990   27.9570 C.3   200  MET200      0.0387
     61  CG        37.5510   35.0970   28.8690 C.3   200  MET200      0.0595
     62  SD        37.6900   35.5880   30.6180 S.3   200  MET200     -0.1393
     63  CE        39.0660   34.5770   31.1390 C.3   200  MET200      0.0692
     64  N         30.3780   35.0380   34.3840 N.3   237  ASP237     -0.1225
     65  CA        30.7180   34.4260   33.1350 C.3   237  ASP237      0.1805
     66  C         31.5790   33.2110   33.2880 C.2   237  ASP237      0.2597
     67  O         31.4730   32.3050   32.4820 O.2   237  ASP237     -0.2718
     68  CB        31.4690   35.4280   32.2280 C.3   237  ASP237      0.1424
     69  CG        31.0880   35.3200   30.7750 C.2   237  ASP237      0.3668
     70  OD1       30.0700   34.6650   30.4500 O.co2 237  ASP237     -0.2456
     71  OD2       31.8000   35.9630   29.9580 O.co2 237  ASP237     -0.2456
     72  N         32.4660   33.2000   34.2770 N.am  238  ILE238     -0.1980
     73  CA        33.3040   32.0300   34.5220 C.3   238  ILE238      0.1595
     74  C         32.8990   31.3040   35.8130 C.2   238  ILE238      0.2287
     75  O         33.7290   30.6910   36.4510 O.2   238  ILE238     -0.2864
     76  CB        34.8060   32.3770   34.5350 C.3   238  ILE238      0.0276
     77  CG1       35.1280   33.4550   35.5660 C.3   238  ILE238      0.0022
     78  CG2       35.2660   32.8510   33.1680 C.3   238  ILE238      0.0022
     79  CD1       36.6120   33.5860   35.8090 C.3   238  ILE238      0.0001
     80  N         30.7820   28.7060   36.1670 N.3   240  ASN240     -0.1225
     81  CA        30.4500   27.2830   36.0000 C.3   240  ASN240      0.1785
     82  C         31.1700   26.3810   36.9960 C.2   240  ASN240      0.2597
     83  O         30.5520   25.4650   37.5660 O.2   240  ASN240     -0.2718
     84  CB        30.7940   26.7690   34.6030 C.3   240  ASN240      0.1169
     85  CG        29.9020   27.3450   33.5090 C.2   240  ASN240      0.2627
     86  OD1       30.2430   27.2080   32.3610 O.2   240  ASN240     -0.2716
     87  ND2       28.8150   28.0050   33.8560 N.am  240  ASN240     -0.0877
     88  N         32.4560   26.6320   37.2050 N.am  241  VAL241     -0.1980
     89  CA        33.2280   25.8120   38.1430 C.3   241  VAL241      0.1595
     90  C         32.9400   26.0780   39.6070 C.2   241  VAL241      0.2287
     91  O         33.5090   25.3810   40.4480 O.2   241  VAL241     -0.2864
     92  CB        34.7570   25.8970   37.9230 C.3   241  VAL241      0.0276
     93  CG1       35.1480   25.2690   36.5800 C.3   241  VAL241      0.0022
     94  CG2       35.2840   27.3210   38.0720 C.3   241  VAL241      0.0022
     95  N         28.1990   21.7710   37.3450 N.3   248  SER248     -0.1217
     96  CA        29.4750   22.1450   36.7730 C.3   248  SER248      0.1889
     97  C         29.8520   21.2190   35.5930 C.2   248  SER248      0.2288
     98  O         30.3180   21.6970   34.5510 O.2   248  SER248     -0.2866
     99  CB        30.5480   22.0930   37.8600 C.3   248  SER248      0.2089
    100  OG        31.8460   22.4070   37.3630 O.3   248  SER248     -0.2183
    101  N         30.4980   22.0470   31.6410 N.3   252  ALA252     -0.1245
    102  CA        31.7610   21.7340   31.0050 C.3   252  ALA252      0.1562
    103  C         31.5670   20.9720   29.6810 C.2   252  ALA252      0.2260
    104  O         32.2930   21.2030   28.7100 O.2   252  ALA252     -0.2867
    105  CB        32.6290   20.9370   31.9510 C.3   252  ALA252      0.0290
    106  N         30.2480   23.4730   26.9120 N.3   255  VAL255     -0.1231
    107  CA        31.3220   24.3240   26.3890 C.3   255  VAL255      0.1692
    108  C         32.3600   23.5630   25.5850 C.2   255  VAL255      0.2592
    109  O         32.8650   24.0840   24.5730 O.2   255  VAL255     -0.2718
    110  CB        31.9860   25.2210   27.4630 C.3   255  VAL255      0.0266
    111  CG1       32.7580   24.4700   28.4990 C.3   255  VAL255      0.0020
    112  CG2       32.8970   26.2350   26.8050 C.3   255  VAL255      0.0020
    113  N         32.7050   22.3650   26.0460 N.am  256  THR256     -0.1953
    114  CA        33.6690   21.5200   25.3590 C.3   256  THR256      0.1897
    115  C         33.1920   21.1740   23.9440 C.2   256  THR256      0.2313
    116  O         33.9720   21.2250   22.9900 O.2   256  THR256     -0.2863
    117  CB        33.8940   20.2250   26.1590 C.3   256  THR256      0.1794
    118  OG1       34.6230   20.5450   27.3400 O.3   256  THR256     -0.2208
    119  CG2       34.7060   19.2000   25.3520 C.3   256  THR256      0.0378
    120  N         33.4920   24.4020   21.6570 N.3   259  PHE259     -0.1227
    121  CA        34.8760   24.5610   21.2340 C.3   259  PHE259      0.1736
    122  C         35.1890   23.5660   20.1220 C.2   259  PHE259      0.2595
    123  O         35.8740   23.9140   19.1500 O.2   259  PHE259     -0.2718
    124  CB        35.8530   24.3720   22.3910 C.3   259  PHE259      0.0547
    125  CG        35.9200   25.5370   23.3560 C.ar  259  PHE259     -0.0202
    126  CD1       34.9140   26.5220   23.4220 C.ar  259  PHE259     -0.0042
    127  CD2       36.9680   25.6200   24.2440 C.ar  259  PHE259     -0.0042
    128  CE1       34.9990   27.5670   24.3240 C.ar  259  PHE259     -0.0003
    129  CE2       37.0550   26.6750   25.1490 C.ar  259  PHE259     -0.0003
    130  CZ        36.0650   27.6480   25.1860 C.ar  259  PHE259     -0.0000
    131  N         34.7100   22.3280   20.2780 N.am  260  TYR260     -0.1976
    132  CA        35.0180   21.2860   19.2910 C.3   260  TYR260      0.1639
    133  C         34.4120   21.5970   17.9340 C.2   260  TYR260      0.2290
    134  O         35.0300   21.2920   16.9200 O.2   260  TYR260     -0.2864
    135  CB        34.6450   19.8850   19.7880 C.3   260  TYR260      0.0560
    136  CG        35.5910   19.2890   20.8240 C.ar  260  TYR260     -0.0198
    137  CD1       36.9180   19.7000   20.9290 C.ar  260  TYR260     -0.0009
    138  CD2       35.1510   18.2630   21.6820 C.ar  260  TYR260     -0.0009
    139  CE1       37.7850   19.1380   21.8550 C.ar  260  TYR260      0.0417
    140  CE2       36.0070   17.6960   22.6100 C.ar  260  TYR260      0.0417
    141  CZ        37.3180   18.1430   22.6940 C.ar  260  TYR260      0.1957
    142  OH        38.1890   17.6210   23.6080 O.3   260  TYR260     -0.2866
    143  N         44.9080   22.6550   20.4100 N.3   275  PRO275     -0.2102
    144  CA        44.5730   21.3290   20.9780 C.3   275  PRO275      0.1504
    145  C         43.2050   21.2840   21.6800 C.2   275  PRO275      0.2576
    146  O         42.4010   20.3880   21.4220 O.2   275  PRO275     -0.2718
    147  CB        45.7140   21.0730   21.9800 C.3   275  PRO275      0.0282
    148  CG        46.8230   21.9780   21.5400 C.3   275  PRO275      0.0208
    149  CD        46.1530   23.1930   20.9820 C.3   275  PRO275      0.0893
    150  N         42.9510   22.2940   22.5030 N.am  276  MET276     -0.1966
    151  CA        41.6910   22.5040   23.2280 C.3   276  MET276      0.1736
    152  C         40.4410   22.4290   22.3630 C.2   276  MET276      0.2616
    153  O         39.3760   22.0570   22.8320 O.2   276  MET276     -0.2715
    154  CB        41.7570   23.8950   23.8720 C.3   276  MET276      0.0427
    155  CG        41.1930   24.0270   25.2720 C.3   276  MET276      0.0599
    156  SD        41.5750   25.6770   25.9890 S.3   276  MET276     -0.1393
    157  CE        40.5060   25.6710   27.4290 C.3   276  MET276      0.0692
    158  N         40.5570   22.8540   21.1040 N.am  277  PHE277     -0.1974
    159  CA        39.4200   22.9150   20.1770 C.3   277  PHE277      0.1639
    160  C         39.3340   21.6880   19.2230 C.2   277  PHE277      0.2290
    161  O         38.4200   21.6110   18.4180 O.2   277  PHE277     -0.2864
    162  CB        39.4820   24.2320   19.3770 C.3   277  PHE277      0.0560
    163  CG        39.3020   25.4740   20.2190 C.ar  277  PHE277     -0.0200
    164  CD1       40.3780   25.9950   20.9580 C.ar  277  PHE277     -0.0042
    165  CD2       38.0830   26.1450   20.2600 C.ar  277  PHE277     -0.0042
    166  CE1       40.2330   27.1400   21.7290 C.ar  277  PHE277     -0.0003
    167  CE2       37.9230   27.2910   21.0340 C.ar  277  PHE277     -0.0003
    168  CZ        38.9970   27.7900   21.7680 C.ar  277  PHE277     -0.0000
    169  N         41.4110   13.6930   21.8070 N.3   282  ASN282     -0.1225
    170  CA        40.3930   13.7440   22.8440 C.3   282  ASN282      0.1785
    171  C         41.0370   13.4070   24.1740 C.2   282  ASN282      0.2597
    172  O         41.3590   12.2570   24.4750 O.2   282  ASN282     -0.2718
    173  CB        39.1630   12.8890   22.5260 C.3   282  ASN282      0.1169
    174  CG        37.9050   13.4380   23.1820 C.2   282  ASN282      0.2627
    175  OD1       37.4410   14.5260   22.8330 O.2   282  ASN282     -0.2716
    176  ND2       37.3530   12.6970   24.1370 N.am  282  ASN282     -0.0877
    177  N         41.3320   14.4670   24.9120 N.am  283  MET283     -0.1965
    178  CA        41.8480   14.3450   26.2450 C.3   283  MET283      0.1736
    179  C         40.6820   14.2690   27.2060 C.2   283  MET283      0.2616
    180  O         39.5110   14.2840   26.8050 O.2   283  MET283     -0.2715
    181  CB        42.7770   15.5310   26.5460 C.3   283  MET283      0.0427
    182  CG        43.9060   15.7650   25.5350 C.3   283  MET283      0.0599
    183  SD        44.6230   14.2040   24.9360 S.3   283  MET283     -0.1393
    184  CE        45.5020   14.6680   23.4430 C.3   283  MET283      0.0692
    185  N         41.0080   14.1050   28.4790 N.am  284  GLU284     -0.1963
    186  CA        39.9660   13.9320   29.4820 C.3   284  GLU284      0.1733
    187  C         39.2410   15.2660   29.7350 C.2   284  GLU284      0.2616
    188  O         39.8690   16.3370   29.7930 O.2   284  GLU284     -0.2715
    189  CB        40.5250   13.2690   30.7610 C.3   284  GLU284      0.0429
    190  CG        41.2480   11.9460   30.5200 C.3   284  GLU284      0.1163
    191  CD        40.7250   10.7440   31.3110 C.2   284  GLU284      0.3649
    192  OE1       41.5800    9.9970   31.8350 O.co2 284  GLU284     -0.2457
    193  OE2       39.4900   10.5190   31.3970 O.co2 284  GLU284     -0.2457
    194  N         37.9090   15.2020   29.7790 N.am  285  LEU285     -0.1977
    195  CA        37.0910   16.3060   30.3110 C.3   285  LEU285      0.1596
    196  C         37.6200   16.8790   31.6180 C.2   285  LEU285      0.2287
    197  O         37.7500   18.1010   31.8150 O.2   285  LEU285     -0.2864
    198  CB        35.6660   15.8150   30.5640 C.3   285  LEU285      0.0297
    199  CG        34.6370   16.8820   30.9480 C.3   285  LEU285      0.0022
    200  CD1       34.3430   17.8050   29.7690 C.3   285  LEU285      0.0001
    201  CD2       33.3590   16.2250   31.4600 C.3   285  LEU285      0.0001
    202  N         40.8420   19.0860   31.3620 N.3   288  GLY288     -0.1210
    203  CA        40.5420   20.4460   30.9490 C.3   288  GLY288      0.1956
    204  C         40.0390   21.2600   32.1250 C.2   288  GLY288      0.2611
    205  O         40.5360   22.3490   32.3790 O.2   288  GLY288     -0.2717
    206  N         39.0420   20.7310   32.8320 N.am  289  GLN289     -0.1979
    207  CA        38.4690   21.4220   33.9720 C.3   289  GLN289      0.1601
    208  C         39.5010   21.7230   35.0470 C.2   289  GLN289      0.2287
    209  O         39.4950   22.8160   35.5920 O.2   289  GLN289     -0.2864
    210  CB        37.2990   20.6340   34.5790 C.3   289  GLN289      0.0394
    211  CG        36.0460   20.5870   33.7120 C.3   289  GLN289      0.0908
    212  CD        35.5200   21.9590   33.3320 C.2   289  GLN289      0.2608
    213  OE1       34.8570   22.6470   34.1200 O.2   289  GLN289     -0.2717
    214  NE2       35.8270   22.3650   32.1150 N.am  289  GLN289     -0.0878
    215  N         41.6900   24.5300   33.7320 N.3   292  PHE292     -0.1241
    216  CA        40.9670   25.8020   33.8090 C.3   292  PHE292      0.1605
    217  C         40.8790   26.3110   35.2600 C.2   292  PHE292      0.2264
    218  O         41.0680   27.4940   35.5170 O.2   292  PHE292     -0.2867
    219  CB        39.5750   25.6600   33.1960 C.3   292  PHE292      0.0534
    220  CG        38.8020   26.9330   33.1580 C.ar  292  PHE292     -0.0203
    221  CD1       39.1490   27.9320   32.2480 C.ar  292  PHE292     -0.0042
    222  CD2       37.7270   27.1470   34.0230 C.ar  292  PHE292     -0.0042
    223  CE1       38.4340   29.1270   32.2000 C.ar  292  PHE292     -0.0003
    224  CE2       37.0170   28.3440   33.9860 C.ar  292  PHE292     -0.0003
    225  CZ        37.3640   29.3270   33.0650 C.ar  292  PHE292     -0.0000
    226  N         43.0290   29.6690   35.5840 N.3   296  VAL296     -0.1245
    227  CA        42.0810   30.8080   35.4320 C.3   296  VAL296      0.1561
    228  C         41.1790   31.0330   36.6430 C.2   296  VAL296      0.2260
    229  O         41.2810   32.0700   37.3030 O.2   296  VAL296     -0.2867
    230  CB        41.2260   30.6410   34.1700 C.3   296  VAL296      0.0252
    231  CG1       40.2810   31.8250   33.9800 C.3   296  VAL296      0.0019
    232  CG2       42.1260   30.4630   32.9520 C.3   296  VAL296      0.0019
@<TRIPOS>BOND
     1   134   133    2
     2    44    43    2
     3   133   132    1
     4   161   160    2
     5    43    42    1
     6    47    46    2
     7    41    42    1
     8    33    34    2
     9    33    32    1
    10   123   122    2
    11   160   159    1
    12   132   135    1
    13   132   131    1
    14   162   159    1
    15   162   163    1
    16    42    45    1
    17    32    31    1
    18    32    35    1
    19   135   136    1
    20    46    45    1
    21    46    48   am
    22   122   131   am
    23   122   121    1
    24   159   158    1
    25   163   165   ar
    26   163   164   ar
    27   165   167   ar
    28   143   144    1
    29   143   149    1
    30    37    39   ar
    31    37    36   ar
    32   136   137   ar
    33   136   138   ar
    34   137   139   ar
    35   164   166   ar
    36   144   145    1
    37   144   147    1
    38   149   148    1
    39   167   168   ar
    40    35    36    1
    41   158   152   am
    42    39    40   ar
    43   121   120    1
    44   121   124    1
    45    36    38   ar
    46   146   145    2
    47   148   147    1
    48   145   150   am
    49   138   140   ar
    50   166   168   ar
    51   169   170    1
    52   139   141   ar
    53    40    38   ar
    54   152   153    2
    55   152   151    1
    56   124   125    1
    57   150   151    1
    58   173   170    1
    59   173   174    1
    60    26    25    2
    61   140   141   ar
    62   141   142    1
    63   175   174    2
    64   170   171    1
    65    16    15    2
    66   116   115    2
    67   174   176   am
    68   151   154    1
    69    25    24    1
    70   125   126   ar
    71   125   127   ar
    72   126   128   ar
    73   184   183    1
    74    17    18    1
    75    17    14    1
    76    15    14    1
    77   154   155    1
    78    19    18   ar
    79    19    21   ar
    80   115   114    1
    81     1     2    1
    82   171   172    2
    83   171   177   am
    84   127   129   ar
    85    18    20   ar
    86    13    14    1
    87    13     3   am
    88   128   130   ar
    89    24    27    1
    90    24    23    1
    91   109   108    2
    92    21    22   ar
    93   177   178    1
    94   183   182    1
    95    27    28    1
    96   129   130   ar
    97     2     3    1
    98     2     5    1
    99   155   156    1
   100     3     4    2
   101   119   117    1
   102    30    28   ar
   103   114   113    1
   104   114   117    1
   105    20    22   ar
   106   182   181    1
   107   108   113   am
   108   108   107    1
   109     5     6    1
   110    28    29   ar
   111   156   157    1
   112   117   118    1
   113   178   181    1
   114   178   179    1
   115   107   106    1
   116   107   110    1
   117   112   110    1
   118   180   179    2
   119     6     8   ar
   120     6     7   ar
   121     8    10   ar
   122    56    57    1
   123   179   185   am
   124   110   111    1
   125    58    57    1
   126    58    59    2
   127    54    53    1
   128    57    60    1
   129    60    61    1
   130     7     9   ar
   131    10    11   ar
   132    52    51    2
   133    51    50    1
   134   185   186    1
   135   104   103    2
   136    61    62    1
   137    53    50    1
   138    53    55    1
   139    50    49    1
   140     9    11   ar
   141    11    12    1
   142   186   187    1
   143   186   189    1
   144   103   102    1
   145   187   194   am
   146   187   188    2
   147   200   199    1
   148   194   195    1
   149    71    69   ar
   150   195   198    1
   151   195   196    1
   152    70    69   ar
   153   190   189    1
   154   190   191    1
   155   198   199    1
   156    62    63    1
   157    69    68    1
   158   199   201    1
   159   203   202    1
   160   203   204    1
   161   102   101    1
   162   102   105    1
   163   191   193   ar
   164   191   192   ar
   165   196   197    2
   166   214   212   am
   167   204   205    2
   168   204   206   am
   169   223   221   ar
   170   223   225   ar
   171    68    65    1
   172   221   220   ar
   173    86    85    2
   174    67    66    2
   175   206   207    1
   176   232   230    1
   177   225   224   ar
   178    65    66    1
   179    65    64    1
   180   220   219    1
   181   220   222   ar
   182    78    76    1
   183   219   216    1
   184    66    72   am
   185   212   211    1
   186   212   213    2
   187    85    87   am
   188    85    84    1
   189   211   210    1
   190   215   216    1
   191   216   217    1
   192   207   210    1
   193   207   208    1
   194   231   230    1
   195   224   222   ar
   196   230   227    1
   197    72    73    1
   198    73    76    1
   199    73    74    1
   200    76    77    1
   201    98    97    2
   202    84    81    1
   203   208   209    2
   204   217   218    2
   205   227   226    1
   206   227   228    1
   207    77    79    1
   208    97    96    1
   209    74    75    2
   210    81    80    1
   211    81    82    1
   212    93    92    1
   213   228   229    2
   214    96    95    1
   215    96    99    1
   216    82    88   am
   217    82    83    2
   218    88    89    1
   219   100    99    1
   220    92    94    1
   221    92    89    1
   222    89    90    1
   223    90    91    2
