@<TRIPOS>MOLECULE
tmp/5l91A01.pdb
 124 114 0 0 0
SMALL
GASTEIGER

@<TRIPOS>ATOM
      1  N         28.1080   71.7420   44.7930 N.3    69  ILE69      -0.1245
      2  CA        28.3670   70.6030   45.6500 C.3    69  ILE69       0.1561
      3  C         29.5820   69.8120   45.2170 C.2    69  ILE69       0.2260
      4  O         30.0550   68.9500   45.9860 O.2    69  ILE69      -0.2867
      5  CB        27.0970   69.7320   45.6870 C.3    69  ILE69       0.0252
      6  CG1       27.1380   68.8240   46.8910 C.3    69  ILE69       0.0019
      7  CG2       26.9590   68.8650   44.3860 C.3    69  ILE69       0.0019
      8  CD1       25.7860   68.1550   47.2140 C.3    69  ILE69       0.0001
      9  N         15.1180   62.2010   35.8890 N.3   152  ILE152     -0.1231
     10  CA        16.4150   62.3680   36.5080 C.3   152  ILE152      0.1692
     11  C         16.5780   61.4780   37.7340 C.2   152  ILE152      0.2592
     12  O         17.7020   61.1320   38.1000 O.2   152  ILE152     -0.2718
     13  CB        16.6420   63.8660   36.7520 C.3   152  ILE152      0.0266
     14  CG1       17.2050   64.4290   35.4460 C.3   152  ILE152      0.0019
     15  CG2       17.5520   64.1140   37.9300 C.3   152  ILE152      0.0020
     16  CD1       17.4920   65.9000   35.4180 C.3   152  ILE152      0.0001
     17  N         15.4920   61.0780   38.3850 N.am  153  VAL153     -0.1966
     18  CA        15.6280   60.2340   39.5710 C.3   153  VAL153      0.1727
     19  C         15.0710   58.8390   39.3520 C.2   153  VAL153      0.2616
     20  O         14.9380   58.0790   40.3080 O.2   153  VAL153     -0.2715
     21  CB        14.9960   60.8860   40.8130 C.3   153  VAL153      0.0290
     22  CG1       15.5380   62.2780   40.9960 C.3   153  VAL153      0.0023
     23  CG2       13.4720   60.8880   40.7180 C.3   153  VAL153      0.0023
     24  N         14.7710   58.4660   38.1140 N.am  154  ALA154     -0.1977
     25  CA        14.1460   57.1710   37.8640 C.3   154  ALA154      0.1597
     26  C         15.1380   56.0330   38.0980 C.2   154  ALA154      0.2287
     27  O         16.3510   56.1900   37.9440 O.2   154  ALA154     -0.2864
     28  CB        13.5930   57.0950   36.4270 C.3   154  ALA154      0.0319
     29  N         18.3250   60.1260   30.9990 N.3   171  LYS171     -0.1245
     30  CA        18.7680   61.0950   31.9980 C.3   171  LYS171      0.1561
     31  C         19.6320   62.1760   31.3720 C.2   171  LYS171      0.2260
     32  O         19.4920   63.3620   31.6970 O.2   171  LYS171     -0.2867
     33  CB        19.5390   60.3950   33.1180 C.3   171  LYS171      0.0271
     34  CG        18.6770   59.4150   33.9030 C.3   171  LYS171      0.0035
     35  CD        19.2400   59.1060   35.3010 C.3   171  LYS171      0.0206
     36  CE        18.3580   58.1040   36.0180 C.3   171  LYS171      0.1093
     37  NZ        18.5880   58.1480   37.4750 N.3   171  LYS171     -0.1314
     38  N         20.8930   71.4800   40.2100 N.3   222  LEU222     -0.1245
     39  CA        21.3220   70.9430   41.4910 C.3   222  LEU222      0.1561
     40  C         20.2050   71.0570   42.5350 C.2   222  LEU222      0.2260
     41  O         19.9010   70.0710   43.2060 O.2   222  LEU222     -0.2867
     42  CB        22.5860   71.6450   41.9330 C.3   222  LEU222      0.0270
     43  CG        23.0530   71.3050   43.3380 C.3   222  LEU222      0.0019
     44  CD1       23.4500   69.8490   43.4370 C.3   222  LEU222      0.0001
     45  CD2       24.1720   72.2170   43.7230 C.3   222  LEU222      0.0001
     46  N         17.9300   68.1400   42.1730 N.3   225  ILE225     -0.1231
     47  CA        18.4450   66.8380   42.4830 C.3   225  ILE225      0.1692
     48  C         18.6840   66.7240   43.9750 C.2   225  ILE225      0.2591
     49  O         18.4220   65.6880   44.5620 O.2   225  ILE225     -0.2718
     50  CB        19.7130   66.5680   41.6750 C.3   225  ILE225      0.0266
     51  CG1       19.3280   66.3490   40.2040 C.3   225  ILE225      0.0019
     52  CG2       20.4420   65.3580   42.2450 C.3   225  ILE225      0.0020
     53  CD1       20.4190   66.5820   39.3230 C.3   225  ILE225      0.0001
     54  N         19.2060   67.7790   44.5780 N.am  226  ALA226     -0.1980
     55  CA        19.5910   67.7580   45.9770 C.3   226  ALA226      0.1597
     56  C         18.3960   67.9090   46.8900 C.2   226  ALA226      0.2287
     57  O         18.4150   67.3730   48.0050 O.2   226  ALA226     -0.2864
     58  CB        20.6050   68.8690   46.2330 C.3   226  ALA226      0.0319
     59  N         14.0900   64.5260   46.2750 N.3   229  GLU229     -0.1231
     60  CA        13.8950   63.2320   46.8990 C.3   229  GLU229      0.1699
     61  C         14.2460   63.2580   48.3910 C.2   229  GLU229      0.2592
     62  O         13.6310   62.5420   49.1670 O.2   229  GLU229     -0.2718
     63  CB        14.7140   62.1780   46.1830 C.3   229  GLU229      0.0402
     64  CG        14.3980   60.8130   46.7360 C.3   229  GLU229      0.1161
     65  CD        14.9530   59.6730   45.9080 C.2   229  GLU229      0.3649
     66  OE1       14.3320   59.2590   44.9100 O.co2 229  GLU229     -0.2457
     67  OE2       16.0260   59.2040   46.2780 O.co2 229  GLU229     -0.2457
     68  N         15.2090   64.0870   48.7930 N.am  230  THR230     -0.1953
     69  CA        15.5550   64.2220   50.1950 C.3   230  THR230      0.1897
     70  C         14.3670   64.7240   51.0160 C.2   230  THR230      0.2313
     71  O         14.0360   64.1550   52.0540 O.2   230  THR230     -0.2863
     72  CB        16.7210   65.1790   50.3270 C.3   230  THR230      0.1794
     73  OG1       16.4310   66.3340   49.5620 O.3   230  THR230     -0.2208
     74  CG2       17.9830   64.5830   49.8490 C.3   230  THR230      0.0378
     75  N         19.5560   61.2650   53.8230 N.3   273  VAL273     -0.1245
     76  CA        20.8990   61.0160   53.3090 C.3   273  VAL273      0.1561
     77  C         21.6910   60.3090   54.4060 C.2   273  VAL273      0.2260
     78  O         22.0060   60.9100   55.4480 O.2   273  VAL273     -0.2867
     79  CB        21.5970   62.3140   52.8710 C.3   273  VAL273      0.0252
     80  CG1       22.9490   61.9870   52.2040 C.3   273  VAL273      0.0019
     81  CG2       20.7130   63.1320   51.8860 C.3   273  VAL273      0.0019
     82  N         24.8150   58.8370   53.9030 N.3   275  ALA275     -0.1231
     83  CA        26.2530   58.8610   53.6980 C.3   275  ALA275      0.1694
     84  C         26.5890   59.8490   52.5860 C.2   275  ALA275      0.2591
     85  O         25.7670   60.1360   51.7130 O.2   275  ALA275     -0.2718
     86  CB        26.7830   57.4690   53.3400 C.3   275  ALA275      0.0304
     87  N         27.8250   60.3320   52.6100 N.am  276  LEU276     -0.1980
     88  CA        28.3380   61.2220   51.5710 C.3   276  LEU276      0.1596
     89  C         29.6150   60.6690   50.9750 C.2   276  LEU276      0.2287
     90  O         29.9820   59.5150   51.2380 O.2   276  LEU276     -0.2864
     91  CB        28.5850   62.6240   52.1250 C.3   276  LEU276      0.0297
     92  CG        27.3080   63.3840   52.4940 C.3   276  LEU276      0.0022
     93  CD1       27.6850   64.6540   53.1680 C.3   276  LEU276      0.0001
     94  CD2       26.4980   63.6560   51.2560 C.3   276  LEU276      0.0001
     95  N         23.9080   72.0280   53.8670 N.3   336  CYS336     -0.1235
     96  CA        22.7820   72.1750   52.9530 C.3   336  CYS336      0.1677
     97  C         22.1560   73.5580   53.0250 C.2   336  CYS336      0.2270
     98  O         21.6360   73.9600   54.0640 O.2   336  CYS336     -0.2867
     99  CB        21.7320   71.1250   53.2900 C.3   336  CYS336      0.0956
    100  SG        20.2900   71.1990   52.2800 S.3   336  CYS336     -0.0801
    101  N         18.8210   51.5850   48.0010 N.3   373  SER373     -0.1217
    102  CA        19.9540   52.4920   47.9880 C.3   373  SER373      0.1889
    103  C         20.6700   52.3680   49.3170 C.2   373  SER373      0.2288
    104  O         20.0420   52.0460   50.3340 O.2   373  SER373     -0.2866
    105  CB        19.5040   53.9420   47.7840 C.3   373  SER373      0.2089
    106  OG        20.5530   54.8440   47.9940 O.3   373  SER373     -0.2183
    107  N         22.9890   55.0330   50.0150 N.3   375  PHE375     -0.1227
    108  CA        23.2180   56.4160   50.3740 C.3   375  PHE375      0.1736
    109  C         21.9350   57.1360   50.7820 C.2   375  PHE375      0.2595
    110  O         21.9930   58.1540   51.4860 O.2   375  PHE375     -0.2718
    111  CB        23.8830   57.1270   49.2160 C.3   375  PHE375      0.0547
    112  CG        25.3130   56.7940   49.0770 C.ar  375  PHE375     -0.0202
    113  CD1       25.7340   55.6160   48.4700 C.ar  375  PHE375     -0.0042
    114  CD2       26.2440   57.6540   49.5710 C.ar  375  PHE375     -0.0042
    115  CE1       27.0830   55.3370   48.3760 C.ar  375  PHE375     -0.0003
    116  CE2       27.5810   57.3790   49.4870 C.ar  375  PHE375     -0.0003
    117  CZ        28.0120   56.2260   48.9080 C.ar  375  PHE375     -0.0000
    118  N         20.8000   56.6490   50.2930 N.am  376  VAL376     -0.1980
    119  CA        19.5030   57.2730   50.4440 C.3   376  VAL376      0.1595
    120  C         18.6040   56.3480   51.2340 C.2   376  VAL376      0.2287
    121  O         18.5330   55.1480   50.9560 O.2   376  VAL376     -0.2864
    122  CB        18.9560   57.5960   49.0370 C.3   376  VAL376      0.0276
    123  CG1       17.5730   58.0190   49.0480 C.3   376  VAL376      0.0022
    124  CG2       19.8170   58.7070   48.4910 C.3   376  VAL376      0.0022
@<TRIPOS>BOND
     1    29    30    1
     2    31    32    2
     3    31    30    1
     4    30    33    1
     5    33    34    1
     6    34    35    1
     7    35    36    1
     8    16    14    1
     9    14    13    1
    10     9    10    1
    11    36    37    1
    12    28    25    1
    13    10    13    1
    14    10    11    1
    15    13    15    1
    16    11    12    2
    17    11    17   am
    18    25    26    1
    19    25    24    1
    20    27    26    2
    21    24    19   am
    22    17    18    1
    23    53    51    1
    24    19    18    1
    25    19    20    2
    26    18    21    1
    27    51    50    1
    28    38    39    1
    29    23    21    1
    30    21    22    1
    31    39    42    1
    32    39    40    1
    33    50    52    1
    34    50    47    1
    35    42    43    1
    36    46    47    1
    37    47    48    1
    38    40    41    2
    39    43    44    1
    40    43    45    1
    41    48    49    2
    42    48    54   am
    43     7     5    1
    44    54    55    1
    45     1     2    1
    46    66    65   ar
    47     3     2    1
    48     3     4    2
    49     2     5    1
    50     5     6    1
    51    65    67   ar
    52    65    64    1
    53    55    58    1
    54    55    56    1
    55    63    64    1
    56    63    60    1
    57    59    60    1
    58    56    57    2
    59     6     8    1
    60    60    61    1
    61   105   102    1
    62   105   106    1
    63   102   101    1
    64   102   103    1
    65   115   113   ar
    66   115   117   ar
    67    61    68   am
    68    61    62    2
    69   113   112   ar
    70   124   122    1
    71    68    69    1
    72   117   116   ar
    73   122   123    1
    74   122   119    1
    75   112   111    1
    76   112   114   ar
    77   111   108    1
    78   103   104    2
    79   116   114   ar
    80    73    72    1
    81    74    72    1
    82   107   108    1
    83    69    72    1
    84    69    70    1
    85   118   119    1
    86   118   109   am
    87   108   109    1
    88   119   120    1
    89   109   110    2
    90   121   120    2
    91    89    90    2
    92    89    88    1
    93    70    71    2
    94    94    92    1
    95    88    91    1
    96    88    87    1
    97    85    84    2
    98    81    79    1
    99    91    92    1
   100    80    79    1
   101   100    99    1
   102    92    93    1
   103    84    87   am
   104    84    83    1
   105    79    76    1
   106    96    97    1
   107    96    99    1
   108    96    95    1
   109    97    98    2
   110    76    75    1
   111    76    77    1
   112    86    83    1
   113    83    82    1
   114    77    78    2
