@<TRIPOS>MOLECULE
tmp/5l91A03.pdb
 104 99 0 0 0
SMALL
GASTEIGER

@<TRIPOS>ATOM
      1  N         34.5700   47.9130   47.0530 N.3    28  ARG28      -0.1231
      2  CA        34.0760   49.2540   46.7780 C.3    28  ARG28       0.1694
      3  C         35.1880   50.2750   46.6790 C.2    28  ARG28       0.2592
      4  O         34.9430   51.4080   46.2560 O.2    28  ARG28      -0.2718
      5  CB        33.0850   49.6120   47.8830 C.3    28  ARG28       0.0321
      6  CG        31.7660   48.8960   47.6810 C.3    28  ARG28       0.0489
      7  CD        30.7640   49.2290   48.8000 C.3    28  ARG28       0.2205
      8  NE        30.7970   50.6210   49.2440 N.pl3  28  ARG28      -0.0865
      9  CZ        31.0890   51.0050   50.4900 C.cat  28  ARG28       0.5346
     10  NH1       31.3810   50.1020   51.4120 N.pl3  28  ARG28       0.1354
     11  NH2       31.0890   52.2810   50.8040 N.pl3  28  ARG28       0.1354
     12  N         36.3980   49.9130   47.0910 N.am   29  GLN29      -0.1966
     13  CA        37.5330   50.8170   46.9970 C.3    29  GLN29       0.1733
     14  C         37.2770   52.1200   47.7500 C.2    29  GLN29       0.2616
     15  O         37.5380   53.2130   47.2520 O.2    29  GLN29      -0.2715
     16  CB        37.8850   51.0840   45.5350 C.3    29  GLN29       0.0408
     17  CG        38.5640   49.8970   44.8370 C.3    29  GLN29       0.0908
     18  CD        40.0480   49.8490   45.1280 C.2    29  GLN29       0.2608
     19  OE1       40.7930   50.7670   44.7770 O.2    29  GLN29      -0.2717
     20  NE2       40.4870   48.7760   45.7600 N.am   29  GLN29      -0.0878
     21  N         36.7990   52.0050   48.9920 N.am   30  VAL30      -0.1977
     22  CA        36.5510   53.1950   49.7990 C.3    30  VAL30       0.1596
     23  C         36.8500   52.9160   51.2550 C.2    30  VAL30       0.2287
     24  O         36.7840   51.7740   51.7290 O.2    30  VAL30      -0.2864
     25  CB        35.0920   53.7070   49.6860 C.3    30  VAL30       0.0276
     26  CG1       34.7350   54.1100   48.2380 C.3    30  VAL30       0.0022
     27  CG2       34.1300   52.6430   50.2500 C.3    30  VAL30       0.0022
     28  N         34.5070   66.7370   42.3740 N.3    53  ARG53      -0.1245
     29  CA        34.1870   65.6340   41.4900 C.3    53  ARG53       0.1563
     30  C         33.9260   66.1520   40.0730 C.2    53  ARG53       0.2260
     31  O         33.1990   65.5400   39.2950 O.2    53  ARG53      -0.2867
     32  CB        32.9890   64.8440   42.0300 C.3    53  ARG53       0.0307
     33  CG        33.0280   64.5870   43.5540 C.3    53  ARG53       0.0489
     34  CD        31.6850   64.1120   44.0660 C.3    53  ARG53       0.2205
     35  NE        31.6020   64.2220   45.5190 N.pl3  53  ARG53      -0.0865
     36  CZ        31.0600   65.2430   46.1680 C.cat  53  ARG53       0.5346
     37  NH1       30.5230   66.2730   45.5200 N.pl3  53  ARG53       0.1354
     38  NH2       31.0490   65.2280   47.4900 N.pl3  53  ARG53       0.1354
     39  N         28.1080   71.7420   44.7930 N.3    69  ILE69      -0.1245
     40  CA        28.3670   70.6030   45.6500 C.3    69  ILE69       0.1561
     41  C         29.5820   69.8120   45.2170 C.2    69  ILE69       0.2260
     42  O         30.0550   68.9500   45.9860 O.2    69  ILE69      -0.2867
     43  CB        27.0970   69.7320   45.6870 C.3    69  ILE69       0.0252
     44  CG1       27.1380   68.8240   46.8910 C.3    69  ILE69       0.0019
     45  CG2       26.9590   68.8650   44.3860 C.3    69  ILE69       0.0019
     46  CD1       25.7860   68.1550   47.2140 C.3    69  ILE69       0.0001
     47  N         19.5560   61.2650   53.8230 N.3   273  VAL273     -0.1245
     48  CA        20.8990   61.0160   53.3090 C.3   273  VAL273      0.1561
     49  C         21.6910   60.3090   54.4060 C.2   273  VAL273      0.2260
     50  O         22.0060   60.9100   55.4480 O.2   273  VAL273     -0.2867
     51  CB        21.5970   62.3140   52.8710 C.3   273  VAL273      0.0252
     52  CG1       22.9490   61.9870   52.2040 C.3   273  VAL273      0.0019
     53  CG2       20.7130   63.1320   51.8860 C.3   273  VAL273      0.0019
     54  N         24.8150   58.8370   53.9030 N.3   275  ALA275     -0.1231
     55  CA        26.2530   58.8610   53.6980 C.3   275  ALA275      0.1694
     56  C         26.5890   59.8490   52.5860 C.2   275  ALA275      0.2592
     57  O         25.7670   60.1360   51.7130 O.2   275  ALA275     -0.2718
     58  CB        26.7830   57.4690   53.3400 C.3   275  ALA275      0.0304
     59  N         27.8250   60.3320   52.6100 N.am  276  LEU276     -0.1966
     60  CA        28.3380   61.2220   51.5710 C.3   276  LEU276      0.1728
     61  C         29.6150   60.6690   50.9750 C.2   276  LEU276      0.2616
     62  O         29.9820   59.5150   51.2380 O.2   276  LEU276     -0.2715
     63  CB        28.5850   62.6240   52.1250 C.3   276  LEU276      0.0311
     64  CG        27.3080   63.3840   52.4940 C.3   276  LEU276      0.0022
     65  CD1       27.6850   64.6540   53.1680 C.3   276  LEU276      0.0001
     66  CD2       26.4980   63.6560   51.2560 C.3   276  LEU276      0.0001
     67  N         30.2870   61.4760   50.1580 N.am  277  HIS277     -0.1973
     68  CA        31.4580   61.0220   49.4400 C.3   277  HIS277      0.1656
     69  C         32.4870   62.1250   49.4830 C.2   277  HIS277      0.2291
     70  O         32.1460   63.2970   49.3470 O.2   277  HIS277     -0.2864
     71  CB        31.1440   60.6290   48.0000 C.3   277  HIS277      0.0771
     72  CG        32.3580   60.2810   47.2130 C.ar  277  HIS277      0.0820
     73  ND1       32.9520   61.1650   46.3370 N.ar  277  HIS277     -0.2267
     74  CD2       33.1210   59.1640   47.1990 C.ar  277  HIS277      0.1154
     75  CE1       34.0110   60.5940   45.7900 C.ar  277  HIS277      0.1986
     76  NE2       34.1380   59.3820   46.3000 N.ar  277  HIS277     -0.2212
     77  N         39.2630   57.2990   48.2560 N.3   296  HIS296     -0.1241
     78  CA        37.8850   57.7300   48.4250 C.3   296  HIS296      0.1621
     79  C         37.3770   57.4300   49.8380 C.2   296  HIS296      0.2264
     80  O         37.6770   56.3720   50.4030 O.2   296  HIS296     -0.2867
     81  CB        37.0290   57.0070   47.3950 C.3   296  HIS296      0.0745
     82  CG        37.1710   57.5570   46.0210 C.ar  296  HIS296      0.0817
     83  ND1       36.1720   57.4690   45.0810 N.ar  296  HIS296     -0.2268
     84  CD2       38.1740   58.2580   45.4460 C.ar  296  HIS296      0.1154
     85  CE1       36.5690   58.0600   43.9710 C.ar  296  HIS296      0.1986
     86  NE2       37.7740   58.5540   44.1720 N.ar  296  HIS296     -0.2212
     87  N         33.8290   57.5060   52.4050 N.3   298  VAL298     -0.1245
     88  CA        32.3860   57.5360   52.5620 C.3   298  VAL298      0.1561
     89  C         32.0600   57.6740   54.0540 C.2   298  VAL298      0.2260
     90  O         31.9940   56.6810   54.7870 O.2   298  VAL298     -0.2867
     91  CB        31.7350   56.2800   51.9750 C.3   298  VAL298      0.0252
     92  CG1       30.2690   56.2830   52.2860 C.3   298  VAL298      0.0019
     93  CG2       31.9870   56.2070   50.4480 C.3   298  VAL298      0.0019
     94  N         22.9890   55.0330   50.0150 N.3   375  PHE375     -0.1241
     95  CA        23.2180   56.4160   50.3740 C.3   375  PHE375      0.1605
     96  C         21.9350   57.1360   50.7820 C.2   375  PHE375      0.2264
     97  O         21.9930   58.1540   51.4860 O.2   375  PHE375     -0.2867
     98  CB        23.8830   57.1270   49.2160 C.3   375  PHE375      0.0534
     99  CG        25.3130   56.7940   49.0770 C.ar  375  PHE375     -0.0203
    100  CD1       25.7340   55.6160   48.4700 C.ar  375  PHE375     -0.0042
    101  CD2       26.2440   57.6540   49.5710 C.ar  375  PHE375     -0.0042
    102  CE1       27.0830   55.3370   48.3760 C.ar  375  PHE375     -0.0003
    103  CE2       27.5810   57.3790   49.4870 C.ar  375  PHE375     -0.0003
    104  CZ        28.0120   56.2260   48.9080 C.ar  375  PHE375     -0.0000
@<TRIPOS>BOND
     1    31    30    2
     2    30    29    1
     3    29    32    1
     4    29    28    1
     5    32    33    1
     6    33    34    1
     7    85    86   ar
     8    85    83   ar
     9    34    35    1
    10    86    84   ar
    11    45    43    1
    12    19    18    2
    13    39    40    1
    14    17    18    1
    15    17    16    1
    16    83    82   ar
    17    18    20   am
    18    41    40    1
    19    41    42    2
    20    84    82   ar
    21    35    36    2
    22    37    36    1
    23    16    13    1
    24    40    43    1
    25    43    44    1
    26    75    76   ar
    27    75    73   ar
    28    82    81    1
    29    36    38    1
    30     4     3    2
    31    76    74   ar
    32    73    72   ar
    33     3     2    1
    34     3    12   am
    35     2     1    1
    36     2     5    1
    37    44    46    1
    38    13    12    1
    39    13    14    1
    40    74    72   ar
    41    72    71    1
    42    15    14    2
    43    81    78    1
    44     6     5    1
    45     6     7    1
    46    14    21   am
    47    71    68    1
    48    26    25    1
    49    77    78    1
    50   102   100   ar
    51   102   104   ar
    52    78    79    1
    53   100    99   ar
    54     7     8    1
    55   104   103   ar
    56    21    22    1
    57    99    98    1
    58    99   101   ar
    59    98    95    1
    60     8     9    2
    61    70    69    2
    62    68    69    1
    63    68    67    1
    64   103   101   ar
    65    25    22    1
    66    25    27    1
    67    22    23    1
    68    79    80    2
    69    94    95    1
    70    67    61   am
    71    95    96    1
    72    93    91    1
    73     9    11    1
    74     9    10    1
    75    96    97    2
    76    61    62    2
    77    61    60    1
    78    23    24    2
    79    66    64    1
    80    60    63    1
    81    60    59    1
    82    57    56    2
    83    53    51    1
    84    91    92    1
    85    91    88    1
    86    63    64    1
    87    52    51    1
    88    87    88    1
    89    64    65    1
    90    88    89    1
    91    56    59   am
    92    56    55    1
    93    51    48    1
    94    48    47    1
    95    48    49    1
    96    58    55    1
    97    55    54    1
    98    89    90    2
    99    49    50    2
