@<TRIPOS>MOLECULE
tmp/5l91A02.pdb
 110 103 0 0 0
SMALL
GASTEIGER

@<TRIPOS>ATOM
      1  N         34.5070   66.7370   42.3740 N.3    53  ARG53      -0.1245
      2  CA        34.1870   65.6340   41.4900 C.3    53  ARG53       0.1563
      3  C         33.9260   66.1520   40.0730 C.2    53  ARG53       0.2260
      4  O         33.1990   65.5400   39.2950 O.2    53  ARG53      -0.2867
      5  CB        32.9890   64.8440   42.0300 C.3    53  ARG53       0.0307
      6  CG        33.0280   64.5870   43.5540 C.3    53  ARG53       0.0489
      7  CD        31.6850   64.1120   44.0660 C.3    53  ARG53       0.2205
      8  NE        31.6020   64.2220   45.5190 N.pl3  53  ARG53      -0.0865
      9  CZ        31.0600   65.2430   46.1680 C.cat  53  ARG53       0.5346
     10  NH1       30.5230   66.2730   45.5200 N.pl3  53  ARG53       0.1354
     11  NH2       31.0490   65.2280   47.4900 N.pl3  53  ARG53       0.1354
     12  N         33.9000   66.5350   36.3480 N.3    55  PRO55      -0.2103
     13  CA        34.2840   65.5490   35.3460 C.3    55  PRO55       0.1489
     14  C         35.4880   66.0300   34.5520 C.2    55  PRO55       0.2417
     15  O         35.6330   67.2310   34.2890 O.2    55  PRO55      -0.2734
     16  CB        33.0270   65.4220   34.4780 C.3    55  PRO55       0.0282
     17  CG        32.2830   66.6920   34.6860 C.3    55  PRO55       0.0208
     18  CD        32.5790   67.1360   36.0720 C.3    55  PRO55       0.0893
     19  N         36.3970   65.1250   34.1910 N.am   56  PRO56      -0.2729
     20  CA        37.5250   65.4980   33.3260 C.3    56  PRO56       0.1401
     21  C         37.0420   66.0050   31.9750 C.2    56  PRO56       0.2269
     22  O         35.9030   65.7790   31.5690 O.2    56  PRO56      -0.2865
     23  CB        38.3060   64.1880   33.1720 C.3    56  PRO56       0.0296
     24  CG        37.2850   63.1060   33.4300 C.3    56  PRO56       0.0237
     25  CD        36.3940   63.6830   34.4980 C.3    56  PRO56       0.0939
     26  N         34.9940   63.9900   29.4660 N.3    59  GLN59      -0.1231
     27  CA        33.6110   63.6230   29.7440 C.3    59  GLN59       0.1698
     28  C         32.7060   64.8120   29.4540 C.2    59  GLN59       0.2592
     29  O         33.1560   65.9590   29.3520 O.2    59  GLN59      -0.2718
     30  CB        33.4250   63.1770   31.1980 C.3    59  GLN59       0.0381
     31  CG        33.8430   61.7410   31.4740 C.3    59  GLN59       0.0905
     32  CD        33.5860   61.3010   32.9280 C.2    59  GLN59       0.2608
     33  OE1       32.5060   61.5200   33.4970 O.2    59  GLN59      -0.2717
     34  NE2       34.6100   60.7190   33.5420 N.am   59  GLN59      -0.0878
     35  N         31.4150   64.5210   29.3320 N.am   60  ARG60      -0.1980
     36  CA        30.4270   65.5750   29.1660 C.3    60  ARG60       0.1597
     37  C         30.6190   66.6760   30.2040 C.2    60  ARG60       0.2287
     38  O         30.8010   66.4100   31.3990 O.2    60  ARG60      -0.2864
     39  CB        29.0380   64.9850   29.2980 C.3    60  ARG60       0.0334
     40  CG        28.4670   64.6430   28.0150 C.3    60  ARG60       0.0492
     41  CD        27.3340   63.7040   28.1940 C.3    60  ARG60       0.2205
     42  NE        26.2060   64.1950   28.9990 N.pl3  60  ARG60      -0.0865
     43  CZ        25.2760   65.0520   28.5810 C.cat  60  ARG60       0.5346
     44  NH1       25.3470   65.6020   27.3760 N.pl3  60  ARG60       0.1354
     45  NH2       24.2670   65.3720   29.3790 N.pl3  60  ARG60       0.1354
     46  N         28.4920   68.9430   31.7700 N.3    62  THR62      -0.1218
     47  CA        27.2040   69.4580   32.2030 C.3    62  THR62       0.1862
     48  C         27.4240   70.6230   33.1510 C.2    62  THR62       0.2287
     49  O         28.4670   70.7300   33.8040 O.2    62  THR62      -0.2866
     50  CB        26.3880   68.3690   32.8870 C.3    62  THR62       0.1770
     51  OG1       27.0290   67.9940   34.1110 O.3    62  THR62      -0.2211
     52  CG2       26.3080   67.1640   31.9860 C.3    62  THR62       0.0375
     53  N         25.6970   71.0040   35.8260 N.3    64  LEU64      -0.1231
     54  CA        25.6590   70.3300   37.1270 C.3    64  LEU64       0.1693
     55  C         27.0400   69.8370   37.5630 C.2    64  LEU64       0.2592
     56  O         27.3590   69.8460   38.7590 O.2    64  LEU64      -0.2718
     57  CB        24.6700   69.1540   37.0670 C.3    64  LEU64       0.0284
     58  CG        24.4980   68.3050   38.3220 C.3    64  LEU64       0.0019
     59  CD1       23.8300   69.0970   39.4270 C.3    64  LEU64       0.0001
     60  CD2       23.6570   67.0900   37.9580 C.3    64  LEU64       0.0001
     61  N         27.8800   69.4160   36.6130 N.am   65  GLY65      -0.1957
     62  CA        29.1520   68.8180   36.9700 C.3    65  GLY65       0.1869
     63  C         30.1030   69.7700   37.6520 C.2    65  GLY65       0.2309
     64  O         30.9860   69.3290   38.3870 O.2    65  GLY65      -0.2863
     65  N         28.1080   71.7420   44.7930 N.3    69  ILE69      -0.1231
     66  CA        28.3670   70.6030   45.6500 C.3    69  ILE69       0.1692
     67  C         29.5820   69.8120   45.2170 C.2    69  ILE69       0.2592
     68  O         30.0550   68.9500   45.9860 O.2    69  ILE69      -0.2718
     69  CB        27.0970   69.7320   45.6870 C.3    69  ILE69       0.0266
     70  CG1       27.1380   68.8240   46.8910 C.3    69  ILE69       0.0019
     71  CG2       26.9590   68.8650   44.3860 C.3    69  ILE69       0.0020
     72  CD1       25.7860   68.1550   47.2140 C.3    69  ILE69       0.0001
     73  N         30.1080   70.0950   44.0200 N.am   70  ASN70      -0.1974
     74  CA        31.2280   69.3540   43.4600 C.3    70  ASN70       0.1688
     75  C         32.4880   70.1620   43.3630 C.2    70  ASN70       0.2292
     76  O         33.3740   69.8070   42.5770 O.2    70  ASN70      -0.2864
     77  CB        30.9240   68.8650   42.0620 C.3    70  ASN70       0.1181
     78  CG        29.9760   67.7880   42.0430 C.2    70  ASN70       0.2629
     79  OD1       29.7770   67.1060   43.0200 O.2    70  ASN70      -0.2716
     80  ND2       29.4760   67.5130   40.8750 N.am   70  ASN70      -0.0877
     81  N         20.3960   55.7320   31.1200 N.3   168  GLN168     -0.1245
     82  CA        21.4630   56.7100   31.1060 C.3   168  GLN168      0.1566
     83  C         21.2710   57.7220   29.9790 C.2   168  GLN168      0.2260
     84  O         21.4930   58.9190   30.1750 O.2   168  GLN168     -0.2867
     85  CB        22.8150   56.0160   31.0350 C.3   168  GLN168      0.0367
     86  CG        23.9950   56.9780   31.1790 C.3   168  GLN168      0.0905
     87  CD        24.2170   57.4050   32.6210 C.2   168  GLN168      0.2608
     88  OE1       23.6830   56.7890   33.5460 O.2   168  GLN168     -0.2717
     89  NE2       25.0080   58.4670   32.8180 N.am  168  GLN168     -0.0878
     90  N         20.8930   71.4800   40.2100 N.3   222  LEU222     -0.1245
     91  CA        21.3220   70.9430   41.4910 C.3   222  LEU222      0.1561
     92  C         20.2050   71.0570   42.5350 C.2   222  LEU222      0.2260
     93  O         19.9010   70.0710   43.2060 O.2   222  LEU222     -0.2867
     94  CB        22.5860   71.6450   41.9330 C.3   222  LEU222      0.0270
     95  CG        23.0530   71.3050   43.3380 C.3   222  LEU222      0.0019
     96  CD1       23.4500   69.8490   43.4370 C.3   222  LEU222      0.0001
     97  CD2       24.1720   72.2170   43.7230 C.3   222  LEU222      0.0001
     98  N         17.9300   68.1400   42.1730 N.3   225  ILE225     -0.1231
     99  CA        18.4450   66.8380   42.4830 C.3   225  ILE225      0.1692
    100  C         18.6840   66.7240   43.9750 C.2   225  ILE225      0.2591
    101  O         18.4220   65.6880   44.5620 O.2   225  ILE225     -0.2718
    102  CB        19.7130   66.5680   41.6750 C.3   225  ILE225      0.0266
    103  CG1       19.3280   66.3490   40.2040 C.3   225  ILE225      0.0019
    104  CG2       20.4420   65.3580   42.2450 C.3   225  ILE225      0.0020
    105  CD1       20.4190   66.5820   39.3230 C.3   225  ILE225      0.0001
    106  N         19.2060   67.7790   44.5780 N.am  226  ALA226     -0.1980
    107  CA        19.5910   67.7580   45.9770 C.3   226  ALA226      0.1597
    108  C         18.3960   67.9090   46.8900 C.2   226  ALA226      0.2287
    109  O         18.4150   67.3730   48.0050 O.2   226  ALA226     -0.2864
    110  CB        20.6050   68.8690   46.2330 C.3   226  ALA226      0.0319
@<TRIPOS>BOND
     1    44    43    1
     2    40    41    1
     3    40    39    1
     4    41    42    1
     5    43    42    2
     6    43    45    1
     7    36    39    1
     8    36    35    1
     9    36    37    1
    10    35    28   am
    11    29    28    2
    12    28    27    1
    13    26    27    1
    14    27    30    1
    15    83    84    2
    16    83    82    1
    17    37    38    2
    18    85    82    1
    19    85    86    1
    20    82    81    1
    21    86    87    1
    22    30    31    1
    23    31    32    1
    24    22    21    2
    25    46    47    1
    26    21    20    1
    27    52    50    1
    28    47    50    1
    29    47    48    1
    30    87    89   am
    31    87    88    2
    32    50    51    1
    33    32    33    2
    34    32    34   am
    35    48    49    2
    36    23    20    1
    37    23    24    1
    38    20    19    1
    39    24    25    1
    40    19    25    1
    41    19    14   am
    42    15    14    2
    43    16    17    1
    44    16    13    1
    45    14    13    1
    46    17    18    1
    47    13    12    1
    48    53    54    1
    49    18    12    1
    50    61    62    1
    51    61    55   am
    52    62    63    1
    53    57    54    1
    54    57    58    1
    55    54    55    1
    56    55    56    2
    57    63    64    2
    58    60    58    1
    59    58    59    1
    60     4     3    2
    61   105   103    1
    62     3     2    1
    63   103   102    1
    64    90    91    1
    65    80    78   am
    66     2     5    1
    67     2     1    1
    68    91    94    1
    69    91    92    1
    70   102   104    1
    71   102    99    1
    72    94    95    1
    73     5     6    1
    74    78    77    1
    75    78    79    2
    76    77    74    1
    77    98    99    1
    78    99   100    1
    79    92    93    2
    80    76    75    2
    81    95    96    1
    82    95    97    1
    83    75    74    1
    84    74    73    1
    85     6     7    1
    86   100   101    2
    87   100   106   am
    88    73    67   am
    89     7     8    1
    90    71    69    1
    91   106   107    1
    92    65    66    1
    93    67    66    1
    94    67    68    2
    95     8     9    2
    96    10     9    1
    97    66    69    1
    98    69    70    1
    99   107   110    1
   100   107   108    1
   101     9    11    1
   102   108   109    2
   103    70    72    1
