@<TRIPOS>MOLECULE
tmp/5l91A04.pdb
 92 84 0 0 0
SMALL
GASTEIGER

@<TRIPOS>ATOM
      1  N         34.9940   63.9900   29.4660 N.3    59  GLN59      -0.1231
      2  CA        33.6110   63.6230   29.7440 C.3    59  GLN59       0.1698
      3  C         32.7060   64.8120   29.4540 C.2    59  GLN59       0.2592
      4  O         33.1560   65.9590   29.3520 O.2    59  GLN59      -0.2718
      5  CB        33.4250   63.1770   31.1980 C.3    59  GLN59       0.0381
      6  CG        33.8430   61.7410   31.4740 C.3    59  GLN59       0.0905
      7  CD        33.5860   61.3010   32.9280 C.2    59  GLN59       0.2608
      8  OE1       32.5060   61.5200   33.4970 O.2    59  GLN59      -0.2717
      9  NE2       34.6100   60.7190   33.5420 N.am   59  GLN59      -0.0878
     10  N         31.4150   64.5210   29.3320 N.am   60  ARG60      -0.1980
     11  CA        30.4270   65.5750   29.1660 C.3    60  ARG60       0.1597
     12  C         30.6190   66.6760   30.2040 C.2    60  ARG60       0.2287
     13  O         30.8010   66.4100   31.3990 O.2    60  ARG60      -0.2864
     14  CB        29.0380   64.9850   29.2980 C.3    60  ARG60       0.0334
     15  CG        28.4670   64.6430   28.0150 C.3    60  ARG60       0.0492
     16  CD        27.3340   63.7040   28.1940 C.3    60  ARG60       0.2205
     17  NE        26.2060   64.1950   28.9990 N.pl3  60  ARG60      -0.0865
     18  CZ        25.2760   65.0520   28.5810 C.cat  60  ARG60       0.5346
     19  NH1       25.3470   65.6020   27.3760 N.pl3  60  ARG60       0.1354
     20  NH2       24.2670   65.3720   29.3790 N.pl3  60  ARG60       0.1354
     21  N         28.4920   68.9430   31.7700 N.3    62  THR62      -0.1218
     22  CA        27.2040   69.4580   32.2030 C.3    62  THR62       0.1862
     23  C         27.4240   70.6230   33.1510 C.2    62  THR62       0.2287
     24  O         28.4670   70.7300   33.8040 O.2    62  THR62      -0.2866
     25  CB        26.3880   68.3690   32.8870 C.3    62  THR62       0.1770
     26  OG1       27.0290   67.9940   34.1110 O.3    62  THR62      -0.2211
     27  CG2       26.3080   67.1640   31.9860 C.3    62  THR62       0.0375
     28  N         25.6970   71.0040   35.8260 N.3    64  LEU64      -0.1245
     29  CA        25.6590   70.3300   37.1270 C.3    64  LEU64       0.1561
     30  C         27.0400   69.8370   37.5630 C.2    64  LEU64       0.2260
     31  O         27.3590   69.8460   38.7590 O.2    64  LEU64      -0.2867
     32  CB        24.6700   69.1540   37.0670 C.3    64  LEU64       0.0270
     33  CG        24.4980   68.3050   38.3220 C.3    64  LEU64       0.0019
     34  CD1       23.8300   69.0970   39.4270 C.3    64  LEU64       0.0001
     35  CD2       23.6570   67.0900   37.9580 C.3    64  LEU64       0.0001
     36  N         15.1180   62.2010   35.8890 N.3   152  ILE152     -0.1231
     37  CA        16.4150   62.3680   36.5080 C.3   152  ILE152      0.1692
     38  C         16.5780   61.4780   37.7340 C.2   152  ILE152      0.2591
     39  O         17.7020   61.1320   38.1000 O.2   152  ILE152     -0.2718
     40  CB        16.6420   63.8660   36.7520 C.3   152  ILE152      0.0266
     41  CG1       17.2050   64.4290   35.4460 C.3   152  ILE152      0.0019
     42  CG2       17.5520   64.1140   37.9300 C.3   152  ILE152      0.0020
     43  CD1       17.4920   65.9000   35.4180 C.3   152  ILE152      0.0001
     44  N         15.4920   61.0780   38.3850 N.am  153  VAL153     -0.1980
     45  CA        15.6280   60.2340   39.5710 C.3   153  VAL153      0.1595
     46  C         15.0710   58.8390   39.3520 C.2   153  VAL153      0.2287
     47  O         14.9380   58.0790   40.3080 O.2   153  VAL153     -0.2864
     48  CB        14.9960   60.8860   40.8130 C.3   153  VAL153      0.0276
     49  CG1       15.5380   62.2780   40.9960 C.3   153  VAL153      0.0022
     50  CG2       13.4720   60.8880   40.7180 C.3   153  VAL153      0.0022
     51  N         20.3960   55.7320   31.1200 N.3   168  GLN168     -0.1245
     52  CA        21.4630   56.7100   31.1060 C.3   168  GLN168      0.1566
     53  C         21.2710   57.7220   29.9790 C.2   168  GLN168      0.2260
     54  O         21.4930   58.9190   30.1750 O.2   168  GLN168     -0.2867
     55  CB        22.8150   56.0160   31.0350 C.3   168  GLN168      0.0367
     56  CG        23.9950   56.9780   31.1790 C.3   168  GLN168      0.0905
     57  CD        24.2170   57.4050   32.6210 C.2   168  GLN168      0.2608
     58  OE1       23.6830   56.7890   33.5460 O.2   168  GLN168     -0.2717
     59  NE2       25.0080   58.4670   32.8180 N.am  168  GLN168     -0.0878
     60  N         18.3250   60.1260   30.9990 N.3   171  LYS171     -0.1231
     61  CA        18.7680   61.0950   31.9980 C.3   171  LYS171      0.1693
     62  C         19.6320   62.1760   31.3720 C.2   171  LYS171      0.2591
     63  O         19.4920   63.3620   31.6970 O.2   171  LYS171     -0.2718
     64  CB        19.5390   60.3950   33.1180 C.3   171  LYS171      0.0285
     65  CG        18.6770   59.4150   33.9030 C.3   171  LYS171      0.0035
     66  CD        19.2400   59.1060   35.3010 C.3   171  LYS171      0.0206
     67  CE        18.3580   58.1040   36.0180 C.3   171  LYS171      0.1093
     68  NZ        18.5880   58.1480   37.4750 N.3   171  LYS171     -0.1314
     69  N         20.5490   61.7970   30.4830 N.am  172  MET172     -0.1979
     70  CA        21.3860   62.8180   29.8550 C.3   172  MET172      0.1605
     71  C         20.5260   63.7880   29.0590 C.2   172  MET172      0.2287
     72  O         20.7830   64.9970   29.0510 O.2   172  MET172     -0.2864
     73  CB        22.4190   62.1710   28.9440 C.3   172  MET172      0.0413
     74  CG        23.3290   61.2280   29.6550 C.3   172  MET172      0.0598
     75  SD        24.2070   60.2030   28.4750 S.3   172  MET172     -0.1393
     76  CE        25.3820   61.3920   27.9210 C.3   172  MET172      0.0692
     77  N         18.6190   66.1270   31.3720 N.3   175  ASN175     -0.1240
     78  CA        19.5130   67.1770   31.8440 C.3   175  ASN175      0.1653
     79  C         19.7420   68.2230   30.7700 C.2   175  ASN175      0.2266
     80  O         19.7150   69.4330   31.0400 O.2   175  ASN175     -0.2867
     81  CB        20.8470   66.5740   32.2860 C.3   175  ASN175      0.1155
     82  CG        21.8930   67.6100   32.5780 C.2   175  ASN175      0.2627
     83  OD1       22.0480   68.0640   33.7260 O.2   175  ASN175     -0.2716
     84  ND2       22.6350   68.0010   31.5550 N.am  175  ASN175     -0.0877
     85  N         17.9300   68.1400   42.1730 N.3   225  ILE225     -0.1245
     86  CA        18.4450   66.8380   42.4830 C.3   225  ILE225      0.1561
     87  C         18.6840   66.7240   43.9750 C.2   225  ILE225      0.2260
     88  O         18.4220   65.6880   44.5620 O.2   225  ILE225     -0.2867
     89  CB        19.7130   66.5680   41.6750 C.3   225  ILE225      0.0252
     90  CG1       19.3280   66.3490   40.2040 C.3   225  ILE225      0.0019
     91  CG2       20.4420   65.3580   42.2450 C.3   225  ILE225      0.0019
     92  CD1       20.4190   66.5820   39.3230 C.3   225  ILE225      0.0001
@<TRIPOS>BOND
     1    19    18    1
     2    76    75    1
     3    15    16    1
     4    15    14    1
     5    16    17    1
     6    75    74    1
     7    18    17    2
     8    18    20    1
     9    73    74    1
    10    73    70    1
    11    72    71    2
    12    71    70    1
    13    11    14    1
    14    11    10    1
    15    11    12    1
    16    10     3   am
    17     4     3    2
    18     3     2    1
    19     1     2    1
    20     2     5    1
    21    70    69    1
    22    53    54    2
    23    53    52    1
    24    12    13    2
    25    69    62   am
    26    79    80    2
    27    79    78    1
    28    60    61    1
    29    55    52    1
    30    55    56    1
    31    52    51    1
    32    56    57    1
    33     5     6    1
    34    62    63    2
    35    62    61    1
    36    77    78    1
    37     6     7    1
    38    84    82   am
    39    21    22    1
    40    78    81    1
    41    27    25    1
    42    61    64    1
    43    22    25    1
    44    22    23    1
    45    81    82    1
    46    82    83    2
    47    57    59   am
    48    57    58    2
    49    25    26    1
    50     7     8    2
    51     7     9   am
    52    64    65    1
    53    23    24    2
    54    65    66    1
    55    66    67    1
    56    43    41    1
    57    41    40    1
    58    28    29    1
    59    36    37    1
    60    67    68    1
    61    37    40    1
    62    37    38    1
    63    40    42    1
    64    32    29    1
    65    32    33    1
    66    29    30    1
    67    30    31    2
    68    38    39    2
    69    38    44   am
    70    35    33    1
    71    33    34    1
    72    44    45    1
    73    92    90    1
    74    46    45    1
    75    46    47    2
    76    45    48    1
    77    90    89    1
    78    50    48    1
    79    48    49    1
    80    89    91    1
    81    89    86    1
    82    85    86    1
    83    86    87    1
    84    87    88    2
