@<TRIPOS>MOLECULE
tmp/5l94A01.pdb
 142 132 0 0 0
SMALL
GASTEIGER

@<TRIPOS>ATOM
      1  N        -36.2550   -8.2430   30.8510 N.3    53  ARG53      -0.1245
      2  CA       -35.1710   -8.8240   31.6420 C.3    53  ARG53       0.1563
      3  C        -35.1870   -8.1360   32.9930 C.2    53  ARG53       0.2260
      4  O        -34.7980   -6.9700   33.1010 O.2    53  ARG53      -0.2867
      5  CB       -33.8010   -8.6370   30.9880 C.3    53  ARG53       0.0307
      6  CG       -33.7680   -8.8230   29.4890 C.3    53  ARG53       0.0489
      7  CD       -33.7300  -10.2900   29.0640 C.3    53  ARG53       0.2205
      8  NE       -34.5960  -10.4340   27.8950 N.pl3  53  ARG53      -0.0865
      9  CZ       -34.2460  -10.1070   26.6470 C.cat  53  ARG53       0.5346
     10  NH1      -33.0180   -9.6590   26.3720 N.pl3  53  ARG53       0.1354
     11  NH2      -35.1260  -10.2310   25.6630 N.pl3  53  ARG53       0.1354
     12  N        -30.0610    0.1460   28.6380 N.3    61  LEU61      -0.1245
     13  CA       -30.2820   -0.9200   27.6640 C.3    61  LEU61       0.1561
     14  C        -31.5510   -1.7000   27.9780 C.2    61  LEU61       0.2260
     15  O        -32.3250   -2.0210   27.0740 O.2    61  LEU61      -0.2867
     16  CB       -29.0640   -1.8270   27.6330 C.3    61  LEU61       0.0270
     17  CG       -28.8090   -2.7720   26.4740 C.3    61  LEU61       0.0019
     18  CD1      -29.2400   -2.1520   25.1250 C.3    61  LEU61       0.0001
     19  CD2      -27.3150   -3.0540   26.4810 C.3    61  LEU61       0.0001
     20  N        -35.7890   -4.0420   22.7820 N.3    66  ILE66      -0.1245
     21  CA       -35.5600   -5.4740   22.8990 C.3    66  ILE66       0.1561
     22  C        -35.8880   -6.0140   24.2870 C.2    66  ILE66       0.2260
     23  O        -36.0710   -7.2310   24.4340 O.2    66  ILE66      -0.2867
     24  CB       -34.1000   -5.7480   22.4810 C.3    66  ILE66       0.0252
     25  CG1      -33.9260   -7.2110   22.0850 C.3    66  ILE66       0.0019
     26  CG2      -33.1100   -5.3740   23.6160 C.3    66  ILE66       0.0019
     27  CD1      -32.6470   -7.4900   21.3070 C.3    66  ILE66       0.0001
     28  N        -20.4930   -6.4670   26.1490 N.3   149  ILE149     -0.1231
     29  CA       -21.9260   -6.6350   26.3750 C.3   149  ILE149      0.1692
     30  C        -22.4220   -7.9440   25.7860 C.2   149  ILE149      0.2591
     31  O        -23.3360   -8.5650   26.3320 O.2   149  ILE149     -0.2718
     32  CB       -22.7070   -5.4350   25.8120 C.3   149  ILE149      0.0266
     33  CG1      -22.2780   -4.1580   26.5200 C.3   149  ILE149      0.0019
     34  CG2      -24.2330   -5.6840   25.9230 C.3   149  ILE149      0.0020
     35  CD1      -22.9720   -3.9740   27.8360 C.3   149  ILE149      0.0001
     36  N        -21.8810   -8.3550   24.6330 N.am  150  VAL150     -0.1980
     37  CA       -22.3200   -9.6040   24.0030 C.3   150  VAL150      0.1595
     38  C        -21.4310  -10.7840   24.4000 C.2   150  VAL150      0.2287
     39  O        -21.6710  -11.9090   23.9450 O.2   150  VAL150     -0.2864
     40  CB       -22.3760   -9.5080   22.4450 C.3   150  VAL150      0.0276
     41  CG1      -23.3390   -8.4130   21.9820 C.3   150  VAL150      0.0022
     42  CG2      -21.0040   -9.2670   21.8210 C.3   150  VAL150      0.0022
     43  N        -19.7790   -6.2610   32.4710 N.3   168  LYS168     -0.1245
     44  CA       -20.9170   -5.7660   31.7060 C.3   168  LYS168      0.1561
     45  C        -21.5330   -4.5490   32.3850 C.2   168  LYS168      0.2260
     46  O        -21.9260   -3.5890   31.7160 O.2   168  LYS168     -0.2867
     47  CB       -21.9590   -6.8640   31.5050 C.3   168  LYS168      0.0271
     48  CG       -21.5110   -8.0720   30.6320 C.3   168  LYS168      0.0035
     49  CD       -22.7100   -8.9740   30.2780 C.3   168  LYS168      0.0206
     50  CE       -22.2740  -10.3510   29.7990 C.3   168  LYS168      0.1093
     51  NZ       -21.8870  -10.3090   28.4000 N.3   168  LYS168     -0.1314
     52  N        -28.4910    0.1370   22.0370 N.3   219  LEU219     -0.1245
     53  CA       -28.9000   -1.0520   21.3130 C.3   219  LEU219      0.1561
     54  C        -28.4430   -0.9810   19.8540 C.2   219  LEU219      0.2260
     55  O        -27.8440   -1.9380   19.3370 O.2   219  LEU219     -0.2867
     56  CB       -30.4080   -1.1970   21.4290 C.3   219  LEU219      0.0270
     57  CG       -31.0790   -2.3580   20.7140 C.3   219  LEU219      0.0019
     58  CD1      -30.5420   -3.6770   21.2760 C.3   219  LEU219      0.0001
     59  CD2      -32.6010   -2.2760   20.7950 C.3   219  LEU219      0.0001
     60  N        -24.6510   -1.3320   19.5610 N.3   222  ILE222     -0.1231
     61  CA       -24.2260   -2.7180   19.7390 C.3   222  ILE222      0.1692
     62  C        -24.5820   -3.5390   18.4920 C.2   222  ILE222      0.2591
     63  O        -23.7730   -4.3240   18.0140 O.2   222  ILE222     -0.2718
     64  CB       -24.8220   -3.3470   21.0140 C.3   222  ILE222      0.0266
     65  CG1      -24.2060   -2.7030   22.2550 C.3   222  ILE222      0.0019
     66  CG2      -24.5600   -4.8750   21.0050 C.3   222  ILE222      0.0020
     67  CD1      -24.9240   -3.0050   23.5120 C.3   222  ILE222      0.0001
     68  N        -25.7870   -3.3550   17.9450 N.am  223  ALA223     -0.1980
     69  CA       -26.1340   -3.9890   16.6720 C.3   223  ALA223      0.1597
     70  C        -25.1420   -3.6130   15.5810 C.2   223  ALA223      0.2287
     71  O        -24.7830   -4.4390   14.7250 O.2   223  ALA223     -0.2864
     72  CB       -27.5420   -3.6010   16.2600 C.3   223  ALA223      0.0319
     73  N        -21.9160   -5.9650   16.1130 N.3   226  GLU226     -0.1231
     74  CA       -21.9430   -7.3520   16.5470 C.3   226  GLU226      0.1699
     75  C        -22.9030   -8.2550   15.7630 C.2   226  GLU226      0.2592
     76  O        -23.1630   -9.3710   16.2270 O.2   226  GLU226     -0.2718
     77  CB       -22.3120   -7.3910   18.0410 C.3   226  GLU226      0.0402
     78  CG       -21.3630   -6.5950   18.9690 C.3   226  GLU226      0.1161
     79  CD       -19.9760   -7.2080   19.0530 C.2   226  GLU226      0.3649
     80  OE1      -19.7800   -8.3610   18.6030 O.co2 226  GLU226     -0.2457
     81  OE2      -19.0630   -6.5270   19.5610 O.co2 226  GLU226     -0.2457
     82  N        -23.4280   -7.8220   14.5900 N.am  227  THR227     -0.1953
     83  CA       -24.4020   -8.5930   13.8420 C.3   227  THR227      0.1897
     84  C        -23.9690   -8.7080   12.3740 C.2   227  THR227      0.2313
     85  O        -23.4480   -9.7610   11.9700 O.2   227  THR227     -0.2863
     86  CB       -25.8080   -8.0030   13.9430 C.3   227  THR227      0.1794
     87  OG1      -25.8420   -6.6810   13.3630 O.3   227  THR227     -0.2208
     88  CG2      -26.3190   -7.9500   15.4340 C.3   227  THR227      0.0378
     89  N        -27.0620  -14.7710   14.9670 N.3   270  VAL270     -0.1245
     90  CA       -27.6070  -14.8770   16.3140 C.3   270  VAL270      0.1561
     91  C        -28.2420  -16.2500   16.4190 C.2   270  VAL270      0.2260
     92  O        -29.2320  -16.5230   15.7370 O.2   270  VAL270     -0.2867
     93  CB       -28.6290  -13.7810   16.6370 C.3   270  VAL270      0.0252
     94  CG1      -29.1630  -13.9560   18.0680 C.3   270  VAL270      0.0019
     95  CG2      -28.0210  -12.3930   16.4810 C.3   270  VAL270      0.0019
     96  N        -29.6170  -17.6730   19.1960 N.3   272  ALA272     -0.1231
     97  CA       -30.6940  -17.8470   20.1600 C.3   272  ALA272      0.1694
     98  C        -31.0070  -16.5380   20.8580 C.2   272  ALA272      0.2592
     99  O        -30.2750  -15.5520   20.7500 O.2   272  ALA272     -0.2718
    100  CB       -30.3050  -18.9200   21.1910 C.3   272  ALA272      0.0304
    101  N        -32.0970  -16.5620   21.6190 N.am  273  LEU273     -0.1966
    102  CA       -32.5300  -15.3880   22.3580 C.3   273  LEU273      0.1728
    103  C        -32.9950  -15.7960   23.7550 C.2   273  LEU273      0.2616
    104  O        -32.8860  -16.9510   24.1610 O.2   273  LEU273     -0.2715
    105  CB       -33.6480  -14.6890   21.5920 C.3   273  LEU273      0.0311
    106  CG       -33.2940  -14.2950   20.1790 C.3   273  LEU273      0.0022
    107  CD1      -34.5720  -14.1190   19.3890 C.3   273  LEU273      0.0001
    108  CD2      -32.5690  -13.0090   20.2570 C.3   273  LEU273      0.0001
    109  N        -33.5250  -14.8180   24.4980 N.am  274  HIS274     -0.1973
    110  CA       -33.9960  -15.0130   25.8680 C.3   274  HIS274      0.1656
    111  C        -35.4090  -14.5020   26.0090 C.2   274  HIS274      0.2291
    112  O        -35.7610  -13.4640   25.4490 O.2   274  HIS274     -0.2864
    113  CB       -33.1470  -14.2930   26.8690 C.3   274  HIS274      0.0771
    114  CG       -31.7580  -14.7960   26.9050 C.ar  274  HIS274      0.0820
    115  ND1      -31.4440  -16.0180   27.4540 N.ar  274  HIS274     -0.2267
    116  CD2      -30.6080  -14.2830   26.4100 C.ar  274  HIS274      0.1154
    117  CE1      -30.1500  -16.2310   27.3140 C.ar  274  HIS274      0.1986
    118  NE2      -29.6190  -15.1900   26.6840 N.ar  274  HIS274     -0.2212
    119  N        -36.3520   -8.0280   13.9450 N.3   333  CYS333     -0.1235
    120  CA       -35.2210   -7.0990   13.8370 C.3   333  CYS333      0.1677
    121  C        -35.5880   -5.8420   13.0680 C.2   333  CYS333      0.2270
    122  O        -36.0840   -5.9070   11.9290 O.2   333  CYS333     -0.2867
    123  CB       -34.0470   -7.7690   13.1340 C.3   333  CYS333      0.0956
    124  SG       -32.5830   -6.7530   12.9500 S.3   333  CYS333     -0.0801
    125  N        -24.7940  -16.8830   22.0430 N.3   372  PHE372     -0.1227
    126  CA       -25.8260  -16.2970   21.1910 C.3   372  PHE372      0.1736
    127  C        -25.2410  -15.7020   19.9160 C.2   372  PHE372      0.2595
    128  O        -25.6740  -16.0640   18.8170 O.2   372  PHE372     -0.2718
    129  CB       -26.5750  -15.2600   22.0220 C.3   372  PHE372      0.0547
    130  CG       -27.0830  -15.8510   23.2680 C.ar  372  PHE372     -0.0202
    131  CD1      -28.3050  -16.5110   23.2910 C.ar  372  PHE372     -0.0042
    132  CD2      -26.2920  -15.8760   24.3970 C.ar  372  PHE372     -0.0042
    133  CE1      -28.7430  -17.1310   24.4330 C.ar  372  PHE372     -0.0003
    134  CE2      -26.7180  -16.4990   25.5510 C.ar  372  PHE372     -0.0003
    135  CZ       -27.9210  -17.1510   25.5610 C.ar  372  PHE372     -0.0000
    136  N        -24.2300  -14.8400   20.0560 N.am  373  VAL373     -0.1980
    137  CA       -23.5400  -14.2440   18.9140 C.3   373  VAL373      0.1595
    138  C        -22.5860  -15.2550   18.2940 C.2   373  VAL373      0.2287
    139  O        -21.6570  -15.7460   18.9540 O.2   373  VAL373     -0.2864
    140  CB       -22.7950  -12.9770   19.3430 C.3   373  VAL373      0.0276
    141  CG1      -22.0770  -12.3390   18.1810 C.3   373  VAL373      0.0022
    142  CG2      -23.7840  -12.0090   19.8820 C.3   373  VAL373      0.0022
@<TRIPOS>BOND
     1   122   121    2
     2    85    84    2
     3    84    83    1
     4   124   123    1
     5   121   120    1
     6   123   120    1
     7    87    86    1
     8   120   119    1
     9    83    86    1
    10    83    82    1
    11    86    88    1
    12    82    75   am
    13    71    70    2
    14    89    90    1
    15    70    69    1
    16    92    91    2
    17    75    76    2
    18    75    74    1
    19    73    74    1
    20    72    69    1
    21    90    91    1
    22    90    93    1
    23    95    93    1
    24    74    77    1
    25    93    94    1
    26    69    68    1
    27    68    62   am
    28    63    62    2
    29    77    78    1
    30   141   140    1
    31   138   137    1
    32   138   139    2
    33    62    61    1
    34    80    79   ar
    35   128   127    2
    36   137   140    1
    37   137   136    1
    38    78    79    1
    39    79    81   ar
    40    96    97    1
    41    55    54    2
    42   140   142    1
    43   107   106    1
    44    60    61    1
    45    61    64    1
    46    54    53    1
    47   127   136   am
    48   127   126    1
    49    97    98    1
    50    97   100    1
    51   106   108    1
    52   106   105    1
    53    57    59    1
    54    57    58    1
    55    57    56    1
    56    99    98    2
    57    98   101   am
    58    66    64    1
    59    64    65    1
    60   126   129    1
    61   126   125    1
    62    27    25    1
    63    53    56    1
    64    53    52    1
    65   105   102    1
    66   101   102    1
    67    42    40    1
    68    41    40    1
    69   129   130    1
    70    25    24    1
    71    65    67    1
    72   102   103    1
    73    40    37    1
    74    24    21    1
    75    24    26    1
    76    20    21    1
    77    21    22    1
    78   130   131   ar
    79   130   132   ar
    80   131   133   ar
    81   103   104    2
    82   103   109   am
    83    39    38    2
    84    37    38    1
    85    37    36    1
    86    22    23    2
    87   132   134   ar
    88   133   135   ar
    89   109   110    1
    90    36    30   am
    91    18    17    1
    92   112   111    2
    93   134   135   ar
    94    11     9    1
    95    30    31    2
    96    30    29    1
    97    32    34    1
    98    32    29    1
    99    32    33    1
   100   110   111    1
   101   110   113    1
   102    28    29    1
   103    10     9    1
   104   116   118   ar
   105   116   114   ar
   106    17    19    1
   107    17    16    1
   108    33    35    1
   109     9     8    2
   110   118   117   ar
   111   113   114    1
   112   114   115   ar
   113    15    14    2
   114   117   115   ar
   115    16    13    1
   116    13    14    1
   117    13    12    1
   118     8     7    1
   119    51    50    1
   120     7     6    1
   121     6     5    1
   122    50    49    1
   123    49    48    1
   124    48    47    1
   125     1     2    1
   126     5     2    1
   127    47    44    1
   128     2     3    1
   129    44    45    1
   130    44    43    1
   131    46    45    2
   132     3     4    2
