@<TRIPOS>MOLECULE
tmp/5l95A00.pdb
 151 146 0 0 0
SMALL
GASTEIGER

@<TRIPOS>ATOM
      1  N         52.0600  -37.6510   21.3680 N.3    12  VAL12      -0.1231
      2  CA        51.6490  -36.2510   21.4240 C.3    12  VAL12       0.1692
      3  C         50.2520  -36.1580   20.8300 C.2    12  VAL12       0.2592
      4  O         50.0490  -36.4630   19.6480 O.2    12  VAL12      -0.2718
      5  CB        52.6270  -35.3310   20.6780 C.3    12  VAL12       0.0266
      6  CG1       52.3420  -33.8750   21.0220 C.3    12  VAL12       0.0020
      7  CG2       54.0530  -35.6930   21.0180 C.3    12  VAL12       0.0020
      8  N         49.2990  -35.7150   21.6440 N.am   13  GLY13      -0.1957
      9  CA        47.9040  -35.7130   21.2540 C.3    13  GLY13       0.1869
     10  C         47.1970  -36.9750   21.7010 C.2    13  GLY13       0.2309
     11  O         47.4570  -38.0640   21.1810 O.2    13  GLY13      -0.2863
     12  N         43.7560  -37.4470   21.6190 N.3    15  GLY15      -0.1210
     13  CA        42.4120  -37.3480   21.0960 C.3    15  GLY15       0.1956
     14  C         41.9400  -38.6700   20.5330 C.2    15  GLY15       0.2612
     15  O         42.2860  -39.7430   21.0390 O.2    15  GLY15      -0.2717
     16  N         41.1120  -38.5950   19.4920 N.am   16  GLY16      -0.1942
     17  CA        40.6000  -39.7830   18.8330 C.3    16  GLY16       0.2014
     18  C         41.6570  -40.8290   18.5360 C.2    16  GLY16       0.2638
     19  O         41.6060  -41.9460   19.0570 O.2    16  GLY16      -0.2714
     20  N         42.6240  -40.4680   17.6900 N.am   17  VAL17      -0.1977
     21  CA        43.6720  -41.4110   17.3070 C.3    17  VAL17       0.1596
     22  C         44.6050  -41.7020   18.4790 C.2    17  VAL17       0.2287
     23  O         44.9350  -42.8590   18.7520 O.2    17  VAL17      -0.2864
     24  CB        44.4370  -40.8910   16.0800 C.3    17  VAL17       0.0276
     25  CG1       45.6700  -41.7450   15.8120 C.3    17  VAL17       0.0022
     26  CG2       43.5140  -40.9390   14.8780 C.3    17  VAL17       0.0022
     27  N         51.5120  -36.4130   26.0250 N.3    36  PHE36      -0.1227
     28  CA        51.5140  -34.9590   25.9250 C.3    36  PHE36       0.1736
     29  C         50.1920  -34.5180   25.3100 C.2    36  PHE36       0.2595
     30  O         49.8060  -35.0160   24.2470 O.2    36  PHE36      -0.2718
     31  CB        52.6710  -34.4400   25.0570 C.3    36  PHE36       0.0547
     32  CG        54.0450  -34.7550   25.5850 C.ar   36  PHE36      -0.0202
     33  CD1       54.6800  -35.9340   25.2370 C.ar   36  PHE36      -0.0042
     34  CD2       54.7230  -33.8460   26.3810 C.ar   36  PHE36      -0.0042
     35  CE1       55.9480  -36.2190   25.6990 C.ar   36  PHE36      -0.0003
     36  CE2       55.9940  -34.1280   26.8460 C.ar   36  PHE36      -0.0003
     37  CZ        56.6040  -35.3170   26.5030 C.ar   36  PHE36      -0.0000
     38  N         49.5060  -33.5920   25.9780 N.am   37  ASP37      -0.1960
     39  CA        48.2910  -32.9670   25.4650 C.3    37  ASP37       0.1840
     40  C         47.9870  -31.7310   26.3010 C.2    37  ASP37       0.2622
     41  O         48.2600  -31.7070   27.5030 O.2    37  ASP37      -0.2715
     42  CB        47.0980  -33.9310   25.4950 C.3    37  ASP37       0.1450
     43  CG        46.0560  -33.6010   24.4500 C.2    37  ASP37       0.3671
     44  OD1       45.4100  -32.5400   24.5810 O.co2  37  ASP37      -0.2456
     45  OD2       45.8720  -34.3990   23.5070 O.co2  37  ASP37      -0.2456
     46  N         47.4030  -30.7110   25.6670 N.am   38  TYR38      -0.1960
     47  CA        47.0700  -29.4900   26.3930 C.3    38  TYR38       0.1771
     48  C         45.6000  -29.3840   26.7840 C.2    38  TYR38       0.2619
     49  O         45.2480  -28.4790   27.5470 O.2    38  TYR38      -0.2715
     50  CB        47.4730  -28.2350   25.5860 C.3    38  TYR38       0.0574
     51  CG        46.7430  -27.9710   24.2710 C.ar   38  TYR38      -0.0198
     52  CD1       45.3580  -27.8320   24.2180 C.ar   38  TYR38      -0.0009
     53  CD2       47.4540  -27.7940   23.0930 C.ar   38  TYR38      -0.0009
     54  CE1       44.7060  -27.5770   23.0270 C.ar   38  TYR38       0.0417
     55  CE2       46.8080  -27.5290   21.8990 C.ar   38  TYR38       0.0417
     56  CZ        45.4360  -27.4250   21.8710 C.ar   38  TYR38       0.1957
     57  OH        44.7930  -27.1640   20.6830 O.3    38  TYR38      -0.2866
     58  N         44.7380  -30.2640   26.2860 N.am   39  ASP39      -0.1971
     59  CA        43.2990  -30.0620   26.3830 C.3    39  ASP39       0.1709
     60  C         42.6850  -30.9290   27.4750 C.2    39  ASP39       0.2293
     61  O         43.2810  -31.9010   27.9450 O.2    39  ASP39      -0.2864
     62  CB        42.6260  -30.3600   25.0390 C.3    39  ASP39       0.1436
     63  CG        41.3170  -29.6080   24.8600 C.2    39  ASP39       0.3671
     64  OD1       41.0870  -28.6170   25.5860 O.co2  39  ASP39      -0.2456
     65  OD2       40.5230  -30.0020   23.9810 O.co2  39  ASP39      -0.2456
     66  N         43.2800  -34.3580   29.5890 N.3    54  LYS54      -0.1245
     67  CA        43.2180  -35.6090   28.8430 C.3    54  LYS54       0.1561
     68  C         44.3190  -36.5710   29.2740 C.2    54  LYS54       0.2260
     69  O         44.0740  -37.7730   29.4250 O.2    54  LYS54      -0.2867
     70  CB        43.2890  -35.3390   27.3430 C.3    54  LYS54       0.0271
     71  CG        42.0970  -34.5810   26.7790 C.3    54  LYS54       0.0035
     72  CD        41.9950  -34.8330   25.2860 C.3    54  LYS54       0.0206
     73  CE        40.9020  -34.0110   24.6320 C.3    54  LYS54       0.1093
     74  NZ        41.0260  -34.0420   23.1480 N.3    54  LYS54      -0.1314
     75  N         50.6050  -29.7260   28.7250 N.3    76  TYR76      -0.1227
     76  CA        51.0020  -28.4090   28.2470 C.3    76  TYR76       0.1736
     77  C         51.0280  -28.3710   26.7240 C.2    76  TYR76       0.2595
     78  O         50.9490  -29.3980   26.0430 O.2    76  TYR76      -0.2718
     79  CB        52.3550  -27.9590   28.8370 C.3    76  TYR76       0.0548
     80  CG        53.5690  -28.8600   28.6440 C.ar   76  TYR76      -0.0200
     81  CD1       53.9640  -29.2920   27.3820 C.ar   76  TYR76      -0.0009
     82  CD2       54.3600  -29.2200   29.7300 C.ar   76  TYR76      -0.0009
     83  CE1       55.0860  -30.0870   27.2150 C.ar   76  TYR76       0.0417
     84  CE2       55.4840  -30.0160   29.5720 C.ar   76  TYR76       0.0417
     85  CZ        55.8410  -30.4450   28.3110 C.ar   76  TYR76       0.1957
     86  OH        56.9550  -31.2350   28.1430 O.3    76  TYR76      -0.2866
     87  N         51.1370  -27.1490   26.2050 N.am   77  ASN77      -0.1960
     88  CA        51.2270  -26.8740   24.7740 C.3    77  ASN77       0.1819
     89  C         52.7000  -26.8980   24.3720 C.2    77  ASN77       0.2621
     90  O         53.4740  -26.0270   24.7810 O.2    77  ASN77      -0.2715
     91  CB        50.5790  -25.5230   24.4690 C.3    77  ASN77       0.1195
     92  CG        50.6030  -25.1620   22.9880 C.2    77  ASN77       0.2630
     93  OD1       51.3220  -25.7640   22.1930 O.2    77  ASN77      -0.2716
     94  ND2       49.8070  -24.1660   22.6150 N.am   77  ASN77      -0.0877
     95  N         53.0880  -27.8870   23.5620 N.am   78  ILE78      -0.1963
     96  CA        54.4960  -28.0670   23.2190 C.3    78  ILE78       0.1727
     97  C         55.0500  -26.9670   22.3240 C.2    78  ILE78       0.2616
     98  O         56.2670  -26.9130   22.1210 O.2    78  ILE78      -0.2715
     99  CB        54.7380  -29.4350   22.5450 C.3    78  ILE78       0.0290
    100  CG1       53.9760  -29.5430   21.2210 C.3    78  ILE78       0.0022
    101  CG2       54.3700  -30.5770   23.4930 C.3    78  ILE78       0.0023
    102  CD1       54.4390  -30.7030   20.3570 C.3    78  ILE78       0.0001
    103  N         54.2030  -26.0990   21.7700 N.am   79  THR79      -0.1951
    104  CA        54.6730  -25.0650   20.8540 C.3    79  THR79       0.1897
    105  C         55.0650  -23.7650   21.5380 C.2    79  THR79       0.2313
    106  O         55.4280  -22.8100   20.8430 O.2    79  THR79      -0.2863
    107  CB        53.5900  -24.7260   19.8260 C.3    79  THR79       0.1794
    108  OG1       52.5320  -24.0100   20.4800 O.3    79  THR79      -0.2208
    109  CG2       53.0340  -25.9820   19.1720 C.3    79  THR79       0.0378
    110  N         49.9900  -37.4370   17.0930 N.3   108  CYS108     -0.1221
    111  CA        48.5500  -37.5900   16.9270 C.3   108  CYS108      0.1808
    112  C         47.8470  -36.2730   17.2130 C.2   108  CYS108      0.2601
    113  O         46.7480  -36.2360   17.7750 O.2   108  CYS108     -0.2717
    114  CB        48.0120  -38.7100   17.8140 C.3   108  CYS108      0.0970
    115  SG        48.8790  -40.2840   17.6130 S.3   108  CYS108     -0.0800
    116  N         48.4840  -35.1690   16.8270 N.am  109  VAL109     -0.1965
    117  CA        47.9580  -33.8250   17.0300 C.3   109  VAL109      0.1727
    118  C         47.0950  -33.4650   15.8290 C.2   109  VAL109      0.2616
    119  O         47.1640  -34.1270   14.7880 O.2   109  VAL109     -0.2715
    120  CB        49.1000  -32.8170   17.2230 C.3   109  VAL109      0.0290
    121  CG1       49.8720  -33.1430   18.4800 C.3   109  VAL109      0.0023
    122  CG2       50.0200  -32.8510   16.0200 C.3   109  VAL109      0.0023
    123  N         46.2930  -32.4080   15.9490 N.am  110  ASP110     -0.1957
    124  CA        45.2680  -32.1070   14.9560 C.3   110  ASP110      0.1840
    125  C         45.4880  -30.7630   14.2640 C.2   110  ASP110      0.2622
    126  O         44.5340  -30.1420   13.7910 O.2   110  ASP110     -0.2715
    127  CB        43.8770  -32.1750   15.5890 C.3   110  ASP110      0.1450
    128  CG        43.6610  -31.1230   16.6630 C.2   110  ASP110      0.3671
    129  OD1       44.6200  -30.4050   17.0140 O.co2 110  ASP110     -0.2456
    130  OD2       42.5280  -31.0360   17.1810 O.co2 110  ASP110     -0.2456
    131  N         46.7370  -30.3080   14.1910 N.am  111  ASN111     -0.1972
    132  CA        47.0750  -29.1010   13.4470 C.3   111  ASN111      0.1688
    133  C         48.5030  -29.2230   12.9350 C.2   111  ASN111      0.2292
    134  O         49.2940  -30.0290   13.4320 O.2   111  ASN111     -0.2864
    135  CB        46.9100  -27.8470   14.3150 C.3   111  ASN111      0.1181
    136  CG        47.7620  -27.8900   15.5700 C.2   111  ASN111      0.2629
    137  OD1       48.8820  -27.3830   15.5880 O.2   111  ASN111     -0.2716
    138  ND2       47.2440  -28.5140   16.6210 N.am  111  ASN111     -0.0877
    139  N         51.6300  -27.9000   15.4590 N.3   114  ALA114     -0.1245
    140  CA        52.1600  -28.8560   16.4230 C.3   114  ALA114      0.1562
    141  C         52.9900  -29.9320   15.7440 C.2   114  ALA114      0.2260
    142  O         53.9930  -30.3850   16.3090 O.2   114  ALA114     -0.2867
    143  CB        51.0230  -29.4920   17.2240 C.3   114  ALA114      0.0290
    144  N         39.3160  -43.1250   12.5950 N.3   176  MET176     -0.1245
    145  CA        40.3230  -42.9910   13.6400 C.3   176  MET176      0.1570
    146  C         40.7700  -44.3520   14.1590 C.2   176  MET176      0.2261
    147  O         41.9630  -44.5720   14.3980 O.2   176  MET176     -0.2867
    148  CB        39.7850  -42.1230   14.7760 C.3   176  MET176      0.0387
    149  CG        39.8110  -40.6380   14.4480 C.3   176  MET176      0.0595
    150  SD        38.9340  -39.6020   15.6280 S.3   176  MET176     -0.1393
    151  CE        39.4370  -37.9810   15.0570 C.3   176  MET176      0.0692
@<TRIPOS>BOND
     1   144   145    1
     2   133   134    2
     3   133   132    1
     4   132   131    1
     5   132   135    1
     6   145   146    1
     7   145   148    1
     8   126   125    2
     9   146   147    2
    10   131   125   am
    11   125   124    1
    12   135   136    1
    13   149   148    1
    14   149   150    1
    15   119   118    2
    16    26    24    1
    17   124   127    1
    18   124   123    1
    19   151   150    1
    20   139   140    1
    21   136   137    2
    22   136   138   am
    23   127   128    1
    24   141   142    2
    25   141   140    1
    26    25    24    1
    27   118   123   am
    28   118   117    1
    29   122   120    1
    30    24    21    1
    31   140   143    1
    32   128   129   ar
    33   128   130   ar
    34   116   117    1
    35   116   112   am
    36   111   110    1
    37   111   112    1
    38   111   114    1
    39   117   120    1
    40   112   113    2
    41   120   121    1
    42    21    20    1
    43    21    22    1
    44   115   114    1
    45    20    18   am
    46    22    23    2
    47    18    17    1
    48    18    19    2
    49    17    16    1
    50   109   107    1
    51    16    14   am
    52     4     3    2
    53   107   108    1
    54   107   104    1
    55   102   100    1
    56    14    15    2
    57    14    13    1
    58     5     7    1
    59     5     6    1
    60     5     2    1
    61    57    56    1
    62     3     2    1
    63     3     8   am
    64   106   105    2
    65   104   105    1
    66   104   103    1
    67    13    12    1
    68    11    10    2
    69   100    99    1
    70     9     8    1
    71     9    10    1
    72     1     2    1
    73   103    97   am
    74    56    55   ar
    75    56    54   ar
    76    55    53   ar
    77    98    97    2
    78    93    92    2
    79    97    96    1
    80    99    96    1
    81    99   101    1
    82    94    92   am
    83    92    91    1
    84    54    52   ar
    85    53    51   ar
    86    74    73    1
    87    96    95    1
    88    45    43   ar
    89    95    89   am
    90    65    63   ar
    91    52    51   ar
    92    30    29    2
    93    51    50    1
    94    89    88    1
    95    89    90    2
    96    43    44   ar
    97    43    42    1
    98    91    88    1
    99    73    72    1
   100    88    87    1
   101    63    62    1
   102    63    64   ar
   103    62    59    1
   104    31    32    1
   105    31    28    1
   106    33    32   ar
   107    33    35   ar
   108    72    71    1
   109    29    28    1
   110    29    38   am
   111    39    42    1
   112    39    38    1
   113    39    40    1
   114    32    34   ar
   115    50    47    1
   116    46    40   am
   117    46    47    1
   118    35    37   ar
   119    28    27    1
   120    78    77    2
   121    87    77   am
   122    58    59    1
   123    58    48   am
   124    40    41    2
   125    34    36   ar
   126    59    60    1
   127    47    48    1
   128    37    36   ar
   129    77    76    1
   130    71    70    1
   131    48    49    2
   132    83    81   ar
   133    83    85   ar
   134    70    67    1
   135    81    80   ar
   136    60    61    2
   137    86    85    1
   138    76    75    1
   139    76    79    1
   140    85    84   ar
   141    80    79    1
   142    80    82   ar
   143    67    68    1
   144    67    66    1
   145    68    69    2
   146    84    82   ar
