@<TRIPOS>MOLECULE
tmp/5l96A00.pdb
 122 122 0 0 0
SMALL
GASTEIGER

@<TRIPOS>ATOM
      1  N        -29.4610  -18.3350    3.0860 N.3    32  TRP32      -0.1228
      2  CA       -30.3990  -17.4800    2.3540 C.3    32  TRP32       0.1722
      3  C        -29.8430  -16.1510    1.8130 C.2    32  TRP32       0.2437
      4  O        -30.3120  -15.6740    0.7690 O.2    32  TRP32      -0.2733
      5  CB       -31.6290  -17.1810    3.2190 C.3    32  TRP32       0.0563
      6  CG       -31.3480  -16.5040    4.5260 C.ar   32  TRP32       0.0003
      7  CD1      -31.0920  -17.1120    5.7220 C.ar   32  TRP32       0.0946
      8  CD2      -31.3250  -15.0910    4.7810 C.ar   32  TRP32       0.0152
      9  NE1      -30.8990  -16.1680    6.7010 N.ar   32  TRP32      -0.2442
     10  CE2      -31.0320  -14.9190    6.1500 C.ar   32  TRP32       0.0810
     11  CE3      -31.5040  -13.9550    3.9830 C.ar   32  TRP32       0.0012
     12  CZ2      -30.9210  -13.6570    6.7410 C.ar   32  TRP32       0.0191
     13  CZ3      -31.3930  -12.7040    4.5690 C.ar   32  TRP32       0.0001
     14  CH2      -31.1020  -12.5660    5.9370 C.ar   32  TRP32       0.0015
     15  N        -28.8500  -15.5410    2.4920 N.am   33  PRO33      -0.2718
     16  CA       -28.4050  -14.3030    1.8430 C.3    33  PRO33       0.1535
     17  C        -27.5090  -14.5420    0.6190 C.2    33  PRO33       0.2598
     18  O        -27.1940  -13.5850   -0.0810 O.2    33  PRO33      -0.2715
     19  CB       -27.6100  -13.5840    2.9510 C.3    33  PRO33       0.0310
     20  CG       -27.9290  -14.3090    4.2240 C.3    33  PRO33       0.0237
     21  CD       -28.1930  -15.7250    3.7990 C.3    33  PRO33       0.0939
     22  N        -27.1150  -15.7890    0.3670 N.am   34  PHE34      -0.1974
     23  CA       -26.0400  -16.0610   -0.5850 C.3    34  PHE34       0.1639
     24  C        -26.4580  -16.9600   -1.7440 C.2    34  PHE34       0.2290
     25  O        -25.6360  -17.3170   -2.5980 O.2    34  PHE34      -0.2864
     26  CB       -24.8530  -16.6840    0.1580 C.3    34  PHE34       0.0560
     27  CG       -24.5030  -15.9590    1.4320 C.ar   34  PHE34      -0.0200
     28  CD1      -23.9140  -14.7060    1.3870 C.ar   34  PHE34      -0.0042
     29  CD2      -24.7770  -16.5240    2.6760 C.ar   34  PHE34      -0.0042
     30  CE1      -23.5990  -14.0240    2.5580 C.ar   34  PHE34      -0.0003
     31  CE2      -24.4670  -15.8480    3.8470 C.ar   34  PHE34      -0.0003
     32  CZ       -23.8750  -14.5960    3.7860 C.ar   34  PHE34      -0.0000
     33  N        -28.6240  -16.4280   -4.2550 N.3    36  LEU36      -0.1231
     34  CA       -28.7500  -15.7470   -5.5450 C.3    36  LEU36       0.1678
     35  C        -27.8690  -14.4970   -5.5970 C.2    36  LEU36       0.2434
     36  O        -27.4460  -13.9950   -4.5530 O.2    36  LEU36      -0.2733
     37  CB       -30.2110  -15.3710   -5.8060 C.3    36  LEU36       0.0284
     38  CG       -31.2070  -16.5190   -5.9630 C.3    36  LEU36       0.0019
     39  CD1      -32.5890  -15.9550   -6.2720 C.3    36  LEU36       0.0001
     40  CD2      -30.7520  -17.4810   -7.0520 C.3    36  LEU36       0.0001
     41  N        -27.5800  -13.9910   -6.8120 N.am   37  PRO37      -0.2718
     42  CA       -26.8040  -12.7490   -6.8970 C.3    37  PRO37       0.1535
     43  C        -27.4640  -11.6310   -6.1090 C.2    37  PRO37       0.2598
     44  O        -28.6920  -11.5650   -6.0620 O.2    37  PRO37      -0.2715
     45  CB       -26.8110  -12.4230   -8.3940 C.3    37  PRO37       0.0310
     46  CG       -27.0160  -13.7370   -9.0520 C.3    37  PRO37       0.0237
     47  CD       -27.9000  -14.5310   -8.1450 C.3    37  PRO37       0.0939
     48  N        -26.6710  -10.7710   -5.4880 N.am   38  VAL38      -0.1964
     49  CA       -27.2480   -9.5970   -4.8580 C.3    38  VAL38       0.1727
     50  C        -27.9000   -8.7600   -5.9570 C.2    38  VAL38       0.2616
     51  O        -27.2840   -8.4890   -6.9900 O.2    38  VAL38      -0.2715
     52  CB       -26.1980   -8.7780   -4.0930 C.3    38  VAL38       0.0290
     53  CG1      -26.7710   -7.4330   -3.6800 C.3    38  VAL38       0.0023
     54  CG2      -25.7110   -9.5570   -2.8730 C.3    38  VAL38       0.0023
     55  N        -29.1600   -8.3950   -5.7490 N.am   39  ASN39      -0.1972
     56  CA       -29.9090   -7.6240   -6.7300 C.3    39  ASN39       0.1688
     57  C        -29.3440   -6.2120   -6.8250 C.2    39  ASN39       0.2292
     58  O        -29.5410   -5.3880   -5.9210 O.2    39  ASN39      -0.2864
     59  CB       -31.3930   -7.5980   -6.3590 C.3    39  ASN39       0.1181
     60  CG       -32.2670   -7.0200   -7.4550 C.2    39  ASN39       0.2629
     61  OD1      -31.8700   -6.1020   -8.1730 O.2    39  ASN39      -0.2716
     62  ND2      -33.4730   -7.5550   -7.5840 N.am   39  ASN39      -0.0877
     63  N        -31.6400   -3.2900   -6.4970 N.3    42  LEU42      -0.1231
     64  CA       -32.3720   -3.2280   -5.2410 C.3    42  LEU42       0.1693
     65  C        -31.4780   -2.7370   -4.1110 C.2    42  LEU42       0.2591
     66  O        -31.9460   -2.0900   -3.1800 O.2    42  LEU42      -0.2718
     67  CB       -32.9530   -4.6060   -4.9000 C.3    42  LEU42       0.0284
     68  CG       -33.8100   -4.8200   -3.6470 C.3    42  LEU42       0.0019
     69  CD1      -34.7880   -5.9560   -3.8820 C.3    42  LEU42       0.0001
     70  CD2      -32.9620   -5.1290   -2.4230 C.3    42  LEU42       0.0001
     71  N        -30.1910   -3.0570   -4.1840 N.am   43  VAL43      -0.1980
     72  CA       -29.2750   -2.7090   -3.1070 C.3    43  VAL43       0.1595
     73  C        -28.3800   -1.5560   -3.5180 C.2    43  VAL43       0.2287
     74  O        -27.4760   -1.7290   -4.3370 O.2    43  VAL43      -0.2864
     75  CB       -28.4000   -3.9080   -2.6850 C.3    43  VAL43       0.0276
     76  CG1      -27.5690   -3.5520   -1.4670 C.3    43  VAL43       0.0022
     77  CG2      -29.2670   -5.1230   -2.3940 C.3    43  VAL43       0.0022
     78  N        -24.0680   -1.4410   -4.0010 N.3    46  TYR46      -0.1241
     79  CA       -23.4010   -2.7350   -4.1330 C.3    46  TYR46       0.1605
     80  C        -22.5620   -2.8140   -5.4010 C.2    46  TYR46       0.2264
     81  O        -21.4110   -3.2530   -5.3590 O.2    46  TYR46      -0.2867
     82  CB       -24.4050   -3.8880   -4.1130 C.3    46  TYR46       0.0534
     83  CG       -23.7550   -5.1880   -3.6830 C.ar   46  TYR46      -0.0201
     84  CD1      -23.3380   -6.1330   -4.6190 C.ar   46  TYR46      -0.0009
     85  CD2      -23.5240   -5.4520   -2.3360 C.ar   46  TYR46      -0.0009
     86  CE1      -22.7260   -7.3150   -4.2220 C.ar   46  TYR46       0.0417
     87  CE2      -22.9180   -6.6280   -1.9290 C.ar   46  TYR46       0.0417
     88  CZ       -22.5220   -7.5550   -2.8730 C.ar   46  TYR46       0.1957
     89  OH       -21.9160   -8.7190   -2.4600 O.3    46  TYR46      -0.2866
     90  N        -19.3230  -10.2270    1.7070 N.3    85  CYS85      -0.1235
     91  CA       -20.3230  -10.0410    2.7500 C.3    85  CYS85       0.1677
     92  C        -19.7610   -9.1890    3.8910 C.2    85  CYS85       0.2270
     93  O        -20.4460   -8.3000    4.3910 O.2    85  CYS85      -0.2867
     94  CB       -20.8280  -11.3890    3.2800 C.3    85  CYS85       0.0956
     95  SG       -22.1230  -11.2610    4.5830 S.3    85  CYS85      -0.0801
     96  N        -19.5780   -5.3830    3.0610 N.3    88  PHE88      -0.1227
     97  CA       -20.8020   -4.6030    2.8980 C.3    88  PHE88       0.1736
     98  C        -21.7120   -4.5950    4.1270 C.2    88  PHE88       0.2595
     99  O        -22.4780   -3.6550    4.3250 O.2    88  PHE88      -0.2718
    100  CB       -21.5860   -5.1150    1.6810 C.3    88  PHE88       0.0547
    101  CG       -22.4750   -4.0720    1.0500 C.ar   88  PHE88      -0.0202
    102  CD1      -21.9440   -3.1140    0.1970 C.ar   88  PHE88      -0.0042
    103  CD2      -23.8370   -4.0480    1.3060 C.ar   88  PHE88      -0.0042
    104  CE1      -22.7540   -2.1490   -0.3880 C.ar   88  PHE88      -0.0003
    105  CE2      -24.6530   -3.0910    0.7190 C.ar   88  PHE88      -0.0003
    106  CZ       -24.1090   -2.1350   -0.1240 C.ar   88  PHE88      -0.0000
    107  N        -21.6300   -5.6340    4.9490 N.am   89  ASN89      -0.1974
    108  CA       -22.5510   -5.7840    6.0740 C.3    89  ASN89       0.1688
    109  C        -21.8610   -5.7000    7.4390 C.2    89  ASN89       0.2292
    110  O        -20.7350   -6.1760    7.5980 O.2    89  ASN89      -0.2864
    111  CB       -23.2940   -7.1200    5.9690 C.3    89  ASN89       0.1181
    112  CG       -23.9740   -7.3170    4.6150 C.2    89  ASN89       0.2629
    113  OD1      -25.1250   -6.9250    4.4290 O.2    89  ASN89      -0.2716
    114  ND2      -23.2690   -7.9510    3.6740 N.am   89  ASN89      -0.0877
    115  N        -27.4140  -10.5320    8.0620 N.3    95  ILE95      -0.1245
    116  CA       -26.6320  -10.9800    6.9090 C.3    95  ILE95       0.1561
    117  C        -25.1540  -11.1250    7.2720 C.2    95  ILE95       0.2260
    118  O        -24.4970  -12.0820    6.8670 O.2    95  ILE95      -0.2867
    119  CB       -26.7730  -10.0070    5.7180 C.3    95  ILE95       0.0252
    120  CG1      -28.2080  -10.0310    5.1850 C.3    95  ILE95       0.0019
    121  CG2      -25.7840  -10.3600    4.6150 C.3    95  ILE95       0.0019
    122  CD1      -28.4870   -8.9870    4.1310 C.3    95  ILE95       0.0001
@<TRIPOS>BOND
     1    46    45    1
     2    46    47    1
     3    45    42    1
     4    61    60    2
     5    47    41    1
     6    62    60   am
     7    60    59    1
     8    40    38    1
     9    51    50    2
    10    42    41    1
    11    42    43    1
    12    57    56    1
    13    57    58    2
    14    41    35   am
    15    56    59    1
    16    56    55    1
    17    63    64    1
    18    39    38    1
    19    43    44    2
    20    43    48   am
    21    38    37    1
    22    50    55   am
    23    50    49    1
    24    37    34    1
    25    35    34    1
    26    35    36    2
    27    34    33    1
    28    48    49    1
    29    80    81    2
    30    80    79    1
    31    64    67    1
    32    64    65    1
    33    67    68    1
    34    49    52    1
    35    84    86   ar
    36    84    83   ar
    37    74    73    2
    38    86    88   ar
    39    71    65   am
    40    71    72    1
    41    79    82    1
    42    79    78    1
    43    82    83    1
    44    65    66    2
    45    52    53    1
    46    52    54    1
    47    69    68    1
    48    83    85   ar
    49    68    70    1
    50    73    72    1
    51    72    75    1
    52    88    89    1
    53    88    87   ar
    54    75    77    1
    55    75    76    1
    56    25    24    2
    57    85    87   ar
    58    24    23    1
    59    23    26    1
    60    23    22    1
    61   104   106   ar
    62   104   102   ar
    63   106   105   ar
    64    18    17    2
    65    26    27    1
    66   102   101   ar
    67    22    17   am
    68    17    16    1
    69   105   103   ar
    70     4     3    2
    71   101   103   ar
    72   101   100    1
    73    28    27   ar
    74    28    30   ar
    75    27    29   ar
    76   100    97    1
    77    90    91    1
    78     3     2    1
    79     3    15   am
    80    16    15    1
    81    16    19    1
    82     2     1    1
    83     2     5    1
    84    15    21    1
    85    30    32   ar
    86    29    31   ar
    87    91    94    1
    88    91    92    1
    89    97    96    1
    90    97    98    1
    91    19    20    1
    92     5     6    1
    93    94    95    1
    94   114   112   am
    95    32    31   ar
    96    21    20    1
    97    92    93    2
    98    11    13   ar
    99    11     8   ar
   100    98    99    2
   101    98   107   am
   102   122   120    1
   103   113   112    2
   104     6     8   ar
   105     6     7   ar
   106    13    14   ar
   107   121   119    1
   108   112   111    1
   109     8    10   ar
   110   107   108    1
   111   120   119    1
   112   119   116    1
   113     7     9   ar
   114    14    12   ar
   115   111   108    1
   116   108   109    1
   117    10     9   ar
   118    10    12   ar
   119   118   117    2
   120   116   117    1
   121   116   115    1
   122   109   110    2
