@<TRIPOS>MOLECULE
tmp/5l97A00.pdb
 114 114 0 0 0
SMALL
GASTEIGER

@<TRIPOS>ATOM
      1  N        -29.4380  -18.4110    3.1860 N.3    32  TRP32      -0.1228
      2  CA       -30.3730  -17.5380    2.4760 C.3    32  TRP32       0.1722
      3  C        -29.8250  -16.2200    1.8930 C.2    32  TRP32       0.2437
      4  O        -30.2740  -15.8030    0.8220 O.2    32  TRP32      -0.2733
      5  CB       -31.6270  -17.2700    3.3250 C.3    32  TRP32       0.0563
      6  CG       -31.3600  -16.6040    4.6390 C.ar   32  TRP32       0.0003
      7  CD1      -31.1370  -17.2200    5.8380 C.ar   32  TRP32       0.0946
      8  CD2      -31.3100  -15.1930    4.8980 C.ar   32  TRP32       0.0152
      9  NE1      -30.9420  -16.2820    6.8200 N.ar   32  TRP32      -0.2442
     10  CE2      -31.0380  -15.0290    6.2700 C.ar   32  TRP32       0.0810
     11  CE3      -31.4500  -14.0530    4.0990 C.ar   32  TRP32       0.0012
     12  CZ2      -30.9130  -13.7710    6.8670 C.ar   32  TRP32       0.0191
     13  CZ3      -31.3260  -12.8010    4.6920 C.ar   32  TRP32       0.0001
     14  CH2      -31.0590  -12.6720    6.0630 C.ar   32  TRP32       0.0015
     15  N        -28.8640  -15.5540    2.5740 N.am   33  PRO33      -0.2718
     16  CA       -28.4460  -14.3070    1.9180 C.3    33  PRO33       0.1535
     17  C        -27.5860  -14.5650    0.6760 C.2    33  PRO33       0.2598
     18  O        -27.3810  -13.6300   -0.0990 O.2    33  PRO33      -0.2715
     19  CB       -27.6420  -13.5770    3.0060 C.3    33  PRO33       0.0310
     20  CG       -27.9250  -14.3260    4.3110 C.3    33  PRO33       0.0237
     21  CD       -28.2040  -15.7350    3.8820 C.3    33  PRO33       0.0939
     22  N        -27.0950  -15.7920    0.5040 N.am   34  PHE34      -0.1974
     23  CA       -26.0580  -16.0830   -0.4890 C.3    34  PHE34       0.1639
     24  C        -26.4860  -17.0010   -1.6220 C.2    34  PHE34       0.2290
     25  O        -25.6490  -17.4280   -2.4370 O.2    34  PHE34      -0.2864
     26  CB       -24.8770  -16.7170    0.2470 C.3    34  PHE34       0.0560
     27  CG       -24.5300  -16.0100    1.5300 C.ar   34  PHE34      -0.0200
     28  CD1      -24.0310  -14.7160    1.5040 C.ar   34  PHE34      -0.0042
     29  CD2      -24.7220  -16.6310    2.7600 C.ar   34  PHE34      -0.0042
     30  CE1      -23.7220  -14.0490    2.6780 C.ar   34  PHE34      -0.0003
     31  CE2      -24.4140  -15.9730    3.9450 C.ar   34  PHE34      -0.0003
     32  CZ       -23.9120  -14.6730    3.9050 C.ar   34  PHE34      -0.0000
     33  N        -28.5990  -16.5030   -4.1320 N.3    36  LEU36      -0.1231
     34  CA       -28.8040  -15.8390   -5.4250 C.3    36  LEU36       0.1678
     35  C        -27.8750  -14.6340   -5.5190 C.2    36  LEU36       0.2434
     36  O        -27.3060  -14.2170   -4.5090 O.2    36  LEU36      -0.2733
     37  CB       -30.2730  -15.4430   -5.5790 C.3    36  LEU36       0.0284
     38  CG       -31.3000  -16.5730   -5.6150 C.3    36  LEU36       0.0019
     39  CD1      -32.6970  -15.9840   -5.7110 C.3    36  LEU36       0.0001
     40  CD2      -31.0270  -17.5130   -6.7840 C.3    36  LEU36       0.0001
     41  N        -27.7100  -14.0590   -6.7240 N.am   37  PRO37      -0.2718
     42  CA       -26.8880  -12.8460   -6.8480 C.3    37  PRO37       0.1535
     43  C        -27.5730  -11.6920   -6.1280 C.2    37  PRO37       0.2598
     44  O        -28.8010  -11.6200   -6.1340 O.2    37  PRO37      -0.2715
     45  CB       -26.9200  -12.5560   -8.3580 C.3    37  PRO37       0.0310
     46  CG       -27.1800  -13.8590   -8.9940 C.3    37  PRO37       0.0237
     47  CD       -28.0400  -14.6390   -8.0390 C.3    37  PRO37       0.0939
     48  N        -26.7990  -10.7980   -5.5210 N.am   38  VAL38      -0.1964
     49  CA       -27.3730   -9.5750   -4.9730 C.3    38  VAL38       0.1727
     50  C        -27.9320   -8.7660   -6.1360 C.2    38  VAL38       0.2616
     51  O        -27.2870   -8.6560   -7.1800 O.2    38  VAL38      -0.2715
     52  CB       -26.3180   -8.7510   -4.2080 C.3    38  VAL38       0.0290
     53  CG1      -26.8720   -7.3740   -3.8230 C.3    38  VAL38       0.0023
     54  CG2      -25.8600   -9.5100   -2.9660 C.3    38  VAL38       0.0023
     55  N        -29.1400   -8.2350   -5.9730 N.am   39  ASN39      -0.1972
     56  CA       -29.7890   -7.4780   -7.0360 C.3    39  ASN39       0.1688
     57  C        -29.1460   -6.1060   -7.1640 C.2    39  ASN39       0.2292
     58  O        -29.4020   -5.2070   -6.3560 O.2    39  ASN39      -0.2864
     59  CB       -31.2890   -7.3390   -6.7560 C.3    39  ASN39       0.1181
     60  CG       -32.0660   -6.8280   -7.9570 C.2    39  ASN39       0.2629
     61  OD1      -31.5950   -5.9720   -8.7080 O.2    39  ASN39      -0.2716
     62  ND2      -33.2680   -7.3560   -8.1450 N.am   39  ASN39      -0.0877
     63  N        -30.1850   -2.7910   -4.6510 N.3    43  VAL43      -0.1245
     64  CA       -29.3640   -2.5390   -3.4700 C.3    43  VAL43       0.1561
     65  C        -28.3720   -1.4220   -3.7360 C.2    43  VAL43       0.2260
     66  O        -27.3550   -1.6350   -4.4030 O.2    43  VAL43      -0.2867
     67  CB       -28.6010   -3.7960   -3.0140 C.3    43  VAL43       0.0252
     68  CG1      -27.9370   -3.5430   -1.6660 C.3    43  VAL43       0.0019
     69  CG2      -29.5480   -4.9940   -2.9260 C.3    43  VAL43       0.0019
     70  N        -24.1050   -1.3390   -3.9160 N.3    46  TYR46      -0.1241
     71  CA       -23.4870   -2.6480   -4.1110 C.3    46  TYR46       0.1605
     72  C        -22.6230   -2.7520   -5.3680 C.2    46  TYR46       0.2264
     73  O        -21.4950   -3.2480   -5.3070 O.2    46  TYR46      -0.2867
     74  CB       -24.5130   -3.7820   -4.0890 C.3    46  TYR46       0.0534
     75  CG       -23.8910   -5.0870   -3.6380 C.ar   46  TYR46      -0.0201
     76  CD1      -23.4340   -6.0240   -4.5630 C.ar   46  TYR46      -0.0009
     77  CD2      -23.7310   -5.3670   -2.2810 C.ar   46  TYR46      -0.0009
     78  CE1      -22.8550   -7.2280   -4.1480 C.ar   46  TYR46       0.0417
     79  CE2      -23.1520   -6.5590   -1.8570 C.ar   46  TYR46       0.0417
     80  CZ       -22.7150   -7.4850   -2.7950 C.ar   46  TYR46       0.1957
     81  OH       -22.1380   -8.6670   -2.3740 O.3    46  TYR46      -0.2866
     82  N        -19.5390  -10.1630    1.7630 N.3    85  CYS85      -0.1235
     83  CA       -20.5250  -10.0040    2.8240 C.3    85  CYS85       0.1677
     84  C        -19.9610   -9.1340    3.9440 C.2    85  CYS85       0.2270
     85  O        -20.6530   -8.2420    4.4540 O.2    85  CYS85      -0.2867
     86  CB       -20.9750  -11.3700    3.3590 C.3    85  CYS85       0.0956
     87  SG       -22.2080  -11.2870    4.6970 S.3    85  CYS85      -0.0801
     88  N        -19.7410   -5.3340    2.9770 N.3    88  PHE88      -0.1227
     89  CA       -20.9860   -4.5930    2.8340 C.3    88  PHE88       0.1736
     90  C        -21.8690   -4.5980    4.0810 C.2    88  PHE88       0.2595
     91  O        -22.6680   -3.6830    4.2790 O.2    88  PHE88      -0.2718
     92  CB       -21.7780   -5.1130    1.6220 C.3    88  PHE88       0.0547
     93  CG       -22.6950   -4.0780    1.0140 C.ar   88  PHE88      -0.0202
     94  CD1      -22.1830   -3.0600    0.2260 C.ar   88  PHE88      -0.0042
     95  CD2      -24.0620   -4.1210    1.2380 C.ar   88  PHE88      -0.0042
     96  CE1      -23.0150   -2.0970   -0.3340 C.ar   88  PHE88      -0.0003
     97  CE2      -24.9020   -3.1750    0.6770 C.ar   88  PHE88      -0.0003
     98  CZ       -24.3770   -2.1530   -0.1030 C.ar   88  PHE88      -0.0000
     99  N        -21.7120   -5.6150    4.9240 N.am   89  ASN89      -0.1974
    100  CA       -22.6140   -5.8240    6.0620 C.3    89  ASN89       0.1688
    101  C        -21.9320   -5.6940    7.4270 C.2    89  ASN89       0.2292
    102  O        -20.8070   -6.1570    7.6140 O.2    89  ASN89      -0.2864
    103  CB       -23.2820   -7.2050    5.9660 C.3    89  ASN89       0.1181
    104  CG       -24.0800   -7.3930    4.6740 C.2    89  ASN89       0.2629
    105  OD1      -25.2490   -7.0130    4.5960 O.2    89  ASN89      -0.2716
    106  ND2      -23.4570   -8.0060    3.6660 N.am   89  ASN89      -0.0877
    107  N        -27.4930  -10.6400    8.2620 N.3    95  ILE95      -0.1245
    108  CA       -26.6970  -11.0670    7.1200 C.3    95  ILE95       0.1561
    109  C        -25.2220  -11.1940    7.4980 C.2    95  ILE95       0.2260
    110  O        -24.5610  -12.1630    7.1370 O.2    95  ILE95      -0.2867
    111  CB       -26.8430  -10.0970    5.9290 C.3    95  ILE95       0.0252
    112  CG1      -28.2720  -10.1330    5.3860 C.3    95  ILE95       0.0019
    113  CG2      -25.8550  -10.4490    4.8240 C.3    95  ILE95       0.0019
    114  CD1      -28.5500   -9.0590    4.3630 C.3    95  ILE95       0.0001
@<TRIPOS>BOND
     1    46    45    1
     2    46    47    1
     3    61    60    2
     4    45    42    1
     5    62    60   am
     6    47    41    1
     7    60    59    1
     8    51    50    2
     9    57    56    1
    10    57    58    2
    11    56    59    1
    12    56    55    1
    13    42    41    1
    14    42    43    1
    15    40    38    1
    16    41    35   am
    17    50    55   am
    18    50    49    1
    19    44    43    2
    20    43    48   am
    21    39    38    1
    22    38    37    1
    23    37    34    1
    24    48    49    1
    25    35    34    1
    26    35    36    2
    27    34    33    1
    28    72    73    2
    29    72    71    1
    30    49    52    1
    31    63    64    1
    32    76    78   ar
    33    76    75   ar
    34    66    65    2
    35    52    53    1
    36    52    54    1
    37    78    80   ar
    38    71    74    1
    39    71    70    1
    40    74    75    1
    41    65    64    1
    42    75    77   ar
    43    64    67    1
    44    67    69    1
    45    67    68    1
    46    80    81    1
    47    80    79   ar
    48    25    24    2
    49    77    79   ar
    50    24    23    1
    51    23    26    1
    52    23    22    1
    53    96    98   ar
    54    96    94   ar
    55    98    97   ar
    56    18    17    2
    57    94    93   ar
    58    26    27    1
    59    22    17   am
    60    17    16    1
    61    97    95   ar
    62     4     3    2
    63    93    95   ar
    64    93    92    1
    65    28    27   ar
    66    28    30   ar
    67    27    29   ar
    68    92    89    1
    69    82    83    1
    70     3     2    1
    71     3    15   am
    72    16    15    1
    73    16    19    1
    74     2     1    1
    75     2     5    1
    76    15    21    1
    77    30    32   ar
    78    29    31   ar
    79    83    86    1
    80    83    84    1
    81    89    88    1
    82    89    90    1
    83    19    20    1
    84     5     6    1
    85    86    87    1
    86   106   104   am
    87    21    20    1
    88    32    31   ar
    89    84    85    2
    90    90    91    2
    91    90    99   am
    92    11    13   ar
    93    11     8   ar
    94   114   112    1
    95   105   104    2
    96     6     8   ar
    97     6     7   ar
    98   104   103    1
    99    13    14   ar
   100   113   111    1
   101     8    10   ar
   102    99   100    1
   103   112   111    1
   104     7     9   ar
   105   111   108    1
   106   103   100    1
   107   100   101    1
   108    14    12   ar
   109    10     9   ar
   110    10    12   ar
   111   108   109    1
   112   108   107    1
   113   110   109    2
   114   101   102    2
