@<TRIPOS>MOLECULE
tmp/5l98A00.pdb
 114 114 0 0 0
SMALL
GASTEIGER

@<TRIPOS>ATOM
      1  N        -29.1110  -18.1810    2.8870 N.3    32  TRP32      -0.1228
      2  CA       -29.9980  -17.2920    2.1410 C.3    32  TRP32       0.1722
      3  C        -29.3830  -15.9740    1.6250 C.2    32  TRP32       0.2437
      4  O        -29.7470  -15.5340    0.5330 O.2    32  TRP32      -0.2733
      5  CB       -31.2440  -16.9720    2.9810 C.3    32  TRP32       0.0563
      6  CG       -30.9700  -16.3310    4.3060 C.ar   32  TRP32       0.0003
      7  CD1      -30.7270  -16.9710    5.4910 C.ar   32  TRP32       0.0946
      8  CD2      -30.9420  -14.9290    4.5960 C.ar   32  TRP32       0.0152
      9  NE1      -30.5310  -16.0520    6.4940 N.ar   32  TRP32      -0.2442
     10  CE2      -30.6560  -14.7900    5.9740 C.ar   32  TRP32       0.0810
     11  CE3      -31.1060  -13.7730    3.8240 C.ar   32  TRP32       0.0012
     12  CZ2      -30.5410  -13.5460    6.5960 C.ar   32  TRP32       0.0191
     13  CZ3      -30.9960  -12.5370    4.4430 C.ar   32  TRP32       0.0001
     14  CH2      -30.7150  -12.4330    5.8170 C.ar   32  TRP32       0.0015
     15  N        -28.4490  -15.3440    2.3750 N.am   33  PRO33      -0.2718
     16  CA       -27.9540  -14.1130    1.7500 C.3    33  PRO33       0.1535
     17  C        -27.0450  -14.3770    0.5480 C.2    33  PRO33       0.2598
     18  O        -26.6830  -13.4350   -0.1660 O.2    33  PRO33      -0.2715
     19  CB       -27.1500  -13.4310    2.8760 C.3    33  PRO33       0.0310
     20  CG       -27.5130  -14.1470    4.1540 C.3    33  PRO33       0.0237
     21  CD       -27.8430  -15.5600    3.7060 C.3    33  PRO33       0.0939
     22  N        -26.6810  -15.6370    0.3250 N.am   34  PHE34      -0.1974
     23  CA       -25.6050  -15.9390   -0.6150 C.3    34  PHE34       0.1639
     24  C        -26.0230  -16.8230   -1.7830 C.2    34  PHE34       0.2290
     25  O        -25.1880  -17.1840   -2.6090 O.2    34  PHE34      -0.2864
     26  CB       -24.4470  -16.6020    0.1420 C.3    34  PHE34       0.0560
     27  CG       -24.0770  -15.8850    1.4120 C.ar   34  PHE34      -0.0200
     28  CD1      -23.5100  -14.6190    1.3600 C.ar   34  PHE34      -0.0042
     29  CD2      -24.2980  -16.4750    2.6610 C.ar   34  PHE34      -0.0042
     30  CE1      -23.1710  -13.9370    2.5330 C.ar   34  PHE34      -0.0003
     31  CE2      -23.9640  -15.7990    3.8450 C.ar   34  PHE34      -0.0003
     32  CZ       -23.4000  -14.5330    3.7850 C.ar   34  PHE34      -0.0000
     33  N        -28.1310  -16.2690   -4.2860 N.3    36  LEU36      -0.1231
     34  CA       -28.3470  -15.5640   -5.5470 C.3    36  LEU36       0.1678
     35  C        -27.4650  -14.3180   -5.6500 C.2    36  LEU36       0.2434
     36  O        -27.0330  -13.7850   -4.6240 O.2    36  LEU36      -0.2733
     37  CB       -29.8200  -15.1680   -5.6800 C.3    36  LEU36       0.0284
     38  CG       -30.8730  -16.2550   -5.8930 C.3    36  LEU36       0.0019
     39  CD1      -32.2470  -15.6010   -6.0340 C.3    36  LEU36       0.0001
     40  CD2      -30.5520  -17.1240   -7.1070 C.3    36  LEU36       0.0001
     41  N        -27.1990  -13.8430   -6.8880 N.am   37  PRO37      -0.2718
     42  CA       -26.4390  -12.5980   -7.0660 C.3    37  PRO37       0.1535
     43  C        -27.0970  -11.4510   -6.3210 C.2    37  PRO37       0.2598
     44  O        -28.3260  -11.3720   -6.3310 O.2    37  PRO37      -0.2715
     45  CB       -26.4910  -12.3500   -8.5920 C.3    37  PRO37       0.0310
     46  CG       -26.7670  -13.6640   -9.1950 C.3    37  PRO37       0.0237
     47  CD       -27.5960  -14.4370   -8.1770 C.3    37  PRO37       0.0939
     48  N        -26.3150  -10.5850   -5.6860 N.am   38  VAL38      -0.1964
     49  CA       -26.8870   -9.3690   -5.1120 C.3    38  VAL38       0.1727
     50  C        -27.4450   -8.5580   -6.2660 C.2    38  VAL38       0.2616
     51  O        -26.8040   -8.4380   -7.3080 O.2    38  VAL38      -0.2715
     52  CB       -25.8510   -8.5410   -4.3110 C.3    38  VAL38       0.0290
     53  CG1      -26.4080   -7.1640   -3.9830 C.3    38  VAL38       0.0023
     54  CG2      -25.4360   -9.2820   -3.0260 C.3    38  VAL38       0.0023
     55  N        -28.6600   -8.0440   -6.1050 N.am   39  ASN39      -0.1972
     56  CA       -29.2910   -7.2420   -7.1480 C.3    39  ASN39       0.1688
     57  C        -28.6410   -5.8600   -7.2650 C.2    39  ASN39       0.2292
     58  O        -28.8530   -4.9890   -6.4140 O.2    39  ASN39      -0.2864
     59  CB       -30.7910   -7.1010   -6.8740 C.3    39  ASN39       0.1181
     60  CG       -31.5540   -6.5670   -8.0740 C.2    39  ASN39       0.2629
     61  OD1      -31.0360   -5.7570   -8.8420 O.2    39  ASN39      -0.2716
     62  ND2      -32.7860   -7.0310   -8.2500 N.am   39  ASN39      -0.0877
     63  N        -29.6590   -2.6490   -4.6150 N.3    43  VAL43      -0.1245
     64  CA       -28.8070   -2.4110   -3.4570 C.3    43  VAL43       0.1561
     65  C        -27.8140   -1.3010   -3.7630 C.2    43  VAL43       0.2260
     66  O        -26.8380   -1.5200   -4.4810 O.2    43  VAL43      -0.2867
     67  CB       -28.0380   -3.6780   -3.0310 C.3    43  VAL43       0.0252
     68  CG1      -27.2170   -3.3960   -1.7810 C.3    43  VAL43       0.0019
     69  CG2      -29.0090   -4.8340   -2.7870 C.3    43  VAL43       0.0019
     70  N        -23.4190   -1.3930   -4.0130 N.3    46  TYR46      -0.1241
     71  CA       -22.7750   -2.6920   -4.2010 C.3    46  TYR46       0.1605
     72  C        -21.8810   -2.7340   -5.4310 C.2    46  TYR46       0.2264
     73  O        -20.7320   -3.1970   -5.3550 O.2    46  TYR46      -0.2867
     74  CB       -23.8090   -3.8190   -4.2790 C.3    46  TYR46       0.0534
     75  CG       -23.2360   -5.1430   -3.8120 C.ar   46  TYR46      -0.0201
     76  CD1      -22.8600   -6.1320   -4.7190 C.ar   46  TYR46      -0.0009
     77  CD2      -23.0380   -5.3860   -2.4510 C.ar   46  TYR46      -0.0009
     78  CE1      -22.3180   -7.3560   -4.2790 C.ar   46  TYR46       0.0417
     79  CE2      -22.5040   -6.5890   -1.9980 C.ar   46  TYR46       0.0417
     80  CZ       -22.1430   -7.5670   -2.9120 C.ar   46  TYR46       0.1957
     81  OH       -21.6160   -8.7470   -2.4410 O.3    46  TYR46      -0.2866
     82  N        -18.9780  -10.1650    1.7070 N.3    85  CYS85      -0.1235
     83  CA       -19.9570   -9.9860    2.7730 C.3    85  CYS85       0.1677
     84  C        -19.3830   -9.1570    3.9140 C.2    85  CYS85       0.2270
     85  O        -20.0990   -8.3940    4.5580 O.2    85  CYS85      -0.2867
     86  CB       -20.4270  -11.3450    3.3070 C.3    85  CYS85       0.0956
     87  SG       -21.7200  -11.2350    4.5720 S.3    85  CYS85      -0.0801
     88  N        -19.1620   -5.3350    2.9230 N.3    88  PHE88      -0.1227
     89  CA       -20.3960   -4.5610    2.8150 C.3    88  PHE88       0.1736
     90  C        -21.3140   -4.6050    4.0410 C.2    88  PHE88       0.2595
     91  O        -22.3050   -3.8780    4.0930 O.2    88  PHE88      -0.2718
     92  CB       -21.1820   -5.0410    1.5960 C.3    88  PHE88       0.0547
     93  CG       -22.0780   -3.9870    0.9950 C.ar   88  PHE88      -0.0202
     94  CD1      -21.5470   -2.9770    0.2080 C.ar   88  PHE88      -0.0042
     95  CD2      -23.4500   -4.0140    1.2100 C.ar   88  PHE88      -0.0042
     96  CE1      -22.3690   -2.0010   -0.3630 C.ar   88  PHE88      -0.0003
     97  CE2      -24.2790   -3.0520    0.6480 C.ar   88  PHE88      -0.0003
     98  CZ       -23.7380   -2.0400   -0.1380 C.ar   88  PHE88      -0.0000
     99  N        -20.9980   -5.4560    5.0140 N.am   89  ASN89      -0.1974
    100  CA       -21.9260   -5.7370    6.1010 C.3    89  ASN89       0.1688
    101  C        -21.2570   -5.6640    7.4650 C.2    89  ASN89       0.2292
    102  O        -20.1850   -6.2380    7.6590 O.2    89  ASN89      -0.2864
    103  CB       -22.5560   -7.1310    5.9400 C.3    89  ASN89       0.1181
    104  CG       -23.4230   -7.2640    4.6930 C.2    89  ASN89       0.2629
    105  OD1      -24.5850   -6.8550    4.6810 O.2    89  ASN89      -0.2716
    106  ND2      -22.8710   -7.8780    3.6480 N.am   89  ASN89      -0.0877
    107  N        -26.9200  -10.5740    8.2380 N.3    95  ILE95      -0.1245
    108  CA       -26.1270  -10.9980    7.0800 C.3    95  ILE95       0.1561
    109  C        -24.6650  -11.1360    7.4770 C.2    95  ILE95       0.2260
    110  O        -23.9860  -12.0680    7.0530 O.2    95  ILE95      -0.2867
    111  CB       -26.2570  -10.0120    5.9080 C.3    95  ILE95       0.0252
    112  CG1      -27.7030   -9.9810    5.4120 C.3    95  ILE95       0.0019
    113  CG2      -25.3270  -10.4190    4.7480 C.3    95  ILE95       0.0019
    114  CD1      -28.0340   -8.7550    4.5990 C.3    95  ILE95       0.0001
@<TRIPOS>BOND
     1    46    45    1
     2    46    47    1
     3    61    60    2
     4    45    42    1
     5    62    60   am
     6    47    41    1
     7    60    59    1
     8    51    50    2
     9    57    56    1
    10    57    58    2
    11    56    59    1
    12    56    55    1
    13    40    38    1
    14    42    41    1
    15    42    43    1
    16    41    35   am
    17    44    43    2
    18    43    48   am
    19    50    55   am
    20    50    49    1
    21    39    38    1
    22    38    37    1
    23    48    49    1
    24    37    34    1
    25    35    34    1
    26    35    36    2
    27    34    33    1
    28    72    73    2
    29    72    71    1
    30    49    52    1
    31    76    78   ar
    32    76    75   ar
    33    63    64    1
    34    66    65    2
    35    52    53    1
    36    52    54    1
    37    78    80   ar
    38    74    71    1
    39    74    75    1
    40    71    70    1
    41    75    77   ar
    42    65    64    1
    43    64    67    1
    44    67    69    1
    45    67    68    1
    46    80    81    1
    47    80    79   ar
    48    25    24    2
    49    77    79   ar
    50    24    23    1
    51    23    26    1
    52    23    22    1
    53    96    98   ar
    54    96    94   ar
    55    18    17    2
    56    98    97   ar
    57    26    27    1
    58    94    93   ar
    59    22    17   am
    60     4     3    2
    61    17    16    1
    62    97    95   ar
    63    93    95   ar
    64    93    92    1
    65    28    27   ar
    66    28    30   ar
    67    27    29   ar
    68    92    89    1
    69     3     2    1
    70     3    15   am
    71    82    83    1
    72    16    15    1
    73    16    19    1
    74     2     1    1
    75     2     5    1
    76    15    21    1
    77    30    32   ar
    78    29    31   ar
    79    83    86    1
    80    83    84    1
    81    89    88    1
    82    89    90    1
    83    19    20    1
    84     5     6    1
    85    86    87    1
    86   106   104   am
    87    21    20    1
    88    32    31   ar
    89    11    13   ar
    90    11     8   ar
    91    84    85    2
    92    90    91    2
    93    90    99   am
    94     6     8   ar
    95     6     7   ar
    96    13    14   ar
    97     8    10   ar
    98   114   112    1
    99   105   104    2
   100   104   103    1
   101   113   111    1
   102    99   100    1
   103   112   111    1
   104     7     9   ar
   105    14    12   ar
   106   111   108    1
   107   103   100    1
   108    10     9   ar
   109    10    12   ar
   110   100   101    1
   111   110   109    2
   112   108   109    1
   113   108   107    1
   114   101   102    2
