@<TRIPOS>MOLECULE
tmp/5l99A00.pdb
 114 114 0 0 0
SMALL
GASTEIGER

@<TRIPOS>ATOM
      1  N        -29.5680  -18.3680    3.0170 N.3    32  TRP32      -0.1228
      2  CA       -30.4880  -17.5110    2.2700 C.3    32  TRP32       0.1722
      3  C        -29.9220  -16.1620    1.7670 C.2    32  TRP32       0.2437
      4  O        -30.3630  -15.6890    0.7240 O.2    32  TRP32      -0.2733
      5  CB       -31.7570  -17.2440    3.0940 C.3    32  TRP32       0.0563
      6  CG       -31.5160  -16.5960    4.4210 C.ar   32  TRP32       0.0003
      7  CD1      -31.3320  -17.2290    5.6230 C.ar   32  TRP32       0.0946
      8  CD2      -31.4450  -15.1910    4.6920 C.ar   32  TRP32       0.0152
      9  NE1      -31.1400  -16.2990    6.6190 N.ar   32  TRP32      -0.2442
     10  CE2      -31.2000  -15.0400    6.0720 C.ar   32  TRP32       0.0810
     11  CE3      -31.5460  -14.0420    3.8980 C.ar   32  TRP32       0.0012
     12  CZ2      -31.0610  -13.7890    6.6810 C.ar   32  TRP32       0.0191
     13  CZ3      -31.4100  -12.7950    4.5040 C.ar   32  TRP32       0.0001
     14  CH2      -31.1700  -12.6820    5.8830 C.ar   32  TRP32       0.0015
     15  N        -28.9530  -15.5360    2.4770 N.am   33  PRO33      -0.2718
     16  CA       -28.4790  -14.2940    1.8500 C.3    33  PRO33       0.1535
     17  C        -27.5540  -14.5220    0.6470 C.2    33  PRO33       0.2598
     18  O        -27.2110  -13.5520   -0.0370 O.2    33  PRO33      -0.2715
     19  CB       -27.7050  -13.5920    2.9810 C.3    33  PRO33       0.0310
     20  CG       -28.0550  -14.3400    4.2550 C.3    33  PRO33       0.0237
     21  CD       -28.3130  -15.7450    3.7880 C.3    33  PRO33       0.0939
     22  N        -27.1610  -15.7690    0.3950 N.am   34  PHE34      -0.1974
     23  CA       -26.1040  -16.0520   -0.5810 C.3    34  PHE34       0.1639
     24  C        -26.5360  -16.9730   -1.7210 C.2    34  PHE34       0.2290
     25  O        -25.7080  -17.3670   -2.5410 O.2    34  PHE34      -0.2864
     26  CB       -24.8960  -16.6690    0.1420 C.3    34  PHE34       0.0560
     27  CG       -24.5450  -15.9630    1.4360 C.ar   34  PHE34      -0.0200
     28  CD1      -24.0260  -14.6760    1.4160 C.ar   34  PHE34      -0.0042
     29  CD2      -24.7550  -16.5810    2.6610 C.ar   34  PHE34      -0.0042
     30  CE1      -23.7150  -14.0100    2.5950 C.ar   34  PHE34      -0.0003
     31  CE2      -24.4480  -15.9300    3.8520 C.ar   34  PHE34      -0.0003
     32  CZ       -23.9230  -14.6420    3.8210 C.ar   34  PHE34      -0.0000
     33  N        -28.6610  -16.4500   -4.2470 N.3    36  LEU36      -0.1231
     34  CA       -28.8480  -15.7730   -5.5340 C.3    36  LEU36       0.1678
     35  C        -28.0010  -14.5010   -5.6110 C.2    36  LEU36       0.2434
     36  O        -27.6130  -13.9540   -4.5770 O.2    36  LEU36      -0.2733
     37  CB       -30.3290  -15.4310   -5.7460 C.3    36  LEU36       0.0284
     38  CG       -31.3070  -16.6030   -5.8470 C.3    36  LEU36       0.0019
     39  CD1      -32.7210  -16.0840   -6.0610 C.3    36  LEU36       0.0001
     40  CD2      -30.9020  -17.5510   -6.9700 C.3    36  LEU36       0.0001
     41  N        -27.7030  -14.0260   -6.8370 N.am   37  PRO37      -0.2718
     42  CA       -26.9550  -12.7650   -6.9720 C.3    37  PRO37       0.1535
     43  C        -27.6540  -11.6200   -6.2460 C.2    37  PRO37       0.2598
     44  O        -28.8830  -11.5550   -6.2680 O.2    37  PRO37      -0.2715
     45  CB       -26.9470  -12.5090   -8.4890 C.3    37  PRO37       0.0310
     46  CG       -27.2080  -13.8380   -9.1160 C.3    37  PRO37       0.0237
     47  CD       -28.0630  -14.6070   -8.1450 C.3    37  PRO37       0.0939
     48  N        -26.8930  -10.7520   -5.5890 N.am   38  VAL38      -0.1964
     49  CA       -27.4680   -9.5270   -5.0330 C.3    38  VAL38       0.1727
     50  C        -27.9970   -8.6920   -6.1920 C.2    38  VAL38       0.2616
     51  O        -27.3120   -8.5380   -7.2040 O.2    38  VAL38      -0.2715
     52  CB       -26.4350   -8.7270   -4.2260 C.3    38  VAL38       0.0290
     53  CG1      -26.9940   -7.3610   -3.8230 C.3    38  VAL38       0.0023
     54  CG2      -26.0050   -9.5180   -3.0050 C.3    38  VAL38       0.0023
     55  N        -29.2210   -8.1850   -6.0640 N.am   39  ASN39      -0.1972
     56  CA       -29.8470   -7.4260   -7.1470 C.3    39  ASN39       0.1688
     57  C        -29.2460   -6.0280   -7.2540 C.2    39  ASN39       0.2292
     58  O        -29.5690   -5.1390   -6.4630 O.2    39  ASN39      -0.2864
     59  CB       -31.3660   -7.3470   -6.9310 C.3    39  ASN39       0.1181
     60  CG       -32.1090   -6.7860   -8.1370 C.2    39  ASN39       0.2629
     61  OD1      -31.5800   -5.9690   -8.8930 O.2    39  ASN39      -0.2716
     62  ND2      -33.3460   -7.2290   -8.3200 N.am   39  ASN39      -0.0877
     63  N        -30.2960   -2.7900   -4.6680 N.3    43  VAL43      -0.1245
     64  CA       -29.4520   -2.5470   -3.5050 C.3    43  VAL43       0.1561
     65  C        -28.4490   -1.4380   -3.7780 C.2    43  VAL43       0.2260
     66  O        -27.4690   -1.6390   -4.5020 O.2    43  VAL43      -0.2867
     67  CB       -28.6950   -3.8080   -3.0720 C.3    43  VAL43       0.0252
     68  CG1      -27.9270   -3.5290   -1.7930 C.3    43  VAL43       0.0019
     69  CG2      -29.6690   -4.9760   -2.8850 C.3    43  VAL43       0.0019
     70  N        -24.1470   -1.3520   -3.9500 N.3    46  TYR46      -0.1241
     71  CA       -23.5040   -2.6620   -4.1050 C.3    46  TYR46       0.1605
     72  C        -22.6400   -2.7370   -5.3640 C.2    46  TYR46       0.2264
     73  O        -21.4860   -3.1670   -5.2970 O.2    46  TYR46      -0.2867
     74  CB       -24.5310   -3.7990   -4.1130 C.3    46  TYR46       0.0534
     75  CG       -23.9240   -5.1100   -3.6500 C.ar   46  TYR46      -0.0201
     76  CD1      -23.4450   -6.0410   -4.5690 C.ar   46  TYR46      -0.0009
     77  CD2      -23.7960   -5.3960   -2.2950 C.ar   46  TYR46      -0.0009
     78  CE1      -22.8730   -7.2420   -4.1490 C.ar   46  TYR46       0.0417
     79  CE2      -23.2220   -6.6030   -1.8580 C.ar   46  TYR46       0.0417
     80  CZ       -22.7620   -7.5160   -2.7950 C.ar   46  TYR46       0.1957
     81  OH       -22.1940   -8.7010   -2.3770 O.3    46  TYR46      -0.2866
     82  N        -19.4790  -10.2050    1.7650 N.3    85  CYS85      -0.1235
     83  CA       -20.4870  -10.0510    2.8060 C.3    85  CYS85       0.1677
     84  C        -19.9470   -9.1740    3.9290 C.2    85  CYS85       0.2270
     85  O        -20.6610   -8.3120    4.4490 O.2    85  CYS85      -0.2867
     86  CB       -20.9240  -11.4190    3.3530 C.3    85  CYS85       0.0956
     87  SG       -22.2250  -11.3250    4.6370 S.3    85  CYS85      -0.0801
     88  N        -19.7480   -5.3560    2.9810 N.3    88  PHE88      -0.1227
     89  CA       -20.9860   -4.5900    2.8580 C.3    88  PHE88       0.1736
     90  C        -21.8950   -4.6440    4.0830 C.2    88  PHE88       0.2595
     91  O        -22.7870   -3.8070    4.2250 O.2    88  PHE88      -0.2718
     92  CB       -21.7720   -5.0730    1.6320 C.3    88  PHE88       0.0547
     93  CG       -22.6750   -4.0170    1.0250 C.ar   88  PHE88      -0.0202
     94  CD1      -22.1580   -3.0520    0.1750 C.ar   88  PHE88      -0.0042
     95  CD2      -24.0380   -4.0130    1.2820 C.ar   88  PHE88      -0.0042
     96  CE1      -22.9850   -2.0860   -0.4080 C.ar   88  PHE88      -0.0003
     97  CE2      -24.8690   -3.0660    0.7000 C.ar   88  PHE88      -0.0003
     98  CZ       -24.3410   -2.0960   -0.1430 C.ar   88  PHE88      -0.0000
     99  N        -21.6840   -5.6230    4.9580 N.am   89  ASN89      -0.1974
    100  CA       -22.5810   -5.8190    6.0970 C.3    89  ASN89       0.1688
    101  C        -21.8690   -5.7290    7.4400 C.2    89  ASN89       0.2292
    102  O        -20.7620   -6.2470    7.6100 O.2    89  ASN89      -0.2864
    103  CB       -23.2920   -7.1780    6.0040 C.3    89  ASN89       0.1181
    104  CG       -24.0930   -7.3450    4.7150 C.2    89  ASN89       0.2629
    105  OD1      -25.2510   -6.9400    4.6380 O.2    89  ASN89      -0.2716
    106  ND2      -23.4820   -7.9660    3.7050 N.am   89  ASN89      -0.0877
    107  N        -27.4730  -10.6760    8.3210 N.3    95  ILE95      -0.1245
    108  CA       -26.6700  -11.1020    7.1780 C.3    95  ILE95       0.1561
    109  C        -25.1940  -11.2350    7.5470 C.2    95  ILE95       0.2260
    110  O        -24.5230  -12.1800    7.1360 O.2    95  ILE95      -0.2867
    111  CB       -26.8160  -10.1230    5.9970 C.3    95  ILE95       0.0252
    112  CG1      -28.2660  -10.0920    5.5170 C.3    95  ILE95       0.0019
    113  CG2      -25.8830  -10.5040    4.8550 C.3    95  ILE95       0.0019
    114  CD1      -28.5100   -9.1260    4.3830 C.3    95  ILE95       0.0001
@<TRIPOS>BOND
     1    46    45    1
     2    46    47    1
     3    61    60    2
     4    45    42    1
     5    62    60   am
     6    47    41    1
     7    60    59    1
     8    57    56    1
     9    57    58    2
    10    51    50    2
    11    56    59    1
    12    56    55    1
    13    42    41    1
    14    42    43    1
    15    40    38    1
    16    41    35   am
    17    44    43    2
    18    43    48   am
    19    50    55   am
    20    50    49    1
    21    39    38    1
    22    38    37    1
    23    37    34    1
    24    35    34    1
    25    35    36    2
    26    48    49    1
    27    34    33    1
    28    72    73    2
    29    72    71    1
    30    49    52    1
    31    63    64    1
    32    76    78   ar
    33    76    75   ar
    34    66    65    2
    35    52    53    1
    36    52    54    1
    37    78    80   ar
    38    74    71    1
    39    74    75    1
    40    71    70    1
    41    65    64    1
    42    75    77   ar
    43    64    67    1
    44    67    69    1
    45    67    68    1
    46    80    81    1
    47    80    79   ar
    48    25    24    2
    49    77    79   ar
    50    24    23    1
    51    23    26    1
    52    23    22    1
    53    96    98   ar
    54    96    94   ar
    55    98    97   ar
    56    18    17    2
    57    26    27    1
    58    94    93   ar
    59    22    17   am
    60    17    16    1
    61    97    95   ar
    62     4     3    2
    63    93    95   ar
    64    93    92    1
    65    28    27   ar
    66    28    30   ar
    67    27    29   ar
    68    92    89    1
    69    82    83    1
    70     3     2    1
    71     3    15   am
    72    16    15    1
    73    16    19    1
    74     2     1    1
    75     2     5    1
    76    15    21    1
    77    30    32   ar
    78    29    31   ar
    79    83    86    1
    80    83    84    1
    81    89    88    1
    82    89    90    1
    83    19    20    1
    84     5     6    1
    85    86    87    1
    86   106   104   am
    87    21    20    1
    88    32    31   ar
    89    11    13   ar
    90    11     8   ar
    91    84    85    2
    92    90    91    2
    93    90    99   am
    94   114   112    1
    95     6     8   ar
    96     6     7   ar
    97    13    14   ar
    98   105   104    2
    99     8    10   ar
   100   104   103    1
   101   113   111    1
   102    99   100    1
   103   112   111    1
   104     7     9   ar
   105    14    12   ar
   106   111   108    1
   107   103   100    1
   108    10     9   ar
   109    10    12   ar
   110   100   101    1
   111   110   109    2
   112   108   109    1
   113   108   107    1
   114   101   102    2
