@<TRIPOS>MOLECULE
tmp/5l9bA00.pdb
 156 146 0 0 0
SMALL
GASTEIGER

@<TRIPOS>ATOM
      1  N          9.2240   10.7180   14.3610 N.3    65  ARG65      -0.1245
      2  CA        10.3180   10.1320   13.6040 C.3    65  ARG65       0.1563
      3  C         11.6340   10.5690   14.2250 C.2    65  ARG65       0.2260
      4  O         11.7920   11.7310   14.6100 O.2    65  ARG65      -0.2867
      5  CB        10.2560   10.5500   12.1310 C.3    65  ARG65       0.0307
      6  CG        10.4510   12.0430   11.8850 C.3    65  ARG65       0.0489
      7  CD        10.1840   12.4000   10.4250 C.3    65  ARG65       0.2205
      8  NE        11.1240   11.7530    9.5160 N.pl3  65  ARG65      -0.0865
      9  CZ        11.2060   12.0080    8.2140 C.cat  65  ARG65       0.5346
     10  NH1       10.4070   12.9050    7.6540 N.pl3  65  ARG65       0.1354
     11  NH2       12.0950   11.3700    7.4650 N.pl3  65  ARG65       0.1354
     12  N         14.8910   10.1410   12.7910 N.3    67  ASP67      -0.1239
     13  CA        15.9720   10.0530   11.8220 C.3    67  ASP67       0.1674
     14  C         16.5490   11.4330   11.5150 C.2    67  ASP67       0.2266
     15  O         15.9700   12.4750   11.8330 O.2    67  ASP67      -0.2867
     16  CB        15.4900    9.3780   10.5330 C.3    67  ASP67       0.1410
     17  CG        14.2250   10.0020    9.9750 C.2    67  ASP67       0.3668
     18  OD1       13.4070   10.5140   10.7670 O.co2  67  ASP67      -0.2456
     19  OD2       14.0440    9.9680    8.7380 O.co2  67  ASP67      -0.2456
     20  N         15.6700   11.8140   -0.4890 N.3   112  MET112     -0.1245
     21  CA        15.8130   11.9740    0.9520 C.3   112  MET112      0.1570
     22  C         16.7770   10.9030    1.4400 C.2   112  MET112      0.2261
     23  O         16.4260    9.7180    1.4970 O.2   112  MET112     -0.2867
     24  CB        14.4730   11.8650    1.6740 C.3   112  MET112      0.0387
     25  CG        14.5810   12.1100    3.1770 C.3   112  MET112      0.0595
     26  SD        13.0740   11.7440    4.1030 S.3   112  MET112     -0.1393
     27  CE        12.9820    9.9610    3.9260 C.3   112  MET112      0.0692
     28  N         18.4710    9.3450    4.5030 N.3   114  ALA114     -0.1245
     29  CA        18.0100    9.2520    5.8780 C.3   114  ALA114      0.1562
     30  C         18.8560    8.2680    6.6660 C.2   114  ALA114      0.2260
     31  O         19.2790    7.2270    6.1480 O.2   114  ALA114     -0.2867
     32  CB        16.5380    8.8260    5.9420 C.3   114  ALA114      0.0290
     33  N         18.8390    6.5590   10.6210 N.3   116  TYR116     -0.1241
     34  CA        18.4200    6.3280   11.9910 C.3   116  TYR116      0.1605
     35  C         19.6750    6.0330   12.8010 C.2   116  TYR116      0.2264
     36  O         20.2960    4.9730   12.5970 O.2   116  TYR116     -0.2867
     37  CB        17.4270    5.1790   12.0660 C.3   116  TYR116      0.0534
     38  CG        16.1100    5.5080   11.3970 C.ar  116  TYR116     -0.0201
     39  CD1       15.9590    5.4000   10.0210 C.ar  116  TYR116     -0.0009
     40  CD2       15.0240    5.9490   12.1410 C.ar  116  TYR116     -0.0009
     41  CE1       14.7570    5.7120    9.4070 C.ar  116  TYR116      0.0417
     42  CE2       13.8210    6.2640   11.5370 C.ar  116  TYR116      0.0417
     43  CZ        13.6940    6.1440   10.1700 C.ar  116  TYR116      0.1957
     44  OH        12.4990    6.4550    9.5640 O.3   116  TYR116     -0.2866
     45  N         10.2310    5.3320   13.4070 N.3   123  TYR123     -0.1241
     46  CA         9.1920    6.1520   12.7930 C.3   123  TYR123      0.1605
     47  C          7.8740    5.4520   13.0830 C.2   123  TYR123      0.2264
     48  O          7.6510    4.3310   12.6150 O.2   123  TYR123     -0.2867
     49  CB         9.4300    6.3080   11.2870 C.3   123  TYR123      0.0534
     50  CG         8.7370    7.4910   10.6290 C.ar  123  TYR123     -0.0201
     51  CD1        7.4900    7.9260   11.0520 C.ar  123  TYR123     -0.0009
     52  CD2        9.3430    8.1690    9.5780 C.ar  123  TYR123     -0.0009
     53  CE1        6.8650    9.0060   10.4470 C.ar  123  TYR123      0.0417
     54  CE2        8.7270    9.2470    8.9670 C.ar  123  TYR123      0.0417
     55  CZ         7.4870    9.6630    9.4050 C.ar  123  TYR123      0.1957
     56  OH         6.8660   10.7360    8.8020 O.3   123  TYR123     -0.2866
     57  N          2.5080    5.2530   10.1450 N.3   126  HIS126     -0.1241
     58  CA         2.1000    6.4470    9.4170 C.3   126  HIS126      0.1621
     59  C          1.7650    6.0900    7.9760 C.2   126  HIS126      0.2264
     60  O          2.0210    4.9790    7.5050 O.2   126  HIS126     -0.2867
     61  CB         3.1930    7.5210    9.4420 C.3   126  HIS126      0.0745
     62  CG         4.4390    7.1350    8.7040 C.ar  126  HIS126      0.0817
     63  ND1        5.3880    6.2870    9.2340 N.ar  126  HIS126     -0.2268
     64  CD2        4.8940    7.4860    7.4770 C.ar  126  HIS126      0.1154
     65  CE1        6.3740    6.1340    8.3670 C.ar  126  HIS126      0.1986
     66  NE2        6.0980    6.8510    7.2930 N.ar  126  HIS126     -0.2212
     67  N          2.4270    7.8130    4.1070 N.3   128  ASP128     -0.1239
     68  CA         3.2630    8.8240    3.4640 C.3   128  ASP128      0.1674
     69  C          2.4250    9.9710    2.9100 C.2   128  ASP128      0.2266
     70  O          2.8050   11.1410    3.0380 O.2   128  ASP128     -0.2867
     71  CB         4.1160    8.1910    2.3640 C.3   128  ASP128      0.1410
     72  CG         5.2990    7.4170    2.9250 C.2   128  ASP128      0.3668
     73  OD1        5.5950    7.5800    4.1260 O.co2 128  ASP128     -0.2456
     74  OD2        5.9340    6.6530    2.1730 O.co2 128  ASP128     -0.2456
     75  N         12.3400    3.2380   -2.0800 N.3   140  ILE140     -0.1245
     76  CA        13.3580    3.2820   -1.0360 C.3   140  ILE140      0.1561
     77  C         14.4600    2.2830   -1.3640 C.2   140  ILE140      0.2260
     78  O         14.1860    1.1040   -1.6140 O.2   140  ILE140     -0.2867
     79  CB        12.7700    2.9780    0.3560 C.3   140  ILE140      0.0252
     80  CG1       11.6320    3.9510    0.6780 C.3   140  ILE140      0.0019
     81  CG2       13.8650    3.0430    1.4200 C.3   140  ILE140      0.0019
     82  CD1       10.9720    3.7060    2.0260 C.3   140  ILE140      0.0001
     83  N         17.9010    0.6310    0.2380 N.3   142  TYR142     -0.1241
     84  CA        18.5590    0.3880    1.5140 C.3   142  TYR142      0.1605
     85  C         20.0370    0.0740    1.2980 C.2   142  TYR142      0.2264
     86  O         20.4560   -0.3330    0.2130 O.2   142  TYR142     -0.2867
     87  CB        17.8730   -0.7610    2.2570 C.3   142  TYR142      0.0534
     88  CG        16.4210   -0.4950    2.6100 C.ar  142  TYR142     -0.0201
     89  CD1       16.0730    0.3110    3.6910 C.ar  142  TYR142     -0.0009
     90  CD2       15.3990   -1.0610    1.8630 C.ar  142  TYR142     -0.0009
     91  CE1       14.7430    0.5450    4.0070 C.ar  142  TYR142      0.0417
     92  CE2       14.0730   -0.8320    2.1710 C.ar  142  TYR142      0.0417
     93  CZ        13.7510   -0.0300    3.2420 C.ar  142  TYR142      0.1957
     94  OH        12.4300    0.1950    3.5490 O.3   142  TYR142     -0.2866
     95  N         11.1100   -2.4090    8.6210 N.3   156  LEU156     -0.1245
     96  CA        10.0040   -1.6460    8.0520 C.3   156  LEU156      0.1561
     97  C          8.8020   -2.5770    7.9840 C.2   156  LEU156      0.2260
     98  O          8.8020   -3.5400    7.2170 O.2   156  LEU156     -0.2867
     99  CB        10.3440   -1.0950    6.6700 C.3   156  LEU156      0.0270
    100  CG         9.1470   -0.4190    5.9910 C.3   156  LEU156      0.0019
    101  CD1        8.7810    0.8720    6.6900 C.3   156  LEU156      0.0001
    102  CD2        9.4130   -0.1700    4.5200 C.3   156  LEU156      0.0001
    103  N          2.6600    2.1890    7.3270 N.3   187  HIS187     -0.1241
    104  CA         3.8980    1.4800    7.6290 C.3   187  HIS187      0.1621
    105  C          4.6160    2.1730    8.7770 C.2   187  HIS187      0.2264
    106  O          4.2800    3.2940    9.1650 O.2   187  HIS187     -0.2867
    107  CB         4.8050    1.3930    6.3980 C.3   187  HIS187      0.0745
    108  CG         5.1620    2.7260    5.8250 C.ar  187  HIS187      0.0817
    109  ND1        4.2780    3.4720    5.0780 N.ar  187  HIS187     -0.2268
    110  CD2        6.3010    3.4540    5.9000 C.ar  187  HIS187      0.1154
    111  CE1        4.8580    4.6000    4.7100 C.ar  187  HIS187      0.1986
    112  NE2        6.0850    4.6160    5.2000 N.ar  187  HIS187     -0.2212
    113  N          8.7160    2.2320   10.9200 N.3   189  VAL189     -0.1245
    114  CA        10.0990    1.8080   11.1020 C.3   189  VAL189      0.1561
    115  C         10.2600    1.4530   12.5730 C.2   189  VAL189      0.2260
    116  O         10.2480    2.3310   13.4430 O.2   189  VAL189     -0.2867
    117  CB        11.0990    2.8860   10.6610 C.3   189  VAL189      0.0252
    118  CG1       12.5330    2.4410   10.9500 C.3   189  VAL189      0.0019
    119  CG2       10.9420    3.1780    9.1780 C.3   189  VAL189      0.0019
    120  N         21.1900    2.9400   10.6240 N.3   196  ARG196     -0.1245
    121  CA        20.3510    2.4240    9.5470 C.3   196  ARG196      0.1563
    122  C         20.1910    3.4940    8.4770 C.2   196  ARG196      0.2260
    123  O         19.5850    4.5400    8.7270 O.2   196  ARG196     -0.2867
    124  CB        18.9920    2.0010   10.1040 C.3   196  ARG196      0.0307
    125  CG        18.0160    1.4030    9.1060 C.3   196  ARG196      0.0489
    126  CD        16.6490    1.2720    9.7630 C.3   196  ARG196      0.2205
    127  NE        15.6420    0.6590    8.9040 N.pl3 196  ARG196     -0.0865
    128  CZ        14.9930    1.2950    7.9360 C.cat 196  ARG196      0.5346
    129  NH1       15.2540    2.5700    7.6800 N.pl3 196  ARG196      0.1354
    130  NH2       14.0860    0.6480    7.2170 N.pl3 196  ARG196      0.1354
    131  N         19.0360    4.7550    4.5140 N.3   198  ALA198     -0.1245
    132  CA        18.1340    4.4880    3.3990 C.3   198  ALA198      0.1562
    133  C         17.9670    5.7520    2.5660 C.2   198  ALA198      0.2260
    134  O         18.0540    6.8660    3.0870 O.2   198  ALA198     -0.2867
    135  CB        16.7630    4.0030    3.8790 C.3   198  ALA198      0.0290
    136  N         15.2470    7.5700   -0.1290 N.3   200  THR200     -0.1218
    137  CA        13.8540    7.5690   -0.5660 C.3   200  THR200      0.1862
    138  C         13.6400    8.5900   -1.6730 C.2   200  THR200      0.2287
    139  O         14.2080    9.6810   -1.6400 O.2   200  THR200     -0.2866
    140  CB        12.9040    7.9100    0.5920 C.3   200  THR200      0.1770
    141  OG1       13.0320    6.9360    1.6320 O.3   200  THR200     -0.2211
    142  CG2       11.4500    7.9620    0.1210 C.3   200  THR200      0.0375
    143  N          9.9390   10.0080   -3.7040 N.3   202  TRP202     -0.1241
    144  CA         8.5030    9.9170   -3.9120 C.3   202  TRP202      0.1605
    145  C          8.1830   10.3980   -5.3180 C.2   202  TRP202      0.2264
    146  O          8.6130   11.4850   -5.7210 O.2   202  TRP202     -0.2867
    147  CB         7.7330   10.7540   -2.8890 C.3   202  TRP202      0.0550
    148  CG         7.6270   10.1370   -1.5320 C.ar  202  TRP202      0.0003
    149  CD1        6.7780    9.1430   -1.1510 C.ar  202  TRP202      0.0946
    150  CD2        8.3810   10.4900   -0.3670 C.ar  202  TRP202      0.0152
    151  NE1        6.9590    8.8480    0.1760 N.ar  202  TRP202     -0.2442
    152  CE2        7.9350    9.6640    0.6820 C.ar  202  TRP202      0.0810
    153  CE3        9.3880   11.4250   -0.1080 C.ar  202  TRP202      0.0012
    154  CZ2        8.4650    9.7360    1.9660 C.ar  202  TRP202      0.0191
    155  CZ3        9.9110   11.4980    1.1710 C.ar  202  TRP202      0.0001
    156  CH2        9.4480   10.6580    2.1910 C.ar  202  TRP202      0.0015
@<TRIPOS>BOND
     1   146   145    2
     2   145   144    1
     3   144   143    1
     4   144   147    1
     5   147   148    1
     6    75    76    1
     7   138   139    2
     8   138   137    1
     9    78    77    2
    10   148   149   ar
    11   148   150   ar
    12    77    76    1
    13   149   151   ar
    14    76    79    1
    15   137   136    1
    16   137   140    1
    17    20    21    1
    18   150   153   ar
    19   150   152   ar
    20   153   155   ar
    21   142   140    1
    22   151   152   ar
    23    86    85    2
    24    83    84    1
    25    79    80    1
    26    79    81    1
    27   140   141    1
    28    80    82    1
    29   152   154   ar
    30    21    22    1
    31    21    24    1
    32   155   156   ar
    33    85    84    1
    34    22    23    2
    35    84    87    1
    36    24    25    1
    37    90    92   ar
    38    90    88   ar
    39   154   156   ar
    40    92    93   ar
    41    74    72   ar
    42    87    88    1
    43    71    72    1
    44    71    68    1
    45   133   134    2
    46   133   132    1
    47    88    89   ar
    48    69    70    2
    49    69    68    1
    50    72    73   ar
    51    25    26    1
    52    93    94    1
    53    93    91   ar
    54   132   135    1
    55   132   131    1
    56    68    67    1
    57    89    91   ar
    58    27    26    1
    59    28    29    1
    60   102   100    1
    61   111   109   ar
    62   111   112   ar
    63   109   108   ar
    64   112   110   ar
    65   108   110   ar
    66   108   107    1
    67    29    32    1
    68    29    30    1
    69   100    99    1
    70   100   101    1
    71    31    30    2
    72   107   104    1
    73    99    96    1
    74   130   128    1
    75    98    97    2
    76    66    64   ar
    77    66    65   ar
    78   103   104    1
    79    11     9    1
    80    64    62   ar
    81    60    59    2
    82   104   105    1
    83    10     9    1
    84   129   128    1
    85   128   127    2
    86    59    58    1
    87    97    96    1
    88    96    95    1
    89     9     8    2
    90    65    63   ar
    91   122   123    2
    92   122   121    1
    93    62    63   ar
    94    62    61    1
    95    19    17   ar
    96   105   106    2
    97    56    55    1
    98   127   126    1
    99    54    55   ar
   100    54    52   ar
   101   125   126    1
   102   125   124    1
   103   119   117    1
   104    55    53   ar
   105    41    39   ar
   106    41    43   ar
   107    58    61    1
   108    58    57    1
   109     8     7    1
   110   121   124    1
   111   121   120    1
   112    44    43    1
   113    52    50   ar
   114    17    16    1
   115    17    18   ar
   116    39    38   ar
   117    43    42   ar
   118     7     6    1
   119    53    51   ar
   120    16    13    1
   121    33    34    1
   122    50    51   ar
   123    50    49    1
   124   117   118    1
   125   117   114    1
   126   113   114    1
   127   114   115    1
   128    49    46    1
   129    38    37    1
   130    38    40   ar
   131    14    13    1
   132    14    15    2
   133    42    40   ar
   134    13    12    1
   135     6     5    1
   136    34    37    1
   137    34    35    1
   138     5     2    1
   139   115   116    2
   140    36    35    2
   141    48    47    2
   142    46    47    1
   143    46    45    1
   144     2     3    1
   145     2     1    1
   146     3     4    2
