@<TRIPOS>MOLECULE
tmp/5l9cA01.pdb
 114 111 0 0 0
SMALL
GASTEIGER

@<TRIPOS>ATOM
      1  N         25.9510   13.1780   16.2010 N.3    94  PHE94      -0.1241
      2  CA        24.8100   12.3020   16.5050 C.3    94  PHE94       0.1605
      3  C         24.4070   12.3630   17.9760 C.2    94  PHE94       0.2264
      4  O         23.9010   11.3820   18.5380 O.2    94  PHE94      -0.2867
      5  CB        25.0930   10.8560   16.0780 C.3    94  PHE94       0.0534
      6  CG        25.4580   10.7210   14.6240 C.ar   94  PHE94      -0.0203
      7  CD1       26.7830   10.8100   14.2190 C.ar   94  PHE94      -0.0042
      8  CD2       24.4800   10.5280   13.6640 C.ar   94  PHE94      -0.0042
      9  CE1       27.1290   10.7080   12.8820 C.ar   94  PHE94      -0.0003
     10  CE2       24.8180   10.4210   12.3180 C.ar   94  PHE94      -0.0003
     11  CZ        26.1440   10.5060   11.9290 C.ar   94  PHE94      -0.0000
     12  N         21.8790   15.0240   13.7210 N.3   132  GLU132     -0.1245
     13  CA        21.1180   13.7790   13.8530 C.3   132  GLU132      0.1567
     14  C         21.2800   13.1500   15.2440 C.2   132  GLU132      0.2260
     15  O         21.9030   12.1020   15.4230 O.2   132  GLU132     -0.2867
     16  CB        21.5110   12.7820   12.7510 C.3   132  GLU132      0.0388
     17  CG        21.3300   13.3330   11.3350 C.3   132  GLU132      0.1160
     18  CD        21.4920   12.2790   10.2510 C.2   132  GLU132      0.3649
     19  OE1       21.9860   11.1700   10.5490 O.co2 132  GLU132     -0.2457
     20  OE2       21.1170   12.5640    9.0930 O.co2 132  GLU132     -0.2457
     21  N         15.6620   10.9200   16.4580 N.3   168  ALA168     -0.1231
     22  CA        15.3690    9.9810   15.3710 C.3   168  ALA168      0.1694
     23  C         16.0210   10.4180   14.0590 C.2   168  ALA168      0.2592
     24  O         15.4080   10.3580   12.9890 O.2   168  ALA168     -0.2718
     25  CB        13.8590    9.7950   15.1940 C.3   168  ALA168      0.0304
     26  N         17.2790   10.8550   14.1470 N.am  169  TYR169     -0.1976
     27  CA        18.0650   11.3360   13.0090 C.3   169  TYR169      0.1639
     28  C         17.4250   12.5390   12.3180 C.2   169  TYR169      0.2290
     29  O         17.6950   12.7930   11.1360 O.2   169  TYR169     -0.2864
     30  CB        18.3150   10.2130   11.9900 C.3   169  TYR169      0.0560
     31  CG        18.9800    8.9800   12.5670 C.ar  169  TYR169     -0.0198
     32  CD1       20.3650    8.8700   12.6170 C.ar  169  TYR169     -0.0009
     33  CD2       18.2200    7.9220   13.0610 C.ar  169  TYR169     -0.0009
     34  CE1       20.9760    7.7380   13.1430 C.ar  169  TYR169      0.0417
     35  CE2       18.8210    6.7940   13.5870 C.ar  169  TYR169      0.0417
     36  CZ        20.1980    6.7060   13.6250 C.ar  169  TYR169      0.1957
     37  OH        20.7980    5.5820   14.1480 O.3   169  TYR169     -0.2866
     38  N         10.1240   12.4220    7.6960 N.3   173  TRP173     -0.1227
     39  CA         9.0250   11.4820    7.6460 C.3   173  TRP173      0.1737
     40  C          8.5150   11.0400    9.0000 C.2   173  TRP173      0.2596
     41  O          7.4100   10.5760    9.0900 O.2   173  TRP173     -0.2718
     42  CB         9.3350   10.2770    6.7710 C.3   173  TRP173      0.0564
     43  CG        10.5090    9.4570    7.1270 C.ar  173  TRP173      0.0003
     44  CD1       11.7890    9.8490    7.2800 C.ar  173  TRP173      0.0946
     45  CD2       10.5100    8.0400    7.2620 C.ar  173  TRP173      0.0152
     46  NE1       12.5860    8.7800    7.5200 N.ar  173  TRP173     -0.2442
     47  CE2       11.8150    7.6490    7.5190 C.ar  173  TRP173      0.0810
     48  CE3        9.5170    7.0630    7.1760 C.ar  173  TRP173      0.0012
     49  CZ2       12.1580    6.3190    7.7220 C.ar  173  TRP173      0.0191
     50  CZ3        9.8460    5.7810    7.3760 C.ar  173  TRP173      0.0001
     51  CH2       11.1560    5.4030    7.6560 C.ar  173  TRP173      0.0015
     52  N          9.3760   11.1050   10.0050 N.am  174  THR174     -0.1953
     53  CA         9.0370   10.6970   11.3620 C.3   174  THR174      0.1897
     54  C          8.9230   11.8800   12.3140 C.2   174  THR174      0.2313
     55  O          8.8270   11.6740   13.5310 O.2   174  THR174     -0.2863
     56  CB        10.0730    9.7020   11.8950 C.3   174  THR174      0.1794
     57  OG1       11.3750   10.3040   11.8760 O.3   174  THR174     -0.2208
     58  CG2       10.0860    8.4310   11.0520 C.3   174  THR174      0.0378
     59  N         16.1480   15.9190    7.6640 N.3   197  HIS197     -0.1241
     60  CA        16.8270   15.1710    6.6210 C.3   197  HIS197      0.1621
     61  C         15.8490   14.1770    6.0150 C.2   197  HIS197      0.2264
     62  O         14.9600   13.6670    6.7010 O.2   197  HIS197     -0.2867
     63  CB        18.0620   14.4420    7.1770 C.3   197  HIS197      0.0745
     64  CG        19.0800   15.3570    7.7900 C.ar  197  HIS197      0.0817
     65  ND1       20.1530   14.8950    8.5230 N.ar  197  HIS197     -0.2268
     66  CD2       19.1990   16.7050    7.7610 C.ar  197  HIS197      0.1154
     67  CE1       20.8830   15.9190    8.9260 C.ar  197  HIS197      0.1986
     68  NE2       20.3270   17.0300    8.4760 N.ar  197  HIS197     -0.2212
     69  N         15.8630   10.8960    3.1180 N.3   199  TYR199     -0.1241
     70  CA        16.3100    9.9930    2.0740 C.3   199  TYR199      0.1605
     71  C         15.1410    9.1250    1.6280 C.2   199  TYR199      0.2264
     72  O         14.1200    9.0150    2.3130 O.2   199  TYR199     -0.2867
     73  CB        17.4850    9.1440    2.5600 C.3   199  TYR199      0.0534
     74  CG        18.7000    9.9860    2.8620 C.ar  199  TYR199     -0.0201
     75  CD1       19.5860   10.3410    1.8540 C.ar  199  TYR199     -0.0009
     76  CD2       18.9450   10.4580    4.1470 C.ar  199  TYR199     -0.0009
     77  CE1       20.6950   11.1180    2.1170 C.ar  199  TYR199      0.0417
     78  CE2       20.0510   11.2400    4.4210 C.ar  199  TYR199      0.0417
     79  CZ        20.9230   11.5660    3.4010 C.ar  199  TYR199      0.1957
     80  OH        22.0250   12.3450    3.6680 O.3   199  TYR199     -0.2866
     81  N         14.4030    2.3490    4.2000 N.3   203  ASP203     -0.1225
     82  CA        14.5310    2.6760    5.6140 C.3   203  ASP203      0.1805
     83  C         14.8800    4.1370    5.8640 C.2   203  ASP203      0.2598
     84  O         15.0290    4.5360    7.0240 O.2   203  ASP203     -0.2718
     85  CB        15.5790    1.7730    6.2740 C.3   203  ASP203      0.1424
     86  CG        16.9540    1.9020    5.6450 C.2   203  ASP203      0.3668
     87  OD1       17.1640    2.7930    4.7880 O.co2 203  ASP203     -0.2456
     88  OD2       17.8370    1.1030    6.0260 O.co2 203  ASP203     -0.2456
     89  N         15.0250    4.9380    4.8130 N.am  204  GLY204     -0.1942
     90  CA        15.4460    6.3120    5.0000 C.3   204  GLY204      0.2014
     91  C         16.8680    6.4790    5.4800 C.2   204  GLY204      0.2639
     92  O         17.2190    7.5480    5.9840 O.2   204  GLY204     -0.2714
     93  N         17.7060    5.4520    5.3400 N.am  205  SER205     -0.1949
     94  CA        19.0900    5.5600    5.7770 C.3   205  SER205      0.1924
     95  C         19.9530    6.3330    4.7950 C.2   205  SER205      0.2314
     96  O         20.9840    6.8820    5.1990 O.2   205  SER205     -0.2863
     97  CB        19.6940    4.1700    5.9940 C.3   205  SER205      0.2116
     98  OG        19.7150    3.4340    4.7830 O.3   205  SER205     -0.2180
     99  N         21.5540    4.9410    2.1610 N.3   207  THR207     -0.1218
    100  CA        22.7060    4.0950    1.8780 C.3   207  THR207      0.1862
    101  C         22.5290    3.2870    0.5980 C.2   207  THR207      0.2287
    102  O         23.3810    2.4480    0.2860 O.2   207  THR207     -0.2866
    103  CB        22.9890    3.1590    3.0570 C.3   207  THR207      0.1770
    104  OG1       21.8550    2.3140    3.2830 O.3   207  THR207     -0.2211
    105  CG2       23.2710    3.9680    4.3200 C.3   207  THR207      0.0375
    106  N         19.7150   17.6270    4.6000 N.3   239  GLU239     -0.1245
    107  CA        20.2930   16.4990    3.8750 C.3   239  GLU239      0.1567
    108  C         19.2150   15.8400    3.0300 C.2   239  GLU239      0.2260
    109  O         18.1150   15.5710    3.5220 O.2   239  GLU239     -0.2867
    110  CB        20.9010   15.4490    4.8210 C.3   239  GLU239      0.0388
    111  CG        22.0980   15.9110    5.6380 C.3   239  GLU239      0.1160
    112  CD        22.7190   14.7810    6.4400 C.2   239  GLU239      0.3649
    113  OE1       22.3780   13.6040    6.1760 O.co2 239  GLU239     -0.2457
    114  OE2       23.5410   15.0710    7.3370 O.co2 239  GLU239     -0.2457
@<TRIPOS>BOND
     1   102   101    2
     2   101   100    1
     3    71    70    1
     4    71    72    2
     5    75    77   ar
     6    75    74   ar
     7   100    99    1
     8   100   103    1
     9    70    73    1
    10    70    69    1
    11    77    79   ar
    12    73    74    1
    13    74    76   ar
    14   108   109    2
    15   108   107    1
    16   103   104    1
    17   103   105    1
    18    79    80    1
    19    79    78   ar
    20   107   106    1
    21   107   110    1
    22    76    78   ar
    23    81    82    1
    24    98    97    1
    25    87    86   ar
    26    95    96    2
    27    95    94    1
    28    89    90    1
    29    89    83   am
    30   110   111    1
    31    90    91    1
    32    93    91   am
    33    93    94    1
    34    91    92    2
    35    82    83    1
    36    82    85    1
    37   111   112    1
    38    86    88   ar
    39    86    85    1
    40    94    97    1
    41    83    84    2
    42    61    60    1
    43    61    62    2
    44   113   112   ar
    45   112   114   ar
    46    60    63    1
    47    60    59    1
    48    42    43    1
    49    42    39    1
    50    43    45   ar
    51    43    44   ar
    52    48    45   ar
    53    48    50   ar
    54    63    64    1
    55    45    47   ar
    56    44    46   ar
    57    50    51   ar
    58    47    46   ar
    59    47    49   ar
    60    39    38    1
    61    39    40    1
    62    51    49   ar
    63    66    64   ar
    64    66    68   ar
    65    64    65   ar
    66    68    67   ar
    67    65    67   ar
    68    40    41    2
    69    40    52   am
    70    20    18   ar
    71    52    53    1
    72    18    19   ar
    73    18    17    1
    74    58    56    1
    75    29    28    2
    76    17    16    1
    77    53    56    1
    78    53    54    1
    79    57    56    1
    80    11    10   ar
    81    11     9   ar
    82    30    31    1
    83    30    27    1
    84    54    55    2
    85    10     8   ar
    86    28    27    1
    87    31    32   ar
    88    31    33   ar
    89    32    34   ar
    90    16    13    1
    91     9     7   ar
    92    24    23    2
    93    27    26    1
    94    33    35   ar
    95    34    36   ar
    96    35    36   ar
    97    36    37    1
    98     8     6   ar
    99    12    13    1
   100    13    14    1
   101    23    26   am
   102    23    22    1
   103     7     6   ar
   104     6     5    1
   105    25    22    1
   106    14    15    2
   107    22    21    1
   108     5     2    1
   109     1     2    1
   110     2     3    1
   111     3     4    2
