@<TRIPOS>MOLECULE
tmp/5l9cA02.pdb
 125 127 0 0 0
SMALL
GASTEIGER

@<TRIPOS>ATOM
      1  N         34.8700   15.1910    8.9080 N.3    14  GLU14      -0.1231
      2  CA        34.2560   14.2650    9.8490 C.3    14  GLU14       0.1699
      3  C         34.5940   12.8070    9.5490 C.2    14  GLU14       0.2592
      4  O         34.1470   11.9180   10.2820 O.2    14  GLU14      -0.2718
      5  CB        32.7300   14.4620    9.8580 C.3    14  GLU14       0.0402
      6  CG        31.9540   13.6600    8.8050 C.3    14  GLU14       0.1161
      7  CD        31.9770   14.2720    7.4070 C.2    14  GLU14       0.3649
      8  OE1       32.8930   15.0620    7.0900 O.co2  14  GLU14      -0.2457
      9  OE2       31.0600   13.9560    6.6170 O.co2  14  GLU14      -0.2457
     10  N         35.3810   12.5420    8.5070 N.am   15  PHE15      -0.1962
     11  CA        35.7030   11.1730    8.1280 C.3    15  PHE15       0.1771
     12  C         36.6050   10.5070    9.1640 C.2    15  PHE15       0.2620
     13  O         37.2730   11.1640    9.9690 O.2    15  PHE15      -0.2715
     14  CB        36.4010   11.1310    6.7700 C.3    15  PHE15       0.0574
     15  CG        35.4830   11.3150    5.6040 C.ar   15  PHE15      -0.0200
     16  CD1       34.1380   11.5810    5.7880 C.ar   15  PHE15      -0.0042
     17  CD2       35.9700   11.2070    4.3110 C.ar   15  PHE15      -0.0042
     18  CE1       33.2990   11.7490    4.7000 C.ar   15  PHE15      -0.0003
     19  CE2       35.1370   11.3690    3.2250 C.ar   15  PHE15      -0.0003
     20  CZ        33.7990   11.6420    3.4180 C.ar   15  PHE15      -0.0000
     21  N         36.6310    9.1790    9.1160 N.am   16  GLY16      -0.1940
     22  CA        37.4950    8.4100    9.9990 C.3    16  GLY16       0.2014
     23  C         37.2120    8.6280   11.4690 C.2    16  GLY16       0.2639
     24  O         38.1510    8.7530   12.2660 O.2    16  GLY16      -0.2714
     25  N         35.9310    8.6680   11.8490 N.am   17  SER17      -0.1949
     26  CA        35.5390    8.9520   13.2270 C.3    17  SER17       0.1924
     27  C         36.1020    7.9580   14.2340 C.2    17  SER17       0.2314
     28  O         36.0380    8.2250   15.4400 O.2    17  SER17      -0.2863
     29  CB        34.0140    8.9770   13.3530 C.3    17  SER17       0.2116
     30  OG        33.6280    8.8920   14.7160 O.3    17  SER17      -0.2180
     31  N         43.1860   10.2220    7.8360 N.3    27  ASP27      -0.1239
     32  CA        41.8530    9.8690    8.3090 C.3    27  ASP27       0.1674
     33  C         40.7940   10.8610    7.8650 C.2    27  ASP27       0.2266
     34  O         39.6320   10.4780    7.6960 O.2    27  ASP27      -0.2867
     35  CB        41.8270    9.7790    9.8370 C.3    27  ASP27       0.1410
     36  CG        42.8660    8.8290   10.3840 C.2    27  ASP27       0.3668
     37  OD1       42.7450    7.6080   10.1390 O.co2  27  ASP27      -0.2456
     38  OD2       43.7960    9.3010   11.0700 O.co2  27  ASP27      -0.2456
     39  N         29.2140   17.0390   13.6790 N.3    92  HIS92      -0.1241
     40  CA        28.6340   15.8470   13.0580 C.3    92  HIS92       0.1621
     41  C         28.7780   14.6530   14.0050 C.2    92  HIS92       0.2264
     42  O         29.4940   13.6840   13.7340 O.2    92  HIS92      -0.2867
     43  CB        29.3180   15.5900   11.7210 C.3    92  HIS92       0.0745
     44  CG        28.4170   15.0330   10.6640 C.ar   92  HIS92       0.0817
     45  ND1       27.4850   15.8000    9.9990 N.ar   92  HIS92      -0.2268
     46  CD2       28.3260   13.7890   10.1380 C.ar   92  HIS92       0.1154
     47  CE1       26.8550   15.0510    9.1120 C.ar   92  HIS92       0.1986
     48  NE2       27.3440   13.8260    9.1790 N.ar   92  HIS92      -0.2212
     49  N         15.8630   10.8960    3.1180 N.3   199  TYR199     -0.1241
     50  CA        16.3100    9.9930    2.0740 C.3   199  TYR199      0.1605
     51  C         15.1410    9.1250    1.6280 C.2   199  TYR199      0.2264
     52  O         14.1200    9.0150    2.3130 O.2   199  TYR199     -0.2867
     53  CB        17.4850    9.1440    2.5600 C.3   199  TYR199      0.0534
     54  CG        18.7000    9.9860    2.8620 C.ar  199  TYR199     -0.0201
     55  CD1       19.5860   10.3410    1.8540 C.ar  199  TYR199     -0.0009
     56  CD2       18.9450   10.4580    4.1470 C.ar  199  TYR199     -0.0009
     57  CE1       20.6950   11.1180    2.1170 C.ar  199  TYR199      0.0417
     58  CE2       20.0510   11.2400    4.4210 C.ar  199  TYR199      0.0417
     59  CZ        20.9230   11.5660    3.4010 C.ar  199  TYR199      0.1957
     60  OH        22.0250   12.3450    3.6680 O.3   199  TYR199     -0.2866
     61  N         19.5570    6.3880    3.5250 N.3   206  GLY206     -0.1210
     62  CA        20.3760    7.0250    2.5170 C.3   206  GLY206      0.1956
     63  C         21.6640    6.2620    2.3080 C.2   206  GLY206      0.2612
     64  O         22.7490    6.8490    2.3000 O.2   206  GLY206     -0.2717
     65  N         21.5540    4.9410    2.1610 N.am  207  THR207     -0.1952
     66  CA        22.7060    4.0950    1.8780 C.3   207  THR207      0.1897
     67  C         22.5290    3.2870    0.5980 C.2   207  THR207      0.2313
     68  O         23.3810    2.4480    0.2860 O.2   207  THR207     -0.2863
     69  CB        22.9890    3.1590    3.0570 C.3   207  THR207      0.1794
     70  OG1       21.8550    2.3140    3.2830 O.3   207  THR207     -0.2208
     71  CG2       23.2710    3.9680    4.3200 C.3   207  THR207      0.0378
     72  N         23.1910   15.9860    0.0590 N.3   272  TRP272     -0.1241
     73  CA        24.2280   15.1360    0.6330 C.3   272  TRP272      0.1605
     74  C         24.7880   14.1820   -0.4300 C.2   272  TRP272      0.2264
     75  O         24.0390   13.3620   -0.9580 O.2   272  TRP272     -0.2867
     76  CB        23.6840   14.3200    1.8160 C.3   272  TRP272      0.0550
     77  CG        24.7550   13.4970    2.4700 C.ar  272  TRP272      0.0003
     78  CD1       25.1710   12.2450    2.1040 C.ar  272  TRP272      0.0946
     79  CD2       25.5700   13.8820    3.5850 C.ar  272  TRP272      0.0152
     80  NE1       26.1900   11.8270    2.9290 N.ar  272  TRP272     -0.2442
     81  CE2       26.4570   12.8150    3.8430 C.ar  272  TRP272      0.0810
     82  CE3       25.6430   15.0270    4.3840 C.ar  272  TRP272      0.0012
     83  CZ2       27.3970   12.8590    4.8700 C.ar  272  TRP272      0.0191
     84  CZ3       26.5820   15.0710    5.4020 C.ar  272  TRP272      0.0001
     85  CH2       27.4400   13.9900    5.6400 C.ar  272  TRP272      0.0015
     86  N         36.7970   13.4990   -1.0190 N.3   277  TRP277     -0.1227
     87  CA        37.2100   12.1210   -0.7790 C.3   277  TRP277      0.1737
     88  C         36.0640   11.1300   -0.9720 C.2   277  TRP277      0.2595
     89  O         36.0760   10.0490   -0.3840 O.2   277  TRP277     -0.2718
     90  CB        37.7910   11.9650    0.6270 C.3   277  TRP277      0.0564
     91  CG        39.2310   12.3770    0.7870 C.ar  277  TRP277      0.0003
     92  CD1       40.0170   13.0200   -0.1250 C.ar  277  TRP277      0.0946
     93  CD2       40.0480   12.1680    1.9430 C.ar  277  TRP277      0.0152
     94  NE1       41.2750   13.2250    0.3960 N.ar  277  TRP277     -0.2442
     95  CE2       41.3170   12.7070    1.6640 C.ar  277  TRP277      0.0810
     96  CE3       39.8260   11.5770    3.1920 C.ar  277  TRP277      0.0012
     97  CZ2       42.3610   12.6720    2.5850 C.ar  277  TRP277      0.0191
     98  CZ3       40.8640   11.5410    4.1030 C.ar  277  TRP277      0.0001
     99  CH2       42.1150   12.0850    3.7950 C.ar  277  TRP277      0.0015
    100  N         35.0670   11.4710   -1.7870 N.am  278  TRP278     -0.1976
    101  CA        33.9220   10.5820   -1.9500 C.3   278  TRP278      0.1640
    102  C         34.1420    9.4960   -2.9990 C.2   278  TRP278      0.2290
    103  O         33.4990    8.4430   -2.9170 O.2   278  TRP278     -0.2864
    104  CB        32.6630   11.3800   -2.3150 C.3   278  TRP278      0.0576
    105  CG        31.9860   12.0630   -1.1610 C.ar  278  TRP278      0.0006
    106  CD1       31.7910   13.4030   -1.0010 C.ar  278  TRP278      0.0946
    107  CD2       31.4070   11.4340   -0.0050 C.ar  278  TRP278      0.0152
    108  NE1       31.1290   13.6510    0.1830 N.ar  278  TRP278     -0.2442
    109  CE2       30.8820   12.4590    0.8100 C.ar  278  TRP278      0.0810
    110  CE3       31.2880   10.1080    0.4200 C.ar  278  TRP278      0.0012
    111  CZ2       30.2420   12.1950    2.0220 C.ar  278  TRP278      0.0191
    112  CZ3       30.6460    9.8500    1.6220 C.ar  278  TRP278      0.0001
    113  CH2       30.1360   10.8880    2.4080 C.ar  278  TRP278      0.0015
    114  N         31.1560    7.4340   -4.6330 N.3   281  TYR281     -0.1241
    115  CA        30.0030    7.4420   -3.7420 C.3   281  TYR281      0.1605
    116  C         28.7300    7.6930   -4.5390 C.2   281  TYR281      0.2264
    117  O         28.7160    8.4880   -5.4830 O.2   281  TYR281     -0.2867
    118  CB        30.2000    8.5210   -2.6740 C.3   281  TYR281      0.0534
    119  CG        29.0990    8.6870   -1.6450 C.ar  281  TYR281     -0.0201
    120  CD1       28.6560    7.6120   -0.8800 C.ar  281  TYR281     -0.0009
    121  CD2       28.5470    9.9400   -1.3950 C.ar  281  TYR281     -0.0009
    122  CE1       27.6660    7.7780    0.0820 C.ar  281  TYR281      0.0417
    123  CE2       27.5630   10.1190   -0.4220 C.ar  281  TYR281      0.0417
    124  CZ        27.1250    9.0370    0.3070 C.ar  281  TYR281      0.1957
    125  OH        26.1420    9.2170    1.2600 O.3   281  TYR281     -0.2866
@<TRIPOS>BOND
     1   117   116    2
     2   114   115    1
     3   116   115    1
     4   115   118    1
     5   102   103    2
     6   102   101    1
     7   118   119    1
     8   104   101    1
     9   104   105    1
    10   101   100    1
    11   100    88   am
    12   119   121   ar
    13   119   120   ar
    14   121   123   ar
    15   105   106   ar
    16   105   107   ar
    17    86    87    1
    18   106   108   ar
    19    88    87    1
    20    88    89    2
    21    75    74    2
    22   120   122   ar
    23    87    90    1
    24    74    73    1
    25   123   124   ar
    26    92    94   ar
    27    92    91   ar
    28   107   110   ar
    29   107   109   ar
    30    72    73    1
    31   122   124   ar
    32   108   109   ar
    33    68    67    2
    34   124   125    1
    35    94    95   ar
    36   110   112   ar
    37    67    66    1
    38    90    91    1
    39    73    76    1
    40    91    93   ar
    41   109   111   ar
    42   112   113   ar
    43    51    50    1
    44    51    52    2
    45    95    93   ar
    46    95    97   ar
    47    76    77    1
    48    55    57   ar
    49    55    54   ar
    50    66    65    1
    51    66    69    1
    52    93    96   ar
    53   111   113   ar
    54    50    53    1
    55    50    49    1
    56    78    77   ar
    57    78    80   ar
    58    57    59   ar
    59    65    63   am
    60    64    63    2
    61    63    62    1
    62    77    79   ar
    63    62    61    1
    64    53    54    1
    65    97    99   ar
    66    54    56   ar
    67    80    81   ar
    68    69    70    1
    69    69    71    1
    70    96    98   ar
    71    19    20   ar
    72    19    17   ar
    73    59    60    1
    74    59    58   ar
    75    20    18   ar
    76    79    81   ar
    77    79    82   ar
    78    99    98   ar
    79    81    83   ar
    80    56    58   ar
    81    17    15   ar
    82    82    84   ar
    83    18    16   ar
    84    83    85   ar
    85    84    85   ar
    86    15    16   ar
    87    15    14    1
    88     9     7   ar
    89    14    11    1
    90     8     7   ar
    91     7     6    1
    92    34    33    2
    93    31    32    1
    94    33    32    1
    95    11    10    1
    96    11    12    1
    97    32    35    1
    98    10     3   am
    99     6     5    1
   100     1     2    1
   101    47    48   ar
   102    47    45   ar
   103    21    12   am
   104    21    22    1
   105    12    13    2
   106    48    46   ar
   107     3     2    1
   108     3     4    2
   109    35    36    1
   110     2     5    1
   111    45    44   ar
   112    22    23    1
   113    46    44   ar
   114    37    36   ar
   115    36    38   ar
   116    44    43    1
   117    23    25   am
   118    23    24    2
   119    43    40    1
   120    25    26    1
   121    40    39    1
   122    40    41    1
   123    26    29    1
   124    26    27    1
   125    29    30    1
   126    42    41    2
   127    27    28    2
