@<TRIPOS>MOLECULE
tmp/5l9hB00.pdb
 171 165 0 0 0
SMALL
GASTEIGER

@<TRIPOS>ATOM
      1  N        139.1770   24.6880   24.2610 N.3    84  TYR84      -0.1227
      2  CA       139.5000   25.3920   25.5170 C.3    84  TYR84       0.1736
      3  C        138.9900   26.8370   25.5370 C.2    84  TYR84       0.2595
      4  O        138.1830   27.1920   26.3910 O.2    84  TYR84      -0.2718
      5  CB       141.0280   25.3370   25.7930 C.3    84  TYR84       0.0548
      6  CG       141.4180   25.9850   27.1010 C.ar   84  TYR84      -0.0200
      7  CD1      141.2030   25.3430   28.3290 C.ar   84  TYR84      -0.0009
      8  CD2      141.9510   27.2590   27.1330 C.ar   84  TYR84      -0.0009
      9  CE1      141.5660   25.9390   29.5220 C.ar   84  TYR84       0.0417
     10  CE2      142.2920   27.8670   28.3270 C.ar   84  TYR84       0.0417
     11  CZ       142.1030   27.2060   29.5190 C.ar   84  TYR84       0.1957
     12  OH       142.4400   27.8290   30.7000 O.3    84  TYR84      -0.2866
     13  N        139.4630   27.6620   24.6120 N.am   85  HIS85      -0.1975
     14  CA       139.1200   29.0900   24.5910 C.3    85  HIS85       0.1656
     15  C        137.7230   29.4160   24.0540 C.2    85  HIS85       0.2291
     16  O        137.5910   30.1720   23.1130 O.2    85  HIS85      -0.2864
     17  CB       140.1950   29.8860   23.8340 C.3    85  HIS85       0.0771
     18  CG       141.5150   29.9210   24.5310 C.ar   85  HIS85       0.0820
     19  ND1      142.5950   29.1960   24.1040 N.ar   85  HIS85      -0.2267
     20  CD2      141.9180   30.5520   25.6560 C.ar   85  HIS85       0.1154
     21  CE1      143.6290   29.4100   24.9000 C.ar   85  HIS85       0.1986
     22  NE2      143.2410   30.2200   25.8600 N.ar   85  HIS85      -0.2212
     23  N        150.5120   36.4130   27.5120 N.3   201  MET201     -0.1245
     24  CA       151.5370   35.6950   28.2560 C.3   201  MET201      0.1570
     25  C        152.9780   36.1110   27.9900 C.2   201  MET201      0.2261
     26  O        153.8340   35.8630   28.8310 O.2   201  MET201     -0.2867
     27  CB       151.3870   34.1760   28.1000 C.3   201  MET201      0.0387
     28  CG       150.2980   33.5690   29.0090 C.3   201  MET201      0.0595
     29  SD       150.3010   33.9570   30.7860 S.3   201  MET201     -0.1393
     30  CE       151.8690   33.2480   31.2850 C.3   201  MET201      0.0692
     31  N        143.0480   33.5930   34.7460 N.3   238  ASP238     -0.1225
     32  CA       143.3030   32.9740   33.4630 C.3   238  ASP238      0.1805
     33  C        144.1720   31.7640   33.5820 C.2   238  ASP238      0.2597
     34  O        144.0090   30.8010   32.8120 O.2   238  ASP238     -0.2718
     35  CB       143.9560   33.9910   32.5060 C.3   238  ASP238      0.1424
     36  CG       143.5700   33.7810   31.0470 C.2   238  ASP238      0.3668
     37  OD1      142.4750   33.2180   30.7610 O.co2 238  ASP238     -0.2456
     38  OD2      144.3310   34.2910   30.2040 O.co2 238  ASP238     -0.2456
     39  N        145.1210   31.8100   34.5030 N.am  239  ILE239     -0.1980
     40  CA       145.9590   30.6420   34.7680 C.3   239  ILE239      0.1595
     41  C        145.5260   29.8900   36.0250 C.2   239  ILE239      0.2287
     42  O        146.3640   29.2430   36.6720 O.2   239  ILE239     -0.2864
     43  CB       147.4400   31.0150   34.8020 C.3   239  ILE239      0.0276
     44  CG1      147.7890   31.9810   35.9310 C.3   239  ILE239      0.0022
     45  CG2      147.8440   31.6420   33.4700 C.3   239  ILE239      0.0022
     46  CD1      149.2720   32.2790   35.9750 C.3   239  ILE239      0.0001
     47  N        143.3580   27.2770   36.3550 N.3   241  ASN241     -0.1225
     48  CA       143.0050   25.8510   36.2600 C.3   241  ASN241      0.1785
     49  C        143.7540   24.9330   37.2440 C.2   241  ASN241      0.2597
     50  O        143.1750   23.9660   37.7330 O.2   241  ASN241     -0.2718
     51  CB       143.2540   25.3010   34.8580 C.3   241  ASN241      0.1169
     52  CG       142.3870   25.9470   33.7740 C.2   241  ASN241      0.2627
     53  OD1      142.7390   25.8640   32.6250 O.2   241  ASN241     -0.2716
     54  ND2      141.2620   26.5630   34.1370 N.am  241  ASN241     -0.0877
     55  N        145.0290   25.2280   37.5170 N.am  242  VAL242     -0.1980
     56  CA       145.8120   24.3580   38.3610 C.3   242  VAL242      0.1595
     57  C        145.4890   24.5680   39.8340 C.2   242  VAL242      0.2287
     58  O        145.9780   23.8210   40.6640 O.2   242  VAL242     -0.2864
     59  CB       147.3660   24.4570   38.1090 C.3   242  VAL242      0.0276
     60  CG1      147.7050   23.9670   36.7180 C.3   242  VAL242      0.0022
     61  CG2      147.9160   25.8490   38.3430 C.3   242  VAL242      0.0022
     62  N        140.1670   20.4580   32.5020 N.3   252  TRP252     -0.1227
     63  CA       140.7230   21.6490   31.8670 C.3   252  TRP252      0.1737
     64  C        142.0430   21.3270   31.0890 C.2   252  TRP252      0.2595
     65  O        142.2020   21.7770   29.9550 O.2   252  TRP252     -0.2718
     66  CB       140.9860   22.8020   32.8740 C.3   252  TRP252      0.0564
     67  CG       139.8120   23.4820   33.3650 C.ar  252  TRP252      0.0003
     68  CD1      139.4530   23.6320   34.6630 C.ar  252  TRP252      0.0946
     69  CD2      138.8050   24.1550   32.5900 C.ar  252  TRP252      0.0152
     70  NE1      138.2500   24.3200   34.7530 N.ar  252  TRP252     -0.2442
     71  CE2      137.8390   24.6590   33.4980 C.ar  252  TRP252      0.0810
     72  CE3      138.6090   24.3620   31.2230 C.ar  252  TRP252      0.0012
     73  CZ2      136.7400   25.3690   33.0890 C.ar  252  TRP252      0.0191
     74  CZ3      137.4860   25.0570   30.8170 C.ar  252  TRP252      0.0001
     75  CH2      136.5770   25.5570   31.7360 C.ar  252  TRP252      0.0015
     76  N        142.9720   20.5900   31.6980 N.am  253  ALA253     -0.1980
     77  CA       144.2290   20.2960   31.0000 C.3   253  ALA253      0.1597
     78  C        144.0130   19.4390   29.7290 C.2   253  ALA253      0.2287
     79  O        144.7780   19.5540   28.7660 O.2   253  ALA253     -0.2864
     80  CB       145.2410   19.6510   31.9300 C.3   253  ALA253      0.0319
     81  N        142.7670   21.9900   26.9560 N.3   256  VAL256     -0.1231
     82  CA       143.8860   22.8200   26.4540 C.3   256  VAL256      0.1692
     83  C        144.8740   22.0290   25.5950 C.2   256  VAL256      0.2592
     84  O        145.3820   22.5400   24.6260 O.2   256  VAL256     -0.2718
     85  CB       144.5830   23.6630   27.5270 C.3   256  VAL256      0.0266
     86  CG1      145.4970   22.8360   28.3770 C.3   256  VAL256      0.0020
     87  CG2      145.3830   24.7850   26.8800 C.3   256  VAL256      0.0020
     88  N        145.0990   20.7750   25.9320 N.am  257  THR257     -0.1953
     89  CA       146.0000   19.9310   25.1810 C.3   257  THR257      0.1897
     90  C        145.4710   19.6570   23.7740 C.2   257  THR257      0.2313
     91  O        146.2050   19.7670   22.8150 O.2   257  THR257     -0.2863
     92  CB       146.2380   18.6190   25.9280 C.3   257  THR257      0.1794
     93  OG1      146.7470   18.9520   27.2190 O.3   257  THR257     -0.2208
     94  CG2      147.2650   17.7330   25.2000 C.3   257  THR257      0.0378
     95  N        146.0350   22.8650   21.7540 N.3   260  PHE260     -0.1241
     96  CA       147.4360   22.9410   21.3160 C.3   260  PHE260      0.1605
     97  C        147.7090   21.9670   20.1800 C.2   260  PHE260      0.2264
     98  O        148.4600   22.3010   19.2700 O.2   260  PHE260     -0.2867
     99  CB       148.4160   22.6060   22.4400 C.3   260  PHE260      0.0534
    100  CG       148.5160   23.6280   23.5400 C.ar  260  PHE260     -0.0203
    101  CD1      147.7760   24.8390   23.5340 C.ar  260  PHE260     -0.0042
    102  CD2      149.3800   23.3840   24.5950 C.ar  260  PHE260     -0.0042
    103  CE1      147.9050   25.7660   24.5610 C.ar  260  PHE260     -0.0003
    104  CE2      149.5140   24.3010   25.6220 C.ar  260  PHE260     -0.0003
    105  CZ       148.7800   25.4940   25.6030 C.ar  260  PHE260     -0.0000
    106  N        156.3170   23.0000   17.8870 N.3   275  LEU275     -0.1245
    107  CA       156.9650   22.7250   19.1670 C.3   275  LEU275      0.1561
    108  C        156.5000   21.3550   19.7070 C.2   275  LEU275      0.2260
    109  O        155.3900   20.9150   19.4180 O.2   275  LEU275     -0.2867
    110  CB       156.6390   23.8500   20.1720 C.3   275  LEU275      0.0270
    111  CG       157.3630   25.2070   19.8970 C.3   275  LEU275      0.0019
    112  CD1      156.6180   26.2970   20.6410 C.3   275  LEU275      0.0001
    113  CD2      158.8850   25.2880   20.1750 C.3   275  LEU275      0.0001
    114  N        155.2160   20.1210   22.6270 N.3   277  MET277     -0.1230
    115  CA       153.8940   20.0900   23.3230 C.3   277  MET277      0.1702
    116  C        152.6970   20.3800   22.4320 C.2   277  MET277      0.2592
    117  O        151.5690   20.1040   22.8570 O.2   277  MET277     -0.2718
    118  CB       153.8100   21.0240   24.5370 C.3   277  MET277      0.0401
    119  CG       154.2160   22.4460   24.3240 C.3   277  MET277      0.0596
    120  SD       155.9680   22.7680   23.9550 S.3   277  MET277     -0.1393
    121  CE       156.8390   21.9470   25.2990 C.3   277  MET277      0.0692
    122  N        152.9030   20.9400   21.2300 N.am  278  PHE278     -0.1976
    123  CA       151.8070   21.1420   20.2490 C.3   278  PHE278      0.1639
    124  C        151.6790   19.9460   19.2760 C.2   278  PHE278      0.2290
    125  O        150.7100   19.8830   18.5150 O.2   278  PHE278     -0.2864
    126  CB       151.9780   22.4680   19.4670 C.3   278  PHE278      0.0560
    127  CG       151.8000   23.7230   20.3020 C.ar  278  PHE278     -0.0200
    128  CD1      152.8430   24.2010   21.0820 C.ar  278  PHE278     -0.0042
    129  CD2      150.5940   24.4470   20.2920 C.ar  278  PHE278     -0.0042
    130  CE1      152.6840   25.3500   21.8510 C.ar  278  PHE278     -0.0003
    131  CE2      150.4280   25.6040   21.0570 C.ar  278  PHE278     -0.0003
    132  CZ       151.4780   26.0530   21.8430 C.ar  278  PHE278     -0.0000
    133  N        150.1970   14.3210   29.5780 N.3   286  LEU286     -0.1245
    134  CA       149.4660   15.3410   30.3610 C.3   286  LEU286      0.1561
    135  C        150.1570   15.8070   31.6640 C.2   286  LEU286      0.2260
    136  O        150.3470   17.0040   31.9050 O.2   286  LEU286     -0.2867
    137  CB       148.1060   14.7590   30.7220 C.3   286  LEU286      0.0270
    138  CG       146.9640   15.7130   30.9260 C.3   286  LEU286      0.0019
    139  CD1      146.5650   16.3170   29.6070 C.3   286  LEU286      0.0001
    140  CD2      145.7950   14.9450   31.5300 C.3   286  LEU286      0.0001
    141  N        153.3500   18.0720   31.3080 N.3   289  GLY289     -0.1210
    142  CA       152.8620   19.4080   30.9830 C.3   289  GLY289      0.1956
    143  C        152.4740   20.1640   32.2350 C.2   289  GLY289      0.2611
    144  O        153.1160   21.1690   32.5850 O.2   289  GLY289     -0.2717
    145  N        151.4780   19.6260   32.9440 N.am  290  GLN290     -0.1979
    146  CA       150.9770   20.2470   34.1480 C.3   290  GLN290      0.1601
    147  C        152.0730   20.5290   35.1990 C.2   290  GLN290      0.2287
    148  O        152.0930   21.6180   35.8050 O.2   290  GLN290     -0.2864
    149  CB       149.8700   19.4200   34.7590 C.3   290  GLN290      0.0394
    150  CG       148.6140   19.3480   33.9130 C.3   290  GLN290      0.0908
    151  CD       147.9410   20.6970   33.7210 C.2   290  GLN290      0.2608
    152  OE1      147.3450   21.2700   34.6430 O.2   290  GLN290     -0.2717
    153  NE2      148.0380   21.2100   32.5240 N.am  290  GLN290     -0.0878
    154  N        154.2630   23.3950   33.9630 N.3   293  PHE293     -0.1241
    155  CA       153.5160   24.6420   34.1000 C.3   293  PHE293      0.1605
    156  C        153.5000   25.0820   35.5560 C.2   293  PHE293      0.2264
    157  O        153.7430   26.2540   35.8520 O.2   293  PHE293     -0.2867
    158  CB       152.0780   24.5080   33.5590 C.3   293  PHE293      0.0534
    159  CG       151.3760   25.7980   33.4480 C.ar  293  PHE293     -0.0203
    160  CD1      151.8000   26.7380   32.5020 C.ar  293  PHE293     -0.0042
    161  CD2      150.3210   26.1080   34.3030 C.ar  293  PHE293     -0.0042
    162  CE1      151.1820   27.9710   32.4220 C.ar  293  PHE293     -0.0003
    163  CE2      149.7020   27.3380   34.2230 C.ar  293  PHE293     -0.0003
    164  CZ       150.1310   28.2650   33.2800 C.ar  293  PHE293     -0.0000
    165  N        155.7180   28.4430   35.9540 N.3   297  VAL297     -0.1245
    166  CA       154.7480   29.5460   35.8310 C.3   297  VAL297      0.1561
    167  C        153.8600   29.6840   37.0710 C.2   297  VAL297      0.2260
    168  O        153.9820   30.6830   37.7900 O.2   297  VAL297     -0.2867
    169  CB       153.8710   29.3780   34.5630 C.3   297  VAL297      0.0252
    170  CG1      152.8940   30.5290   34.4080 C.3   297  VAL297      0.0019
    171  CG2      154.7640   29.2360   33.3320 C.3   297  VAL297      0.0019
@<TRIPOS>BOND
     1   106   107    1
     2   125   124    2
     3   107   108    1
     4   107   110    1
     5    98    97    2
     6   124   123    1
     7   109   108    2
     8   126   123    1
     9   126   127    1
    10   111   110    1
    11   111   113    1
    12   111   112    1
    13    97    96    1
    14   123   122    1
    15   129   127   ar
    16   129   131   ar
    17   127   128   ar
    18   131   132   ar
    19   128   130   ar
    20   122   116   am
    21    96    95    1
    22    96    99    1
    23   132   130   ar
    24   116   117    2
    25   116   115    1
    26    99   100    1
    27   114   115    1
    28    91    90    2
    29    16    15    2
    30   115   118    1
    31   101   100   ar
    32   101   103   ar
    33   100   102   ar
    34    90    89    1
    35    17    18    1
    36    17    14    1
    37   120   119    1
    38   120   121    1
    39    15    14    1
    40    19    18   ar
    41    19    21   ar
    42     1     2    1
    43   119   118    1
    44    18    20   ar
    45   103   105   ar
    46    14    13    1
    47   102   104   ar
    48    13     3   am
    49    84    83    2
    50    21    22   ar
    51    89    92    1
    52    89    88    1
    53    94    92    1
    54     2     3    1
    55     2     5    1
    56     3     4    2
    57    83    88   am
    58    83    82    1
    59   105   104   ar
    60    20    22   ar
    61     5     6    1
    62    92    93    1
    63    82    81    1
    64    82    85    1
    65    87    85    1
    66     6     8   ar
    67     6     7   ar
    68     8    10   ar
    69    23    24    1
    70    85    86    1
    71    25    24    1
    72    25    26    2
    73    27    24    1
    74    27    28    1
    75    10    11   ar
    76     7     9   ar
    77    79    78    2
    78    28    29    1
    79    11     9   ar
    80    11    12    1
    81   133   134    1
    82   139   138    1
    83    78    77    1
    84    65    64    2
    85    38    36   ar
    86   134   137    1
    87   134   135    1
    88   137   138    1
    89    37    36   ar
    90    29    30    1
    91    74    72   ar
    92    74    75   ar
    93   138   140    1
    94   142   141    1
    95   142   143    1
    96    77    76    1
    97    77    80    1
    98    36    35    1
    99    64    76   am
   100    64    63    1
   101    72    69   ar
   102   135   136    2
   103    75    73   ar
   104    63    62    1
   105    63    66    1
   106   143   144    2
   107   143   145   am
   108   162   160   ar
   109   162   164   ar
   110   160   159   ar
   111    35    32    1
   112   153   151   am
   113    69    67   ar
   114    69    71   ar
   115    53    52    2
   116    34    33    2
   117    66    67    1
   118   145   146    1
   119    73    71   ar
   120   164   163   ar
   121   171   169    1
   122    67    68   ar
   123   159   158    1
   124   159   161   ar
   125    32    33    1
   126    32    31    1
   127    45    43    1
   128    71    70   ar
   129   158   155    1
   130    33    39   am
   131   151   150    1
   132   151   152    2
   133    52    54   am
   134    52    51    1
   135   150   149    1
   136   154   155    1
   137   155   156    1
   138   146   149    1
   139   146   147    1
   140   163   161   ar
   141   170   169    1
   142    39    40    1
   143   169   166    1
   144    68    70   ar
   145    40    43    1
   146    40    41    1
   147    43    44    1
   148    51    48    1
   149   147   148    2
   150   156   157    2
   151   166   165    1
   152   166   167    1
   153    44    46    1
   154    41    42    2
   155    48    47    1
   156    48    49    1
   157    60    59    1
   158   167   168    2
   159    49    55   am
   160    49    50    2
   161    55    56    1
   162    59    61    1
   163    59    56    1
   164    56    57    1
   165    57    58    2
