@<TRIPOS>MOLECULE
tmp/5l9kB00.pdb
 161 156 0 0 0
SMALL
GASTEIGER

@<TRIPOS>ATOM
      1  N         20.6790    6.3370  -24.3310 N.3    19  GLY19      -0.1210
      2  CA        19.9800    5.5710  -23.3330 C.3    19  GLY19       0.1956
      3  C         18.5080    5.4740  -23.5220 C.2    19  GLY19       0.2612
      4  O         17.9620    5.9370  -24.5210 O.2    19  GLY19      -0.2717
      5  N         17.8760    4.8480  -22.5400 N.am   20  ASP20      -0.1959
      6  CA        16.4300    4.7690  -22.4610 C.3    20  ASP20       0.1840
      7  C         15.9830    5.7830  -21.4040 C.2    20  ASP20       0.2621
      8  O         16.2970    5.6420  -20.2070 O.2    20  ASP20      -0.2715
      9  CB        16.0270    3.3340  -22.1110 C.3    20  ASP20       0.1450
     10  CG        14.5420    3.1510  -21.9080 C.2    20  ASP20       0.3671
     11  OD1       13.7840    4.1390  -21.8450 O.co2  20  ASP20      -0.2456
     12  OD2       14.1200    1.9730  -21.8040 O.co2  20  ASP20      -0.2456
     13  N         15.1850    6.7670  -21.8190 N.am   21  ILE21      -0.1977
     14  CA        14.8170    7.8620  -20.9120 C.3    21  ILE21       0.1596
     15  C         14.0050    7.3990  -19.6800 C.2    21  ILE21       0.2287
     16  O         14.0440    8.0410  -18.6280 O.2    21  ILE21      -0.2864
     17  CB        14.0720    9.0150  -21.6410 C.3    21  ILE21       0.0276
     18  CG1       14.2630   10.3250  -20.8560 C.3    21  ILE21       0.0022
     19  CG2       12.6150    8.6660  -21.8740 C.3    21  ILE21       0.0022
     20  CD1       13.7730   11.5550  -21.5920 C.3    21  ILE21       0.0001
     21  N          7.8170   13.3920  -25.0370 N.3    32  ALA32      -0.1231
     22  CA         7.4020   13.8870  -26.3620 C.3    32  ALA32       0.1694
     23  C          6.0000   13.3680  -26.6420 C.2    32  ALA32       0.2592
     24  O          5.8490   12.3320  -27.2680 O.2    32  ALA32      -0.2718
     25  CB         8.3620   13.4480  -27.4340 C.3    32  ALA32       0.0304
     26  N          5.0070   14.0840  -26.1210 N.am   33  ALA33      -0.1966
     27  CA         3.5950   13.6580  -26.1040 C.3    33  ALA33       0.1728
     28  C          2.8330   14.1900  -27.3240 C.2    33  ALA33       0.2616
     29  O          3.4070   14.8030  -28.2180 O.2    33  ALA33      -0.2715
     30  CB         2.9300   14.1220  -24.8110 C.3    33  ALA33       0.0334
     31  N          1.5480   13.8780  -27.3910 N.am   34  ASN34      -0.1972
     32  CA         0.6330   14.5560  -28.3210 C.3    34  ASN34       0.1688
     33  C         -0.3780   15.3680  -27.4810 C.2    34  ASN34       0.2292
     34  O         -0.5020   15.1710  -26.2670 O.2    34  ASN34      -0.2864
     35  CB        -0.0590   13.5340  -29.2080 C.3    34  ASN34       0.1181
     36  CG        -0.9510   12.5970  -28.4120 C.2    34  ASN34       0.2629
     37  OD1       -2.0430   12.9840  -28.0020 O.2    34  ASN34      -0.2716
     38  ND2       -0.4800   11.3910  -28.1510 N.am   34  ASN34      -0.0877
     39  N         -1.1510    9.1520  -24.4600 N.3    39  GLY39      -0.1210
     40  CA        -0.1190    8.1900  -24.7600 C.3    39  GLY39       0.1956
     41  C         -0.0300    8.0200  -26.2530 C.2    39  GLY39       0.2612
     42  O         -0.7130    8.7350  -27.0190 O.2    39  GLY39      -0.2717
     43  N          0.8050    7.0760  -26.6420 N.am   40  GLY40      -0.1942
     44  CA         1.1680    6.8200  -28.0250 C.3    40  GLY40       0.2014
     45  C          2.1850    5.7100  -28.1120 C.2    40  GLY40       0.2639
     46  O          2.1910    4.7990  -27.2820 O.2    40  GLY40      -0.2714
     47  N          3.0250    5.7620  -29.1390 N.am   41  GLY41      -0.1939
     48  CA         4.1450    4.8460  -29.2720 C.3    41  GLY41       0.2014
     49  C          5.3870    5.6520  -28.9710 C.2    41  GLY41       0.2639
     50  O          5.2910    6.7050  -28.2880 O.2    41  GLY41      -0.2714
     51  N          6.5350    5.1540  -29.4370 N.am   42  GLY42      -0.1939
     52  CA         7.8240    5.8180  -29.2570 C.3    42  GLY42       0.2014
     53  C          8.0850    6.1440  -27.8000 C.2    42  GLY42       0.2639
     54  O          7.7610    5.3520  -26.9160 O.2    42  GLY42      -0.2714
     55  N          8.6530    7.3130  -27.5310 N.am   43  VAL43      -0.1963
     56  CA         9.0070    7.6320  -26.1510 C.3    43  VAL43       0.1727
     57  C          7.7870    7.7970  -25.2330 C.2    43  VAL43       0.2616
     58  O          7.8620    7.4470  -24.0620 O.2    43  VAL43      -0.2715
     59  CB        10.0120    8.7980  -26.0640 C.3    43  VAL43       0.0290
     60  CG1        9.3670   10.1220  -26.3660 C.3    43  VAL43       0.0023
     61  CG2       10.7050    8.7870  -24.6890 C.3    43  VAL43       0.0023
     62  N          6.6860    8.3090  -25.7710 N.am   44  ASP44      -0.1971
     63  CA         5.4160    8.4990  -25.0280 C.3    44  ASP44       0.1709
     64  C          4.8980    7.1210  -24.5810 C.2    44  ASP44       0.2293
     65  O          4.5860    6.8850  -23.4020 O.2    44  ASP44      -0.2864
     66  CB         4.4660    9.2550  -25.9670 C.3    44  ASP44       0.1436
     67  CG         3.1620    9.7230  -25.3270 C.2    44  ASP44       0.3671
     68  OD1        2.9530    9.6790  -24.1070 O.co2  44  ASP44      -0.2456
     69  OD2        2.3220   10.1820  -26.1320 O.co2  44  ASP44      -0.2456
     70  N          6.7860    4.3610  -24.3410 N.3    46  ALA46      -0.1245
     71  CA         7.7520    3.8370  -23.3690 C.3    46  ALA46       0.1562
     72  C          7.5050    4.3950  -21.9630 C.2    46  ALA46       0.2260
     73  O          7.5420    3.6580  -20.9870 O.2    46  ALA46      -0.2867
     74  CB         9.1850    4.1110  -23.8340 C.3    46  ALA46       0.0290
     75  N          5.8180   18.5120  -29.2660 N.3    95  GLY95      -0.1225
     76  CA         6.6530   19.0870  -30.2820 C.3    95  GLY95       0.1811
     77  C          5.8600   19.4440  -31.5460 C.2    95  GLY95       0.2280
     78  O          4.7570   18.9510  -31.7460 O.2    95  GLY95      -0.2866
     79  N         14.2230   13.7880  -24.2700 N.3   131  PRO131     -0.2102
     80  CA        14.4590   12.9990  -25.4540 C.3   131  PRO131      0.1504
     81  C         14.6590   13.9140  -26.6570 C.2   131  PRO131      0.2576
     82  O         14.6610   15.1450  -26.5120 O.2   131  PRO131     -0.2718
     83  CB        13.1370   12.2120  -25.5670 C.3   131  PRO131      0.0282
     84  CG        12.1320   13.2450  -25.1730 C.3   131  PRO131      0.0208
     85  CD        12.7910   14.1030  -24.1200 C.3   131  PRO131      0.0893
     86  N         14.7950   13.3330  -27.8490 N.am  132  SER132     -0.1938
     87  CA        14.9080   14.0850  -29.0950 C.3   132  SER132      0.2055
     88  C         13.4860   14.4150  -29.5990 C.2   132  SER132      0.2643
     89  O         12.9540   13.7430  -30.4760 O.2   132  SER132     -0.2714
     90  CB        15.7130   13.2760  -30.1220 C.3   132  SER132      0.2130
     91  OG        15.8990   13.9770  -31.3390 O.3   132  SER132     -0.2179
     92  N         12.9130   15.4770  -29.0540 N.am  133  ILE133     -0.1963
     93  CA        11.5060   15.8570  -29.3030 C.3   133  ILE133      0.1727
     94  C         11.3060   16.0890  -30.8010 C.2   133  ILE133      0.2617
     95  O         12.1290   16.7330  -31.4630 O.2   133  ILE133     -0.2715
     96  CB        11.0940   17.1390  -28.5360 C.3   133  ILE133      0.0290
     97  CG1       11.1560   16.9010  -27.0220 C.3   133  ILE133      0.0022
     98  CG2        9.6830   17.5950  -28.9180 C.3   133  ILE133      0.0023
     99  CD1       11.1830   18.1550  -26.2170 C.3   133  ILE133      0.0001
    100  N         10.2340   15.5130  -31.3170 N.am  134  SER134     -0.1936
    101  CA         9.7560   15.7100  -32.6920 C.3   134  SER134      0.2055
    102  C         10.5020   14.9700  -33.8040 C.2   134  SER134      0.2644
    103  O         10.0490   15.0410  -34.9520 O.2   134  SER134     -0.2714
    104  CB         9.6490   17.2220  -33.0700 C.3   134  SER134      0.2130
    105  OG         8.5740   17.8260  -32.4380 O.3   134  SER134     -0.2179
    106  N         11.5910   14.2350  -33.5050 N.am  135  THR135     -0.1936
    107  CA        12.3990   13.6310  -34.5730 C.3   135  THR135      0.2028
    108  C         12.0310   12.1940  -34.9220 C.2   135  THR135      0.2643
    109  O         12.6880   11.6060  -35.7800 O.2   135  THR135     -0.2714
    110  CB        13.9010   13.7370  -34.2790 C.3   135  THR135      0.1808
    111  OG1       14.2570   12.8560  -33.2140 O.3   135  THR135     -0.2208
    112  CG2       14.2700   15.1890  -33.9460 C.3   135  THR135      0.0379
    113  N         11.0050   11.6470  -34.2700 N.am  136  GLY136     -0.1939
    114  CA        10.4690   10.3230  -34.5860 C.3   136  GLY136      0.2014
    115  C          9.3010   10.4590  -35.5500 C.2   136  GLY136      0.2639
    116  O          9.4480   10.8720  -36.7060 O.2   136  GLY136     -0.2714
    117  N          8.1250   10.1170  -35.0500 N.am  137  VAL137     -0.1963
    118  CA         6.8850   10.2230  -35.8140 C.3   137  VAL137      0.1727
    119  C          6.5260   11.6150  -36.2930 C.2   137  VAL137      0.2616
    120  O          5.9410   11.7570  -37.3680 O.2   137  VAL137     -0.2715
    121  CB         5.8300    9.5780  -34.9280 C.3   137  VAL137      0.0290
    122  CG1        4.4780    9.5240  -35.3090 C.3   137  VAL137      0.0023
    123  CG2        5.7000    8.2100  -35.4330 C.3   137  VAL137      0.0023
    124  N          6.9160   12.6330  -35.5310 N.am  138  TYR138     -0.1974
    125  CA         6.7150   14.0170  -35.9450 C.3   138  TYR138      0.1639
    126  C          7.6620   14.5130  -37.0480 C.2   138  TYR138      0.2290
    127  O          7.4590   15.6100  -37.5810 O.2   138  TYR138     -0.2864
    128  CB         6.7270   14.9260  -34.7220 C.3   138  TYR138      0.0560
    129  CG         5.4200   14.9390  -33.9390 C.ar  138  TYR138     -0.0198
    130  CD1        4.3710   14.0380  -34.1880 C.ar  138  TYR138     -0.0009
    131  CD2        5.2470   15.8460  -32.8990 C.ar  138  TYR138     -0.0009
    132  CE1        3.1900   14.0810  -33.4490 C.ar  138  TYR138      0.0417
    133  CE2        4.0710   15.8760  -32.1480 C.ar  138  TYR138      0.0417
    134  CZ         3.0380   15.0140  -32.4350 C.ar  138  TYR138      0.1957
    135  OH         1.8690   15.0670  -31.6840 O.3   138  TYR138     -0.2866
    136  N         18.8140   12.5590  -23.7790 N.3   168  VAL168     -0.1245
    137  CA        18.9230   11.1220  -23.8580 C.3   168  VAL168      0.1561
    138  C         18.5550   10.7410  -25.2840 C.2   168  VAL168      0.2260
    139  O         17.3890   10.8880  -25.6930 O.2   168  VAL168     -0.2867
    140  CB        18.0160   10.4410  -22.8280 C.3   168  VAL168      0.0252
    141  CG1       18.1030    8.9230  -22.9440 C.3   168  VAL168      0.0019
    142  CG2       18.4090   10.8760  -21.4230 C.3   168  VAL168      0.0019
    143  N         18.1910    7.8410  -28.2560 N.3   170  PHE170     -0.1241
    144  CA        17.8150    6.4370  -28.2680 C.3   170  PHE170      0.1605
    145  C         18.6310    5.5840  -29.2470 C.2   170  PHE170      0.2264
    146  O         18.5410    4.3440  -29.2260 O.2   170  PHE170     -0.2867
    147  CB        16.3280    6.3450  -28.5850 C.3   170  PHE170      0.0534
    148  CG        15.7030    5.0410  -28.2040 C.ar  170  PHE170     -0.0203
    149  CD1       15.7450    4.5890  -26.8820 C.ar  170  PHE170     -0.0042
    150  CD2       15.0430    4.2740  -29.1560 C.ar  170  PHE170     -0.0042
    151  CE1       15.1570    3.3850  -26.5260 C.ar  170  PHE170     -0.0003
    152  CE2       14.4670    3.0640  -28.8020 C.ar  170  PHE170     -0.0003
    153  CZ        14.5230    2.6240  -27.4870 C.ar  170  PHE170     -0.0000
    154  N         21.6540    9.1890  -33.5920 N.3   174  ASP174     -0.1239
    155  CA        21.2420   10.4870  -33.0180 C.3   174  ASP174      0.1674
    156  C         22.2810   11.0600  -32.0670 C.2   174  ASP174      0.2266
    157  O         22.5380   12.2510  -32.0820 O.2   174  ASP174     -0.2867
    158  CB        19.8800   10.3840  -32.3190 C.3   174  ASP174      0.1410
    159  CG        18.7550   10.0690  -33.2780 C.2   174  ASP174      0.3668
    160  OD1       18.9810   10.1050  -34.5040 O.co2 174  ASP174     -0.2456
    161  OD2       17.6170    9.7560  -32.8270 O.co2 174  ASP174     -0.2456
@<TRIPOS>BOND
     1   127   126    2
     2   120   119    2
     3   126   125    1
     4   116   115    2
     5   119   118    1
     6   119   124   am
     7   125   124    1
     8   125   128    1
     9   118   117    1
    10   118   121    1
    11   109   108    2
    12   115   117   am
    13   115   114    1
    14   123   122    1
    15   123   121    1
    16   122   121    1
    17   103   102    2
    18   108   107    1
    19   108   113   am
    20   128   129    1
    21   114   113    1
    22   107   110    1
    23   107   106    1
    24   160   159   ar
    25   110   112    1
    26   110   111    1
    27   130   129   ar
    28   130   132   ar
    29   129   131   ar
    30   102   106   am
    31   102   101    1
    32   154   155    1
    33   132   134   ar
    34   159   161   ar
    35   159   158    1
    36   104   101    1
    37   104   105    1
    38   155   158    1
    39   155   156    1
    40   131   133   ar
    41   101   100    1
    42   134   133   ar
    43   134   135    1
    44   157   156    2
    45    78    77    2
    46    77    76    1
    47    95    94    2
    48    91    90    1
    49   100    94   am
    50    94    93    1
    51    89    88    2
    52    76    75    1
    53    90    87    1
    54    88    87    1
    55    88    92   am
    56    51    52    1
    57    51    49   am
    58    93    92    1
    59    93    96    1
    60    48    47    1
    61    48    49    1
    62    52    53    1
    63   145   146    2
    64   145   144    1
    65    35    36    1
    66    35    32    1
    67   150   152   ar
    68   150   148   ar
    69    47    45   am
    70    87    86    1
    71    49    50    2
    72    98    96    1
    73   152   153   ar
    74   147   144    1
    75   147   148    1
    76    96    97    1
    77    36    38   am
    78    36    37    2
    79    32    33    1
    80    32    31    1
    81   144   143    1
    82    29    28    2
    83   148   149   ar
    84    45    44    1
    85    45    46    2
    86    44    43    1
    87    86    81   am
    88    53    55   am
    89    53    54    2
    90    55    56    1
    91   153   151   ar
    92    33    34    2
    93    25    22    1
    94    31    28   am
    95    28    27    1
    96    24    23    2
    97    97    99    1
    98    42    41    2
    99   149   151   ar
   100    81    82    2
   101    81    80    1
   102    43    41   am
   103    23    22    1
   104    23    26   am
   105    60    59    1
   106    22    21    1
   107    41    40    1
   108    56    59    1
   109    56    57    1
   110    69    67   ar
   111    26    27    1
   112    27    30    1
   113    59    61    1
   114    66    67    1
   115    66    63    1
   116    62    57   am
   117    62    63    1
   118   139   138    2
   119    83    80    1
   120    83    84    1
   121    80    79    1
   122    67    68   ar
   123   138   137    1
   124    57    58    2
   125    84    85    1
   126    63    64    1
   127    40    39    1
   128    64    65    2
   129     4     3    2
   130    70    71    1
   131     1     2    1
   132    79    85    1
   133   137   136    1
   134   137   140    1
   135    74    71    1
   136     3     2    1
   137     3     5   am
   138    71    72    1
   139   141   140    1
   140   140   142    1
   141     5     6    1
   142     6     9    1
   143     6     7    1
   144     9    10    1
   145    72    73    2
   146    10    11   ar
   147    10    12   ar
   148    19    17    1
   149    13     7   am
   150    13    14    1
   151    17    14    1
   152    17    18    1
   153    20    18    1
   154     7     8    2
   155    14    15    1
   156    15    16    2
