@<TRIPOS>MOLECULE
tmp/5l9nA00.pdb
 101 98 0 0 0
SMALL
GASTEIGER

@<TRIPOS>ATOM
      1  N        -22.4880   14.5080  -14.5110 N.3     7  ILE7       -0.1245
      2  CA       -23.7910   15.0170  -14.1120 C.3     7  ILE7        0.1561
      3  C        -24.1520   14.4220  -12.7690 C.2     7  ILE7        0.2260
      4  O        -24.3520   13.2050  -12.6620 O.2     7  ILE7       -0.2867
      5  CB       -24.8850   14.6720  -15.1210 C.3     7  ILE7        0.0252
      6  CG1      -24.3800   14.9150  -16.5370 C.3     7  ILE7        0.0019
      7  CG2      -26.1700   15.4410  -14.7960 C.3     7  ILE7        0.0019
      8  CD1      -24.1120   16.3530  -16.7940 C.3     7  ILE7        0.0001
      9  N        -28.2160   22.2890  -14.4080 N.3    33  VAL33      -0.1231
     10  CA       -28.9580   21.6460  -15.4980 C.3    33  VAL33       0.1692
     11  C        -30.1780   20.9140  -14.9690 C.2    33  VAL33       0.2592
     12  O        -30.3430   20.7460  -13.7630 O.2    33  VAL33      -0.2718
     13  CB       -28.0930   20.6430  -16.2910 C.3    33  VAL33       0.0266
     14  CG1      -26.8850   21.3450  -16.9080 C.3    33  VAL33       0.0020
     15  CG2      -27.6790   19.4650  -15.3960 C.3    33  VAL33       0.0020
     16  N        -31.0490   20.5000  -15.8790 N.am   34  LYS34      -0.1966
     17  CA       -32.1810   19.6720  -15.4950 C.3    34  LYS34       0.1728
     18  C        -31.9570   18.2770  -16.0520 C.2    34  LYS34       0.2617
     19  O        -31.6460   18.1140  -17.2350 O.2    34  LYS34      -0.2715
     20  CB       -33.4960   20.2650  -16.0120 C.3    34  LYS34       0.0311
     21  CG       -33.7910   21.6480  -15.4550 C.3    34  LYS34       0.0038
     22  CD       -35.0070   22.2810  -16.1250 C.3    34  LYS34       0.0206
     23  CE       -35.0600   23.7900  -15.8530 C.3    34  LYS34       0.1093
     24  NZ       -35.9270   24.5100  -16.8370 N.3    34  LYS34      -0.1314
     25  N        -32.1020   17.2730  -15.2020 N.am   35  GLY35      -0.1940
     26  CA       -31.9250   15.9120  -15.6560 C.3    35  GLY35       0.2014
     27  C        -33.2670   15.2230  -15.8160 C.2    35  GLY35       0.2638
     28  O        -34.1260   15.3090  -14.9410 O.2    35  GLY35      -0.2714
     29  N        -33.4450   14.5460  -16.9400 N.am   36  PHE36      -0.1973
     30  CA       -34.6370   13.7310  -17.1710 C.3    36  PHE36       0.1639
     31  C        -34.2680   12.2530  -17.2500 C.2    36  PHE36       0.2290
     32  O        -33.1750   11.9060  -17.7020 O.2    36  PHE36      -0.2864
     33  CB       -35.3440   14.1680  -18.4530 C.3    36  PHE36       0.0560
     34  CG       -35.8590   15.5740  -18.4120 C.ar   36  PHE36      -0.0200
     35  CD1      -35.0190   16.6450  -18.6760 C.ar   36  PHE36      -0.0042
     36  CD2      -37.1900   15.8280  -18.1370 C.ar   36  PHE36      -0.0042
     37  CE1      -35.4920   17.9390  -18.6420 C.ar   36  PHE36      -0.0003
     38  CE2      -37.6750   17.1230  -18.1130 C.ar   36  PHE36      -0.0003
     39  CZ       -36.8270   18.1790  -18.3670 C.ar   36  PHE36      -0.0000
     40  N        -29.8110   19.0320  -11.3790 N.3    41  LYS41      -0.1245
     41  CA       -28.5160   18.4050  -11.3170 C.3    41  LYS41       0.1561
     42  C        -27.4800   19.4700  -11.4970 C.2    41  LYS41       0.2260
     43  O        -27.7810   20.6060  -11.8710 O.2    41  LYS41      -0.2867
     44  CB       -28.3510   17.3460  -12.4200 C.3    41  LYS41       0.0271
     45  CG       -29.4480   16.3070  -12.4470 C.3    41  LYS41       0.0035
     46  CD       -29.2090   15.2530  -11.4080 C.3    41  LYS41       0.0206
     47  CE       -30.3290   14.2320  -11.4530 C.3    41  LYS41       0.1093
     48  NZ       -30.1290   13.1580  -10.4610 N.3    41  LYS41      -0.1314
     49  N        -27.8190    4.4490   -4.8930 N.3    68  LYS68      -0.1231
     50  CA       -29.2220    4.5550   -5.2800 C.3    68  LYS68       0.1693
     51  C        -29.4090    5.1380   -6.6810 C.2    68  LYS68       0.2592
     52  O        -28.4450    5.4770   -7.3690 O.2    68  LYS68      -0.2718
     53  CB       -29.9870    5.4140   -4.2660 C.3    68  LYS68       0.0285
     54  CG       -29.8000    4.9530   -2.8450 C.3    68  LYS68       0.0035
     55  CD       -30.7020    3.8070   -2.5160 C.3    68  LYS68       0.0206
     56  CE       -30.6280    3.3580   -1.0630 C.3    68  LYS68       0.1093
     57  NZ       -29.2980    2.9820   -0.6020 N.3    68  LYS68      -0.1314
     58  N        -30.6690    5.2500   -7.0850 N.am   69  ILE69      -0.1966
     59  CA       -31.0460    5.8290   -8.3670 C.3    69  ILE69       0.1727
     60  C        -30.6440    7.3070   -8.4410 C.2    69  ILE69       0.2617
     61  O        -30.6080    8.0040   -7.4240 O.2    69  ILE69      -0.2715
     62  CB       -32.5760    5.6820   -8.6010 C.3    69  ILE69       0.0290
     63  CG1      -32.9630    5.9910  -10.0450 C.3    69  ILE69       0.0022
     64  CG2      -33.3620    6.5620   -7.6400 C.3    69  ILE69       0.0023
     65  CD1      -33.1030    4.7520  -10.9060 C.3    69  ILE69       0.0001
     66  N        -30.3150    7.7710   -9.6430 N.am   70  GLY70      -0.1940
     67  CA       -30.1050    9.1890   -9.8870 C.3    70  GLY70       0.2014
     68  C        -28.6820    9.6920   -9.7310 C.2    70  GLY70       0.2639
     69  O        -28.4170   10.8900   -9.9140 O.2    70  GLY70      -0.2714
     70  N        -27.7660    8.7780   -9.4150 N.am   71  ASP71      -0.1957
     71  CA       -26.3680    9.1260   -9.1510 C.3    71  ASP71       0.1840
     72  C        -25.6660    9.8140  -10.3330 C.2    71  ASP71       0.2623
     73  O        -24.7130   10.5710  -10.1470 O.2    71  ASP71      -0.2715
     74  CB       -25.6020    7.8710   -8.7260 C.3    71  ASP71       0.1450
     75  CG       -25.7620    7.5780   -7.2500 C.2    71  ASP71       0.3671
     76  OD1      -26.5180    8.3240   -6.5920 O.co2  71  ASP71      -0.2456
     77  OD2      -25.1540    6.6060   -6.7520 O.co2  71  ASP71      -0.2456
     78  N        -26.1440    9.5680  -11.5430 N.am   72  GLY72      -0.1940
     79  CA       -25.6560   10.3080  -12.6900 C.3    72  GLY72       0.2014
     80  C        -24.6100    9.5710  -13.4920 C.2    72  GLY72       0.2638
     81  O        -24.2780    8.4130  -13.2110 O.2    72  GLY72      -0.2714
     82  N        -24.0970   10.2570  -14.5020 N.am   73  LYS73      -0.1977
     83  CA       -23.1330    9.6840  -15.4200 C.3    73  LYS73       0.1596
     84  C        -21.9290   10.5750  -15.6180 C.2    73  LYS73       0.2287
     85  O        -21.9440   11.7890  -15.3390 O.2    73  LYS73      -0.2864
     86  CB       -23.7840    9.4010  -16.7710 C.3    73  LYS73       0.0298
     87  CG       -24.5480    8.0870  -16.7980 C.3    73  LYS73       0.0038
     88  CD       -25.1120    7.7930  -18.1810 C.3    73  LYS73       0.0206
     89  CE       -25.5370    6.3370  -18.3060 C.3    73  LYS73       0.1093
     90  NZ       -26.4370    5.9490  -17.1910 N.3    73  LYS73      -0.1314
     91  N        -19.2560   11.4870  -18.6470 N.3    75  PHE75      -0.1241
     92  CA       -18.9530   11.3830  -20.0650 C.3    75  PHE75       0.1605
     93  C        -17.5680   11.9370  -20.3120 C.2    75  PHE75       0.2264
     94  O        -17.2370   13.0140  -19.8260 O.2    75  PHE75      -0.2867
     95  CB       -19.9960   12.1340  -20.8790 C.3    75  PHE75       0.0534
     96  CG       -21.4040   11.7330  -20.5560 C.ar   75  PHE75      -0.0203
     97  CD1      -21.9000   10.5160  -20.9910 C.ar   75  PHE75      -0.0042
     98  CD2      -22.2360   12.5710  -19.8330 C.ar   75  PHE75      -0.0042
     99  CE1      -23.2060   10.1360  -20.6980 C.ar   75  PHE75      -0.0003
    100  CE2      -23.5320   12.1930  -19.5350 C.ar   75  PHE75      -0.0003
    101  CZ       -24.0200   10.9780  -19.9770 C.ar   75  PHE75      -0.0000
@<TRIPOS>BOND
     1    97    99   ar
     2    97    96   ar
     3    95    96    1
     4    95    92    1
     5    99   101   ar
     6    96    98   ar
     7    93    92    1
     8    93    94    2
     9    92    91    1
    10   101   100   ar
    11    98   100   ar
    12    35    37   ar
    13    35    34   ar
    14    37    39   ar
    15    33    34    1
    16    33    30    1
    17    34    36   ar
    18    39    38   ar
    19    89    88    1
    20    89    90    1
    21    88    87    1
    22    36    38   ar
    23    32    31    2
    24    31    30    1
    25    19    18    2
    26    30    29    1
    27    29    27   am
    28    14    13    1
    29    24    23    1
    30    87    86    1
    31     8     6    1
    32    86    83    1
    33     6     5    1
    34    13    10    1
    35    13    15    1
    36    22    23    1
    37    22    21    1
    38    18    17    1
    39    18    25   am
    40    20    17    1
    41    20    21    1
    42    16    17    1
    43    16    11   am
    44    27    26    1
    45    27    28    2
    46    26    25    1
    47    84    83    1
    48    84    85    2
    49    10    11    1
    50    10     9    1
    51    83    82    1
    52     5     7    1
    53     5     2    1
    54    11    12    2
    55     1     2    1
    56    82    80   am
    57     2     3    1
    58    80    81    2
    59    80    79    1
    60     3     4    2
    61    79    78    1
    62    45    44    1
    63    45    46    1
    64    44    41    1
    65    43    42    2
    66    78    72   am
    67    42    41    1
    68    47    46    1
    69    47    48    1
    70    40    41    1
    71    65    63    1
    72    72    73    2
    73    72    71    1
    74    63    62    1
    75    69    68    2
    76    67    68    1
    77    67    66    1
    78    68    70   am
    79    66    60   am
    80    70    71    1
    81    71    74    1
    82    74    75    1
    83    62    59    1
    84    62    64    1
    85    60    59    1
    86    60    61    2
    87    59    58    1
    88    52    51    2
    89    75    77   ar
    90    75    76   ar
    91    58    51   am
    92    51    50    1
    93    50    49    1
    94    50    53    1
    95    53    54    1
    96    54    55    1
    97    55    56    1
    98    56    57    1
