@<TRIPOS>MOLECULE
tmp/5l9qB00.pdb
 153 147 0 0 0
SMALL
GASTEIGER

@<TRIPOS>ATOM
      1  N         20.5710    5.9200  -24.8180 N.3    19  GLY19      -0.1210
      2  CA        19.8910    5.1790  -23.7870 C.3    19  GLY19       0.1956
      3  C         18.3950    5.1340  -23.9090 C.2    19  GLY19       0.2612
      4  O         17.8040    5.5840  -24.8980 O.2    19  GLY19      -0.2717
      5  N         17.7940    4.5420  -22.8820 N.am   20  ASP20      -0.1959
      6  CA        16.3440    4.4340  -22.7680 C.3    20  ASP20       0.1840
      7  C         15.9440    5.4340  -21.6840 C.2    20  ASP20       0.2621
      8  O         16.2890    5.2650  -20.5210 O.2    20  ASP20      -0.2715
      9  CB        15.9680    2.9870  -22.3870 C.3    20  ASP20       0.1450
     10  CG        14.4630    2.7750  -22.1530 C.2    20  ASP20       0.3671
     11  OD1       13.6580    3.7420  -22.1000 O.co2  20  ASP20      -0.2456
     12  OD2       14.0440    1.6120  -22.0190 O.co2  20  ASP20      -0.2456
     13  N         15.1800    6.4530  -22.0690 N.am   21  ILE21      -0.1977
     14  CA        14.8140    7.5320  -21.1470 C.3    21  ILE21       0.1596
     15  C         14.0340    7.0580  -19.9070 C.2    21  ILE21       0.2287
     16  O         14.1310    7.6840  -18.8430 O.2    21  ILE21      -0.2864
     17  CB        14.0470    8.6810  -21.8700 C.3    21  ILE21       0.0276
     18  CG1       14.1480    9.9840  -21.0620 C.3    21  ILE21       0.0022
     19  CG2       12.5940    8.3070  -22.1410 C.3    21  ILE21       0.0022
     20  CD1       13.6290   11.2190  -21.7760 C.3    21  ILE21       0.0001
     21  N          7.7290   13.1940  -24.9710 N.3    32  ALA32      -0.1231
     22  CA         7.2170   13.7740  -26.2370 C.3    32  ALA32       0.1694
     23  C          5.8180   13.1880  -26.4350 C.2    32  ALA32       0.2592
     24  O          5.6450   12.1310  -27.0560 O.2    32  ALA32      -0.2718
     25  CB         8.1260   13.4560  -27.4030 C.3    32  ALA32       0.0304
     26  N          4.8400   13.8720  -25.8470 N.am   33  ALA33      -0.1966
     27  CA         3.4640   13.4040  -25.7420 C.3    33  ALA33       0.1728
     28  C          2.6530   13.6780  -26.9970 C.2    33  ALA33       0.2616
     29  O          3.1130   14.3640  -27.9290 O.2    33  ALA33      -0.2715
     30  CB         2.7790   14.0360  -24.5230 C.3    33  ALA33       0.0334
     31  N          1.4680   13.0700  -27.0290 N.am   34  ASN34      -0.1972
     32  CA         0.4720   13.3310  -28.0710 C.3    34  ASN34       0.1688
     33  C         -0.4570   14.4160  -27.5380 C.2    34  ASN34       0.2292
     34  O         -0.6860   14.4930  -26.3370 O.2    34  ASN34      -0.2864
     35  CB        -0.3060   12.0530  -28.3660 C.3    34  ASN34       0.1181
     36  CG         0.5910   10.9000  -28.8030 C.2    34  ASN34       0.2629
     37  OD1        1.2730   10.9800  -29.8220 O.2    34  ASN34      -0.2716
     38  ND2        0.6100    9.8280  -28.0170 N.am   34  ASN34      -0.0877
     39  N          2.6070    4.8220  -29.3020 N.3    41  GLY41      -0.1210
     40  CA         3.8510    4.0790  -29.3920 C.3    41  GLY41       0.1956
     41  C          5.0200    5.0140  -29.1380 C.2    41  GLY41       0.2612
     42  O          4.8660    6.1150  -28.5470 O.2    41  GLY41      -0.2717
     43  N          6.1990    4.5880  -29.5820 N.am   42  GLY42      -0.1942
     44  CA         7.4060    5.4000  -29.4690 C.3    42  GLY42       0.2014
     45  C          7.7930    5.6750  -28.0270 C.2    42  GLY42       0.2639
     46  O          7.5610    4.8530  -27.1560 O.2    42  GLY42      -0.2714
     47  N          8.3880    6.8380  -27.7820 N.am   43  VAL43      -0.1963
     48  CA         8.8710    7.1590  -26.4410 C.3    43  VAL43       0.1727
     49  C          7.6730    7.3370  -25.4990 C.2    43  VAL43       0.2616
     50  O          7.7270    6.9390  -24.3300 O.2    43  VAL43      -0.2715
     51  CB         9.8270    8.3750  -26.4080 C.3    43  VAL43       0.0290
     52  CG1        9.1220    9.6950  -26.6990 C.3    43  VAL43       0.0023
     53  CG2       10.5460    8.4330  -25.0610 C.3    43  VAL43       0.0023
     54  N          6.5910    7.9140  -26.0070 N.am   44  ASP44      -0.1971
     55  CA         5.3810    8.0650  -25.1880 C.3    44  ASP44       0.1709
     56  C          4.8390    6.7030  -24.7630 C.2    44  ASP44       0.2293
     57  O          4.4760    6.5020  -23.5980 O.2    44  ASP44      -0.2864
     58  CB         4.3300    8.8850  -25.9310 C.3    44  ASP44       0.1436
     59  CG         3.0170    8.9550  -25.1890 C.2    44  ASP44       0.3671
     60  OD1        2.8100    9.9280  -24.4510 O.co2  44  ASP44      -0.2456
     61  OD2        2.1840    8.0320  -25.3340 O.co2  44  ASP44      -0.2456
     62  N          6.6820    3.9250  -24.4950 N.3    46  ALA46      -0.1245
     63  CA         7.6480    3.3750  -23.5510 C.3    46  ALA46       0.1562
     64  C          7.4220    3.9570  -22.1480 C.2    46  ALA46       0.2260
     65  O          7.4160    3.2250  -21.1640 O.2    46  ALA46      -0.2867
     66  CB         9.0710    3.6840  -24.0180 C.3    46  ALA46       0.0290
     67  N          5.5680   18.2340  -29.3250 N.3    95  GLY95      -0.1225
     68  CA         6.4080   18.8710  -30.3250 C.3    95  GLY95       0.1811
     69  C          5.6290   19.1300  -31.6060 C.2    95  GLY95       0.2280
     70  O          4.5610   18.5590  -31.8260 O.2    95  GLY95      -0.2866
     71  N         14.0480   13.5080  -24.4700 N.3   131  PRO131     -0.2102
     72  CA        14.2390   12.6740  -25.6600 C.3   131  PRO131      0.1504
     73  C         14.4400   13.5500  -26.8960 C.2   131  PRO131      0.2576
     74  O         14.4560   14.7700  -26.7720 O.2   131  PRO131     -0.2718
     75  CB        12.9170   11.9180  -25.7300 C.3   131  PRO131      0.0282
     76  CG        11.9170   12.9270  -25.2730 C.3   131  PRO131      0.0208
     77  CD        12.6220   13.8610  -24.3050 C.3   131  PRO131      0.0893
     78  N         14.5270   12.9370  -28.0820 N.am  132  SER132     -0.1938
     79  CA        14.5590   13.6750  -29.3490 C.3   132  SER132      0.2055
     80  C         13.1510   14.0930  -29.8240 C.2   132  SER132      0.2643
     81  O         12.5370   13.4250  -30.6520 O.2   132  SER132     -0.2714
     82  CB        15.3090   12.8590  -30.4130 C.3   132  SER132      0.2130
     83  OG        15.4800   13.6320  -31.5870 O.3   132  SER132     -0.2179
     84  N         12.6470   15.2100  -29.3050 N.am  133  ILE133     -0.1963
     85  CA        11.2330   15.5830  -29.4890 C.3   133  ILE133      0.1727
     86  C         10.9600   15.7880  -30.9920 C.2   133  ILE133      0.2617
     87  O         11.7420   16.4270  -31.6510 O.2   133  ILE133     -0.2715
     88  CB        10.8760   16.8690  -28.7150 C.3   133  ILE133      0.0290
     89  CG1       10.9980   16.6290  -27.1970 C.3   133  ILE133      0.0022
     90  CG2        9.4590   17.3450  -29.0400 C.3   133  ILE133      0.0023
     91  CD1       10.9070   17.8770  -26.3510 C.3   133  ILE133      0.0001
     92  N          9.8860   15.1950  -31.5040 N.am  134  SER134     -0.1936
     93  CA         9.3790   15.4140  -32.8940 C.3   134  SER134      0.2055
     94  C         10.0970   14.6830  -34.0460 C.2   134  SER134      0.2644
     95  O          9.6030   14.7420  -35.1720 O.2   134  SER134     -0.2714
     96  CB         9.2690   16.9080  -33.2450 C.3   134  SER134      0.2130
     97  OG         8.1900   17.5270  -32.5700 O.3   134  SER134     -0.2179
     98  N         11.1970   13.9780  -33.7780 N.am  135  THR135     -0.1936
     99  CA        12.0080   13.3620  -34.8560 C.3   135  THR135      0.2028
    100  C         11.6710   11.8970  -35.1390 C.2   135  THR135      0.2643
    101  O         12.3650   11.2440  -35.9360 O.2   135  THR135     -0.2714
    102  CB        13.5210   13.5100  -34.5960 C.3   135  THR135      0.1808
    103  OG1       13.9080   12.6780  -33.4990 O.3   135  THR135     -0.2208
    104  CG2       13.8860   14.9670  -34.2820 C.3   135  THR135      0.0379
    105  N         10.6210   11.3710  -34.5060 N.am  136  GLY136     -0.1939
    106  CA        10.1010   10.0440  -34.8330 C.3   136  GLY136      0.2014
    107  C          8.9150   10.1480  -35.7680 C.2   136  GLY136      0.2639
    108  O          9.0360   10.6580  -36.9020 O.2   136  GLY136     -0.2714
    109  N          7.7520    9.7070  -35.2970 N.am  137  VAL137     -0.1963
    110  CA         6.5490    9.7720  -36.1360 C.3   137  VAL137      0.1727
    111  C          6.2280   11.2060  -36.5700 C.2   137  VAL137      0.2616
    112  O          5.7230   11.4050  -37.6770 O.2   137  VAL137     -0.2715
    113  CB         5.3230    9.0650  -35.5140 C.3   137  VAL137      0.0290
    114  CG1        5.5900    7.5700  -35.4240 C.3   137  VAL137      0.0023
    115  CG2        4.9460    9.6470  -34.1560 C.3   137  VAL137      0.0023
    116  N          6.5440   12.2050  -35.7390 N.am  138  TYR138     -0.1974
    117  CA         6.2630   13.6130  -36.0860 C.3   138  TYR138      0.1639
    118  C          7.1270   14.1520  -37.2290 C.2   138  TYR138      0.2290
    119  O          6.8150   15.1930  -37.7910 O.2   138  TYR138     -0.2864
    120  CB         6.3360   14.5250  -34.8590 C.3   138  TYR138      0.0560
    121  CG         5.1390   14.4110  -33.9180 C.ar  138  TYR138     -0.0198
    122  CD1        4.4200   13.2170  -33.7780 C.ar  138  TYR138     -0.0009
    123  CD2        4.7520   15.4870  -33.1330 C.ar  138  TYR138     -0.0009
    124  CE1        3.3410   13.1190  -32.9040 C.ar  138  TYR138      0.0417
    125  CE2        3.6750   15.3910  -32.2600 C.ar  138  TYR138      0.0417
    126  CZ         2.9680   14.2130  -32.1620 C.ar  138  TYR138      0.1957
    127  OH         1.9110   14.1090  -31.2920 O.3   138  TYR138     -0.2866
    128  N         18.6590   12.1950  -24.1570 N.3   168  VAL168     -0.1245
    129  CA        18.7850   10.7610  -24.2850 C.3   168  VAL168      0.1561
    130  C         18.3710   10.3850  -25.7020 C.2   168  VAL168      0.2260
    131  O         17.1960   10.4930  -26.0470 O.2   168  VAL168     -0.2867
    132  CB        17.9290   10.0290  -23.2340 C.3   168  VAL168      0.0252
    133  CG1       18.1100    8.5120  -23.3360 C.3   168  VAL168      0.0019
    134  CG2       18.2890   10.5060  -21.8270 C.3   168  VAL168      0.0019
    135  N         17.9920    7.5350  -28.7720 N.3   170  PHE170     -0.1241
    136  CA        17.5990    6.1280  -28.8080 C.3   170  PHE170      0.1605
    137  C         18.3530    5.2870  -29.8370 C.2   170  PHE170      0.2264
    138  O         18.2130    4.0810  -29.8340 O.2   170  PHE170     -0.2867
    139  CB        16.0990    6.0110  -29.0550 C.3   170  PHE170      0.0534
    140  CG        15.5120    4.7090  -28.6000 C.ar  170  PHE170     -0.0203
    141  CD1       15.6940    4.2620  -27.2850 C.ar  170  PHE170     -0.0042
    142  CD2       14.7650    3.9210  -29.4680 C.ar  170  PHE170     -0.0042
    143  CE1       15.1520    3.0610  -26.8650 C.ar  170  PHE170     -0.0003
    144  CE2       14.2150    2.7200  -29.0450 C.ar  170  PHE170     -0.0003
    145  CZ        14.4050    2.2900  -27.7450 C.ar  170  PHE170     -0.0000
    146  N         21.3210    8.9320  -34.1800 N.3   174  ASP174     -0.1239
    147  CA        20.8160   10.1750  -33.5850 C.3   174  ASP174      0.1674
    148  C         21.8490   10.7730  -32.6430 C.2   174  ASP174      0.2266
    149  O         22.0830   11.9830  -32.6620 O.2   174  ASP174     -0.2867
    150  CB        19.4990    9.9530  -32.8320 C.3   174  ASP174      0.1410
    151  CG        18.3430    9.5890  -33.7410 C.2   174  ASP174      0.3668
    152  OD1       18.5110    9.5750  -34.9750 O.co2 174  ASP174     -0.2456
    153  OD2       17.2480    9.3090  -33.2080 O.co2 174  ASP174     -0.2456
@<TRIPOS>BOND
     1   119   118    2
     2   112   111    2
     3   118   117    1
     4   108   107    2
     5   111   110    1
     6   111   116   am
     7   110   113    1
     8   110   109    1
     9   117   116    1
    10   117   120    1
    11   101   100    2
    12   107   109   am
    13   107   106    1
    14   113   114    1
    15   113   115    1
    16    95    94    2
    17   100    99    1
    18   100   105   am
    19   152   151   ar
    20   120   121    1
    21    99   102    1
    22    99    98    1
    23   106   105    1
    24   102   104    1
    25   102   103    1
    26   146   147    1
    27    94    98   am
    28    94    93    1
    29   121   122   ar
    30   121   123   ar
    31   122   124   ar
    32   151   153   ar
    33   151   150    1
    34   147   150    1
    35   147   148    1
    36    96    93    1
    37    96    97    1
    38   123   125   ar
    39   124   126   ar
    40    93    92    1
    41   149   148    2
    42   125   126   ar
    43   126   127    1
    44    70    69    2
    45    87    86    2
    46    69    68    1
    47    83    82    1
    48    92    86   am
    49    86    85    1
    50    81    80    2
    51    82    79    1
    52    68    67    1
    53   137   138    2
    54   137   136    1
    55    80    79    1
    56    80    84   am
    57    37    36    2
    58    43    44    1
    59    43    41   am
    60    85    84    1
    61    85    88    1
    62    44    45    1
    63   142   144   ar
    64   142   140   ar
    65    40    39    1
    66    40    41    1
    67    79    78    1
    68    41    42    2
    69   139   136    1
    70   139   140    1
    71   144   145   ar
    72    90    88    1
    73   136   135    1
    74    36    35    1
    75    36    38   am
    76    88    89    1
    77   140   141   ar
    78    35    32    1
    79    78    73   am
    80    32    33    1
    81    32    31    1
    82    45    47   am
    83    45    46    2
    84    29    28    2
    85    47    48    1
    86   145   143   ar
    87    33    34    2
    88    25    22    1
    89   141   143   ar
    90    89    91    1
    91    24    23    2
    92    31    28   am
    93    28    27    1
    94    73    74    2
    95    73    72    1
    96    52    51    1
    97    48    51    1
    98    48    49    1
    99    23    22    1
   100    23    26   am
   101    51    53    1
   102    22    21    1
   103   131   130    2
   104    54    49   am
   105    54    55    1
   106    58    59    1
   107    58    55    1
   108    26    27    1
   109    27    30    1
   110    75    72    1
   111    75    76    1
   112   130   129    1
   113    72    71    1
   114    49    50    2
   115    61    59   ar
   116    76    77    1
   117    59    60   ar
   118    55    56    1
   119     4     3    2
   120     1     2    1
   121    56    57    2
   122    62    63    1
   123    71    77    1
   124   129   128    1
   125   129   132    1
   126    66    63    1
   127     3     2    1
   128     3     5   am
   129    63    64    1
   130   133   132    1
   131   132   134    1
   132     5     6    1
   133     6     9    1
   134     6     7    1
   135     9    10    1
   136    10    11   ar
   137    10    12   ar
   138    64    65    2
   139    19    17    1
   140    13     7   am
   141    13    14    1
   142    17    14    1
   143    17    18    1
   144    20    18    1
   145     7     8    2
   146    14    15    1
   147    15    16    2
