@<TRIPOS>MOLECULE
tmp/5l9rA00.pdb
 167 157 0 0 0
SMALL
GASTEIGER

@<TRIPOS>ATOM
      1  N        -61.4450  129.6030  -10.7320 N.3    68  ARG68      -0.1245
      2  CA       -61.4560  129.1430   -9.3540 C.3    68  ARG68       0.1563
      3  C        -61.1120  130.3090   -8.4500 C.2    68  ARG68       0.2260
      4  O        -60.2410  131.1120   -8.7800 O.2    68  ARG68      -0.2867
      5  CB       -60.4510  128.0000   -9.1380 C.3    68  ARG68       0.0307
      6  CG       -59.0190  128.3190   -9.5800 C.3    68  ARG68       0.0489
      7  CD       -58.1630  127.0630   -9.7000 C.3    68  ARG68       0.2205
      8  NE       -57.8960  126.4100   -8.4170 N.pl3  68  ARG68      -0.0865
      9  CZ       -57.0500  125.3920   -8.2620 C.cat  68  ARG68       0.5346
     10  NH1      -56.3840  124.9130   -9.3010 N.pl3  68  ARG68       0.1354
     11  NH2      -56.8570  124.8490   -7.0650 N.pl3  68  ARG68       0.1354
     12  N        -60.1470  129.7870   -5.1340 N.3    70  ASP70      -0.1239
     13  CA       -59.4180  129.2950   -3.9780 C.3    70  ASP70       0.1674
     14  C        -57.9730  129.8050   -3.9490 C.2    70  ASP70       0.2266
     15  O        -57.4580  130.3880   -4.9000 O.2    70  ASP70      -0.2867
     16  CB       -59.4420  127.7610   -3.9320 C.3    70  ASP70       0.1410
     17  CG       -58.8070  127.1140   -5.1490 C.2    70  ASP70       0.3668
     18  OD1      -58.7220  127.7730   -6.2110 O.co2  70  ASP70      -0.2456
     19  OD2      -58.3770  125.9300   -5.0290 O.co2  70  ASP70      -0.2456
     20  N        -52.1830  119.3340   -1.5820 N.3   115  MET115     -0.1245
     21  CA       -52.6580  120.6600   -1.9500 C.3   115  MET115      0.1570
     22  C        -53.6150  121.1410   -0.8710 C.2   115  MET115      0.2261
     23  O        -54.7560  120.6750   -0.7930 O.2   115  MET115     -0.2867
     24  CB       -53.3600  120.6430   -3.3010 C.3   115  MET115      0.0387
     25  CG       -53.7470  122.0600   -3.7510 C.3   115  MET115      0.0595
     26  SD       -54.6630  122.1380   -5.2980 S.3   115  MET115     -0.1393
     27  CE       -56.3230  121.6720   -4.6950 C.3   115  MET115      0.0692
     28  N        -56.0140  123.9300    0.3850 N.3   117  ALA117     -0.1245
     29  CA       -56.7970  124.9140   -0.3460 C.3   117  ALA117      0.1562
     30  C        -57.8300  125.5590    0.5570 C.2   117  ALA117      0.2260
     31  O        -58.4660  124.8980    1.3910 O.2   117  ALA117     -0.2867
     32  CB       -57.5160  124.3050   -1.5500 C.3   117  ALA117      0.0290
     33  N        -61.1280  128.3350    0.1680 N.3   119  TYR119     -0.1241
     34  CA       -62.0330  129.2500   -0.4960 C.3   119  TYR119      0.1605
     35  C        -62.4220  130.2860    0.5370 C.2   119  TYR119      0.2264
     36  O        -62.9960  129.9130    1.5750 O.2   119  TYR119     -0.2867
     37  CB       -63.2630  128.5270   -1.0340 C.3   119  TYR119      0.0534
     38  CG       -62.9670  127.5370   -2.1300 C.ar  119  TYR119     -0.0201
     39  CD1      -62.4510  126.2830   -1.8450 C.ar  119  TYR119     -0.0009
     40  CD2      -63.1900  127.8590   -3.4580 C.ar  119  TYR119     -0.0009
     41  CE1      -62.1580  125.3830   -2.8490 C.ar  119  TYR119      0.0417
     42  CE2      -62.9310  126.9660   -4.4560 C.ar  119  TYR119      0.0417
     43  CZ       -62.4090  125.7320   -4.1580 C.ar  119  TYR119      0.1957
     44  OH       -62.1270  124.8500   -5.1610 O.3   119  TYR119     -0.2866
     45  N        -65.3570  126.7990   -7.8270 N.3   126  TYR126     -0.1241
     46  CA       -64.5330  126.2360   -8.8870 C.3   126  TYR126      0.1605
     47  C        -65.4760  125.7170   -9.9630 C.2   126  TYR126      0.2264
     48  O        -66.3200  124.8550   -9.6890 O.2   126  TYR126     -0.2867
     49  CB       -63.6380  125.1420   -8.2970 C.3   126  TYR126      0.0534
     50  CG       -62.4000  124.7120   -9.0660 C.ar  126  TYR126     -0.0201
     51  CD1      -62.3280  124.7600  -10.4540 C.ar  126  TYR126     -0.0009
     52  CD2      -61.3080  124.2190   -8.3760 C.ar  126  TYR126     -0.0009
     53  CE1      -61.1760  124.3260  -11.1240 C.ar  126  TYR126      0.0417
     54  CE2      -60.1700  123.7750   -9.0310 C.ar  126  TYR126      0.0417
     55  CZ       -60.1010  123.8280  -10.3970 C.ar  126  TYR126      0.1957
     56  OH       -58.9540  123.3690  -11.0210 O.3   126  TYR126     -0.2866
     57  N        -65.0680  120.9630  -13.9210 N.3   129  HIS129     -0.1241
     58  CA       -63.7910  120.5820  -14.4930 C.3   129  HIS129      0.1621
     59  C        -63.5600  119.1070  -14.2430 C.2   129  HIS129      0.2264
     60  O        -64.2160  118.4860  -13.4040 O.2   129  HIS129     -0.2867
     61  CB       -62.6250  121.3840  -13.8910 C.3   129  HIS129      0.0745
     62  CG       -62.4040  121.1030  -12.4320 C.ar  129  HIS129      0.0817
     63  ND1      -63.2000  121.6460  -11.4440 N.ar  129  HIS129     -0.2268
     64  CD2      -61.5040  120.3140  -11.7960 C.ar  129  HIS129      0.1154
     65  CE1      -62.7860  121.2240  -10.2630 C.ar  129  HIS129      0.1986
     66  NE2      -61.7510  120.4150  -10.4460 N.ar  129  HIS129     -0.2212
     67  N        -60.2730  116.6770  -13.1800 N.3   131  ASP131     -0.1239
     68  CA       -58.9540  116.8810  -12.5780 C.3   131  ASP131      0.1674
     69  C        -57.8460  116.5010  -13.5480 C.2   131  ASP131      0.2266
     70  O        -56.8840  117.2540  -13.7460 O.2   131  ASP131     -0.2867
     71  CB       -58.8060  116.0660  -11.3010 C.3   131  ASP131      0.1410
     72  CG       -59.4310  116.7080  -10.0970 C.2   131  ASP131      0.3668
     73  OD1      -59.9310  117.8620  -10.1290 O.co2 131  ASP131     -0.2456
     74  OD2      -59.4280  116.0060   -9.0640 O.co2 131  ASP131     -0.2456
     75  N        -59.4880  113.7360   -1.0520 N.3   143  ILE143     -0.1245
     76  CA       -59.7040  115.0220   -0.4070 C.3   143  ILE143      0.1561
     77  C        -60.0970  114.8200    1.0420 C.2   143  ILE143      0.2260
     78  O        -60.9940  114.0300    1.3390 O.2   143  ILE143     -0.2867
     79  CB       -60.7860  115.8560   -1.1190 C.3   143  ILE143      0.0252
     80  CG1      -60.4540  115.9620   -2.6040 C.3   143  ILE143      0.0019
     81  CG2      -60.8290  117.2300   -0.5080 C.3   143  ILE143      0.0019
     82  CD1      -61.4260  116.8130   -3.4070 C.3   143  ILE143      0.0001
     83  N        -61.5500  117.0810    4.2910 N.3   145  TYR145     -0.1241
     84  CA       -62.2330  118.3230    4.6370 C.3   145  TYR145      0.1605
     85  C        -62.1310  118.5940    6.1320 C.2   145  TYR145      0.2264
     86  O        -62.1410  117.6720    6.9500 O.2   145  TYR145     -0.2867
     87  CB       -63.7070  118.2650    4.2250 C.3   145  TYR145      0.0534
     88  CG       -63.9120  118.1510    2.7380 C.ar  145  TYR145     -0.0201
     89  CD1      -63.7360  119.2620    1.8950 C.ar  145  TYR145     -0.0009
     90  CD2      -64.2920  116.9480    2.1730 C.ar  145  TYR145     -0.0009
     91  CE1      -63.9240  119.1590    0.5250 C.ar  145  TYR145      0.0417
     92  CE2      -64.4610  116.8210    0.7980 C.ar  145  TYR145      0.0417
     93  CZ       -64.3030  117.9310   -0.0140 C.ar  145  TYR145      0.1957
     94  OH       -64.4930  117.7920   -1.3650 O.3   145  TYR145     -0.2866
     95  N        -69.3570  120.2840   -3.0110 N.3   159  LEU159     -0.1245
     96  CA       -68.7230  119.6580   -4.1600 C.3   159  LEU159      0.1561
     97  C        -69.7520  118.7870   -4.8740 C.2   159  LEU159      0.2260
     98  O        -70.2590  117.8360   -4.2870 O.2   159  LEU159     -0.2867
     99  CB       -67.5490  118.7920   -3.7230 C.3   159  LEU159      0.0270
    100  CG       -66.9610  117.8920   -4.8060 C.3   159  LEU159      0.0019
    101  CD1      -66.3480  118.7120   -5.9560 C.3   159  LEU159      0.0001
    102  CD2      -65.9070  116.9910   -4.1890 C.3   159  LEU159      0.0001
    103  N        -62.2750  109.8030   -5.3630 N.3   182  PHE182     -0.1241
    104  CA       -63.0040  109.6400   -6.6230 C.3   182  PHE182      0.1605
    105  C        -62.0340  109.5420   -7.7890 C.2   182  PHE182      0.2264
    106  O        -60.9150  110.0470   -7.7180 O.2   182  PHE182     -0.2867
    107  CB       -64.0510  110.7620   -6.8430 C.3   182  PHE182      0.0534
    108  CG       -63.4950  112.1650   -6.9410 C.ar  182  PHE182     -0.0203
    109  CD1      -63.0820  112.6630   -8.1620 C.ar  182  PHE182     -0.0042
    110  CD2      -63.4510  112.9940   -5.8320 C.ar  182  PHE182     -0.0042
    111  CE1      -62.5860  113.9620   -8.2620 C.ar  182  PHE182     -0.0003
    112  CE2      -62.9680  114.2830   -5.9190 C.ar  182  PHE182     -0.0003
    113  CZ       -62.5370  114.7690   -7.1320 C.ar  182  PHE182     -0.0000
    114  N        -66.6470  117.6620  -11.9990 N.3   190  HIS190     -0.1241
    115  CA       -67.1560  118.1340  -10.7240 C.3   190  HIS190      0.1621
    116  C        -66.9460  119.6350  -10.6110 C.2   190  HIS190      0.2264
    117  O        -66.1530  120.2370  -11.3400 O.2   190  HIS190     -0.2867
    118  CB       -66.4900  117.3750   -9.5690 C.3   190  HIS190      0.0745
    119  CG       -64.9860  117.4410   -9.5880 C.ar  190  HIS190      0.0817
    120  ND1      -64.2220  116.6440  -10.4140 N.ar  190  HIS190     -0.2268
    121  CD2      -64.1170  118.2130   -8.8980 C.ar  190  HIS190      0.1154
    122  CE1      -62.9430  116.9340  -10.2330 C.ar  190  HIS190      0.1986
    123  NE2      -62.8510  117.8630   -9.3020 N.ar  190  HIS190     -0.2212
    124  N        -67.1030  123.0330   -7.5030 N.3   192  VAL192     -0.1245
    125  CA       -67.3070  123.5200   -6.1430 C.3   192  VAL192      0.1561
    126  C        -68.2590  124.6990   -6.2420 C.2   192  VAL192      0.2260
    127  O        -67.9380  125.7390   -6.8250 O.2   192  VAL192     -0.2867
    128  CB       -65.9890  123.9050   -5.4570 C.3   192  VAL192      0.0252
    129  CG1      -66.2650  124.3870   -4.0510 C.3   192  VAL192      0.0019
    130  CG2      -65.0250  122.7210   -5.4130 C.3   192  VAL192      0.0019
    131  N        -63.6030  127.9390    3.6480 N.3   199  ARG199     -0.1245
    132  CA       -63.7330  126.5080    3.3650 C.3   199  ARG199      0.1563
    133  C        -62.3430  125.9400    3.1100 C.2   199  ARG199      0.2260
    134  O        -61.6850  126.3370    2.1450 O.2   199  ARG199     -0.2867
    135  CB       -64.6370  126.2780    2.1550 C.3   199  ARG199      0.0307
    136  CG       -64.8660  124.8180    1.7110 C.3   199  ARG199      0.0489
    137  CD       -65.5300  124.8960    0.3580 C.3   199  ARG199      0.2205
    138  NE       -66.0350  123.6510   -0.2100 N.pl3 199  ARG199     -0.0865
    139  CZ       -65.2890  122.7440   -0.8370 C.cat 199  ARG199      0.5346
    140  NH1      -63.9730  122.8810   -0.9320 N.pl3 199  ARG199      0.1354
    141  NH2      -65.8700  121.6800   -1.3640 N.pl3 199  ARG199      0.1354
    142  N        -59.7590  122.4940    2.6040 N.3   201  ALA201     -0.1245
    143  CA       -59.6560  121.0850    2.2320 C.3   201  ALA201      0.1562
    144  C        -58.2110  120.7920    1.8560 C.2   201  ALA201      0.2260
    145  O        -57.4670  121.6940    1.4660 O.2   201  ALA201     -0.2867
    146  CB       -60.5900  120.7580    1.0700 C.3   201  ALA201      0.0290
    147  N        -55.9990  118.0360   -0.5690 N.3   203  THR203     -0.1218
    148  CA       -56.0980  117.0390   -1.6210 C.3   203  THR203      0.1862
    149  C        -54.7440  116.4110   -1.9380 C.2   203  THR203      0.2287
    150  O        -53.7310  117.1020   -2.0190 O.2   203  THR203     -0.2866
    151  CB       -56.6480  117.6600   -2.9090 C.3   203  THR203      0.1770
    152  OG1      -57.9580  118.1910   -2.6750 O.3   203  THR203     -0.2211
    153  CG2      -56.7180  116.6240   -4.0290 C.3   203  THR203      0.0375
    154  N        -53.3720  113.5680   -5.0450 N.3   205  TRP205     -0.1241
    155  CA       -53.6890  112.7430   -6.2120 C.3   205  TRP205      0.1605
    156  C        -52.7160  111.5760   -6.2900 C.2   205  TRP205      0.2264
    157  O        -51.4910  111.7650   -6.2050 O.2   205  TRP205     -0.2867
    158  CB       -53.6320  113.5510   -7.5120 C.3   205  TRP205      0.0550
    159  CG       -54.7160  114.5570   -7.6800 C.ar  205  TRP205      0.0003
    160  CD1      -55.9220  114.3550   -8.2890 C.ar  205  TRP205      0.0946
    161  CD2      -54.7030  115.9350   -7.2700 C.ar  205  TRP205      0.0152
    162  NE1      -56.6660  115.5130   -8.2690 N.ar  205  TRP205     -0.2442
    163  CE2      -55.9370  116.5000   -7.6580 C.ar  205  TRP205      0.0810
    164  CE3      -53.7760  116.7440   -6.6060 C.ar  205  TRP205      0.0012
    165  CZ2      -56.2650  117.8330   -7.3990 C.ar  205  TRP205      0.0191
    166  CZ3      -54.1090  118.0730   -6.3560 C.ar  205  TRP205      0.0001
    167  CH2      -55.3300  118.5960   -6.7500 C.ar  205  TRP205      0.0015
@<TRIPOS>BOND
     1    58    59    1
     2    58    57    1
     3    58    61    1
     4    59    60    2
     5    61    62    1
     6    70    69    2
     7    69    68    1
     8    67    68    1
     9    68    71    1
    10    62    64   ar
    11    62    63   ar
    12   114   115    1
    13    64    66   ar
    14    63    65   ar
    15   117   116    2
    16    71    72    1
    17    53    51   ar
    18    53    55   ar
    19    56    55    1
    20     1     2    1
    21   115   116    1
    22   115   118    1
    23    51    50   ar
    24    66    65   ar
    25   120   122   ar
    26   120   119   ar
    27    55    54   ar
    28   122   123   ar
    29    73    72   ar
    30    72    74   ar
    31    47    48    2
    32    47    46    1
    33     7     6    1
    34     7     8    1
    35   119   118    1
    36   119   121   ar
    37     6     5    1
    38     2     5    1
    39     2     3    1
    40   123   121   ar
    41    10     9    1
    42    50    52   ar
    43    50    49    1
    44    54    52   ar
    45    46    49    1
    46    46    45    1
    47     4     3    2
    48     8     9    2
    49   160   162   ar
    50   160   159   ar
    51   162   163   ar
    52     9    11    1
    53   111   109   ar
    54   111   113   ar
    55   109   108   ar
    56   105   106    2
    57   105   104    1
    58   159   158    1
    59   159   161   ar
    60   163   165   ar
    61   163   161   ar
    62   158   155    1
    63   124   125    1
    64   165   167   ar
    65   161   164   ar
    66   113   112   ar
    67   108   107    1
    68   108   110   ar
    69   107   104    1
    70   127   126    2
    71   167   166   ar
    72   104   103    1
    73   164   166   ar
    74   156   155    1
    75   156   157    2
    76   126   125    1
    77   155   154    1
    78    18    17   ar
    79   125   128    1
    80   101   100    1
    81   112   110   ar
    82   128   130    1
    83   128   129    1
    84    26    27    1
    85    26    25    1
    86    44    43    1
    87    17    19   ar
    88    17    16    1
    89    12    13    1
    90    15    14    2
    91    97    98    2
    92    97    96    1
    93   100   102    1
    94   100    99    1
    95    42    43   ar
    96    42    40   ar
    97    96    99    1
    98    96    95    1
    99    43    41   ar
   100   153   151    1
   101    13    14    1
   102    13    16    1
   103    25    24    1
   104    40    38   ar
   105    82    80    1
   106    24    21    1
   107   151   152    1
   108   151   148    1
   109    41    39   ar
   110    80    79    1
   111    38    39   ar
   112    38    37    1
   113   150   149    2
   114    21    20    1
   115    21    22    1
   116   149   148    1
   117   148   147    1
   118    32    29    1
   119    94    93    1
   120   141   139    1
   121    79    81    1
   122    79    76    1
   123    75    76    1
   124    37    34    1
   125   140   139    1
   126    22    23    2
   127   139   138    2
   128    34    33    1
   129    34    35    1
   130    76    77    1
   131    29    28    1
   132    29    30    1
   133   138   137    1
   134    93    91   ar
   135    93    92   ar
   136   137   136    1
   137    91    89   ar
   138    35    36    2
   139    30    31    2
   140    92    90   ar
   141    77    78    2
   142   146   143    1
   143   145   144    2
   144   136   135    1
   145   144   143    1
   146    89    88   ar
   147   134   133    2
   148   135   132    1
   149    90    88   ar
   150   143   142    1
   151    88    87    1
   152   133   132    1
   153   132   131    1
   154    87    84    1
   155    83    84    1
   156    84    85    1
   157    85    86    2
