@<TRIPOS>MOLECULE
tmp/5l9yA03.pdb
 99 94 0 0 0
SMALL
GASTEIGER

@<TRIPOS>ATOM
      1  N        -13.8560   -3.0430   12.1770 N.3    65  ASN65      -0.1225
      2  CA       -13.7020   -2.5350   13.5330 C.3    65  ASN65       0.1785
      3  C        -15.0130   -2.7920   14.2660 C.2    65  ASN65       0.2597
      4  O        -16.0490   -2.2980   13.8420 O.2    65  ASN65      -0.2718
      5  CB       -13.4460   -1.0360   13.4980 C.3    65  ASN65       0.1169
      6  CG       -13.2910   -0.4400   14.8820 C.2    65  ASN65       0.2627
      7  OD1      -12.2430   -0.5670   15.4850 O.2    65  ASN65      -0.2716
      8  ND2      -14.3500    0.1520   15.4100 N.am   65  ASN65      -0.0877
      9  N        -14.9610   -3.4970   15.3970 N.am   66  GLU66      -0.1979
     10  CA       -16.1410   -3.7010   16.2250 C.3    66  GLU66       0.1602
     11  C        -17.3390   -4.1910   15.3940 C.2    66  GLU66       0.2287
     12  O        -18.3890   -3.5260   15.3240 O.2    66  GLU66      -0.2864
     13  CB       -16.4470   -2.4530   17.0760 C.3    66  GLU66       0.0415
     14  CG       -15.5990   -2.4110   18.3470 C.3    66  GLU66       0.1163
     15  CD       -15.4740   -1.0380   18.9980 C.2    66  GLU66       0.3649
     16  OE1      -16.2900   -0.1500   18.7190 O.co2  66  GLU66      -0.2457
     17  OE2      -14.5270   -0.8640   19.8050 O.co2  66  GLU66      -0.2457
     18  N        -15.5930   -5.7130   24.0490 N.3   111  GLN111     -0.1245
     19  CA       -15.4170   -6.5890   25.2020 C.3   111  GLN111      0.1566
     20  C        -16.4870   -7.6740   25.2880 C.2   111  GLN111      0.2260
     21  O        -17.5730   -7.5320   24.7230 O.2   111  GLN111     -0.2867
     22  CB       -15.3060   -5.7860   26.5090 C.3   111  GLN111      0.0367
     23  CG       -16.3810   -4.7700   26.8250 C.3   111  GLN111      0.0905
     24  CD       -15.7830   -3.6420   27.6610 C.2   111  GLN111      0.2608
     25  OE1      -15.6890   -3.7350   28.8740 O.2   111  GLN111     -0.2717
     26  NE2      -15.3490   -2.6050   27.0040 N.am  111  GLN111     -0.0878
     27  N        -19.2260   -9.2230   26.1800 N.3   113  ARG113     -0.1245
     28  CA       -20.6500   -9.4730   26.4600 C.3   113  ARG113      0.1563
     29  C        -21.0880  -10.7460   25.7290 C.2   113  ARG113      0.2260
     30  O        -20.4360  -11.1570   24.7620 O.2   113  ARG113     -0.2867
     31  CB       -21.5110   -8.3270   25.9440 C.3   113  ARG113      0.0307
     32  CG       -21.3310   -7.0060   26.6630 C.3   113  ARG113      0.0489
     33  CD       -21.8910   -5.8520   25.8320 C.3   113  ARG113      0.2205
     34  NE       -20.8550   -4.8420   25.6340 N.pl3 113  ARG113     -0.0865
     35  CZ       -20.4060   -3.9990   26.5690 C.cat 113  ARG113      0.5346
     36  NH1      -19.4400   -3.1320   26.2610 N.pl3 113  ARG113      0.1354
     37  NH2      -20.9090   -4.0060   27.8070 N.pl3 113  ARG113      0.1354
     38  N        -12.7460   -0.8410   27.2410 N.3   139  TYR139     -0.1241
     39  CA       -12.8260    0.5060   27.8790 C.3   139  TYR139      0.1605
     40  C        -13.4090    0.3260   29.2650 C.2   139  TYR139      0.2264
     41  O        -14.3300   -0.4610   29.4400 O.2   139  TYR139     -0.2867
     42  CB       -13.6850    1.4760   27.0370 C.3   139  TYR139      0.0534
     43  CG       -13.4460    1.2780   25.5850 C.ar  139  TYR139     -0.0201
     44  CD1      -14.1460    0.3220   24.9030 C.ar  139  TYR139     -0.0009
     45  CD2      -12.4190    1.9600   24.9150 C.ar  139  TYR139     -0.0009
     46  CE1      -13.8970    0.0600   23.5760 C.ar  139  TYR139      0.0417
     47  CE2      -12.1630    1.7230   23.5710 C.ar  139  TYR139      0.0417
     48  CZ       -12.9000    0.7790   22.9040 C.ar  139  TYR139      0.1957
     49  OH       -12.6610    0.4590   21.5710 O.3   139  TYR139     -0.2866
     50  N         -7.6330   -2.0170   20.7290 N.3   184  GLU184     -0.1245
     51  CA        -8.0510   -0.6290   20.9610 C.3   184  GLU184      0.1567
     52  C         -8.4560   -0.5430   22.3860 C.2   184  GLU184      0.2260
     53  O         -9.3300   -1.3000   22.8290 O.2   184  GLU184     -0.2867
     54  CB        -9.2400   -0.2600   20.0740 C.3   184  GLU184      0.0388
     55  CG        -9.7180    1.1710   20.2000 C.3   184  GLU184      0.1160
     56  CD       -11.0520    1.3980   19.4880 C.2   184  GLU184      0.3649
     57  OE1      -11.4120    0.6590   18.5900 O.co2 184  GLU184     -0.2457
     58  OE2      -11.8700    2.4710   19.8990 O.co2 184  GLU184     -0.2457
     59  N        -14.7500    5.4510   26.7870 N.3   189  TYR189     -0.1227
     60  CA       -15.1690    5.5050   25.3860 C.3   189  TYR189      0.1736
     61  C        -15.9120    6.8390   25.1200 C.2   189  TYR189      0.2596
     62  O        -16.0170    7.7020   26.0100 O.2   189  TYR189     -0.2718
     63  CB       -15.9310    4.2520   24.9350 C.3   189  TYR189      0.0548
     64  CG       -17.2750    4.0320   25.5830 C.ar  189  TYR189     -0.0200
     65  CD1      -18.4000    4.7500   25.1650 C.ar  189  TYR189     -0.0009
     66  CD2      -17.4270    3.1150   26.6400 C.ar  189  TYR189     -0.0009
     67  CE1      -19.6490    4.5570   25.7750 C.ar  189  TYR189      0.0417
     68  CE2      -18.6540    2.9280   27.2510 C.ar  189  TYR189      0.0417
     69  CZ       -19.7630    3.6480   26.8020 C.ar  189  TYR189      0.1957
     70  OH       -20.9700    3.4540   27.3920 O.3   189  TYR189     -0.2866
     71  N        -16.3500    7.0210   23.8900 N.am  190  GLY190     -0.1942
     72  CA       -16.9660    8.2650   23.4530 C.3   190  GLY190      0.2014
     73  C        -15.9670    9.3860   23.3720 C.2   190  GLY190      0.2639
     74  O        -16.3140   10.5440   23.5860 O.2   190  GLY190     -0.2714
     75  N        -14.7150    9.0500   23.1030 N.am  191  GLY191     -0.1954
     76  CA       -13.6670   10.0500   22.9980 C.3   191  GLY191      0.1869
     77  C        -12.9880   10.4630   24.2720 C.2   191  GLY191      0.2309
     78  O        -12.2360   11.4200   24.2650 O.2   191  GLY191     -0.2863
     79  N         -5.6510    3.7270   22.4190 N.3   224  GLN224     -0.1245
     80  CA        -6.5060    4.7160   21.7650 C.3   224  GLN224      0.1566
     81  C         -6.3300    6.0460   22.5390 C.2   224  GLN224      0.2260
     82  O         -6.7080    6.0750   23.6750 O.2   224  GLN224     -0.2867
     83  CB        -7.9550    4.1840   21.8610 C.3   224  GLN224      0.0367
     84  CG        -9.0720    4.9930   21.2480 C.3   224  GLN224      0.0905
     85  CD        -9.1240    4.9930   19.7130 C.2   224  GLN224      0.2608
     86  OE1       -8.5060    4.1670   19.0150 O.2   224  GLN224     -0.2717
     87  NE2       -9.8700    5.9580   19.1830 N.am  224  GLN224     -0.0878
     88  N         -8.4200   11.2210   25.3060 N.3   232  TYR232     -0.1241
     89  CA        -7.5530   10.1170   25.7340 C.3   232  TYR232      0.1605
     90  C         -6.2580   10.0590   24.9460 C.2   232  TYR232      0.2264
     91  O         -5.4850    9.1060   25.0730 O.2   232  TYR232     -0.2867
     92  CB        -8.2830    8.7630   25.7150 C.3   232  TYR232      0.0534
     93  CG        -9.1590    8.4650   24.4900 C.ar  232  TYR232     -0.0201
     94  CD1       -8.8110    8.8840   23.2040 C.ar  232  TYR232     -0.0009
     95  CD2      -10.3740    7.8130   24.6530 C.ar  232  TYR232     -0.0009
     96  CE1       -9.6190    8.6290   22.0990 C.ar  232  TYR232      0.0417
     97  CE2      -11.1760    7.5280   23.5710 C.ar  232  TYR232      0.0417
     98  CZ       -10.8010    7.9430   22.2940 C.ar  232  TYR232      0.1957
     99  OH       -11.5780    7.6750   21.2200 O.3   232  TYR232     -0.2866
@<TRIPOS>BOND
     1     1     2    1
     2     5     2    1
     3     5     6    1
     4     2     3    1
     5     4     3    2
     6     3     9   am
     7     6     8   am
     8     6     7    2
     9    12    11    2
    10    11    10    1
    11     9    10    1
    12    10    13    1
    13    13    14    1
    14    14    15    1
    15    57    56   ar
    16    16    15   ar
    17    15    17   ar
    18    86    85    2
    19    87    85   am
    20    56    58   ar
    21    56    55    1
    22    85    84    1
    23    54    55    1
    24    54    51    1
    25    50    51    1
    26    51    52    1
    27    99    98    1
    28    84    83    1
    29    49    48    1
    30    80    83    1
    31    80    79    1
    32    80    81    1
    33    96    98   ar
    34    96    94   ar
    35    98    97   ar
    36    52    53    2
    37    81    82    2
    38    48    47   ar
    39    48    46   ar
    40    76    75    1
    41    76    77    1
    42    75    73   am
    43    94    93   ar
    44    73    72    1
    45    73    74    2
    46    72    71    1
    47    47    45   ar
    48    97    95   ar
    49    46    44   ar
    50    71    61   am
    51    18    19    1
    52    78    77    2
    53    93    95   ar
    54    93    92    1
    55    21    20    2
    56    30    29    2
    57    44    43   ar
    58    45    43   ar
    59    63    60    1
    60    63    64    1
    61    90    91    2
    62    90    89    1
    63    61    60    1
    64    61    62    2
    65    65    64   ar
    66    65    67   ar
    67    19    20    1
    68    19    22    1
    69    88    89    1
    70    60    59    1
    71    64    66   ar
    72    43    42    1
    73    34    33    1
    74    34    35    2
    75    92    89    1
    76    29    28    1
    77    67    69   ar
    78    33    32    1
    79    31    28    1
    80    31    32    1
    81    27    28    1
    82    36    35    1
    83    22    23    1
    84    35    37    1
    85    66    68   ar
    86    69    68   ar
    87    69    70    1
    88    23    24    1
    89    26    24   am
    90    42    39    1
    91    38    39    1
    92    24    25    2
    93    39    40    1
    94    40    41    2
