@<TRIPOS>MOLECULE
tmp/5l9zA02.pdb
 134 128 0 0 0
SMALL
GASTEIGER

@<TRIPOS>ATOM
      1  N        -17.5590    9.5410   51.2190 N.3    66  ASN66      -0.1225
      2  CA       -17.4070   10.0400   52.5730 C.3    66  ASN66       0.1785
      3  C        -18.7340    9.8250   53.3060 C.2    66  ASN66       0.2597
      4  O        -19.7540   10.3670   52.8750 O.2    66  ASN66      -0.2718
      5  CB       -17.0790   11.5090   52.5140 C.3    66  ASN66       0.1169
      6  CG       -16.9650   12.1290   53.8820 C.2    66  ASN66       0.2627
      7  OD1      -15.9140   12.1000   54.5090 O.2    66  ASN66      -0.2716
      8  ND2      -18.0360   12.6900   54.3360 N.am   66  ASN66      -0.0877
      9  N        -18.7050    9.0960   54.4370 N.am   67  GLU67      -0.1979
     10  CA       -19.8860    8.8810   55.2470 C.3    67  GLU67       0.1602
     11  C        -21.0670    8.3770   54.3910 C.2    67  GLU67       0.2287
     12  O        -22.1530    8.9930   54.3640 O.2    67  GLU67      -0.2864
     13  CB       -20.2010   10.0940   56.1050 C.3    67  GLU67       0.0415
     14  CG       -19.0690   10.3270   57.1160 C.3    67  GLU67       0.1163
     15  CD       -19.1130   11.6230   57.9170 C.2    67  GLU67       0.3649
     16  OE1      -20.0920   12.3960   57.7790 O.co2  67  GLU67      -0.2457
     17  OE2      -18.1240   11.8510   58.6950 O.co2  67  GLU67      -0.2457
     18  N        -24.7890    8.2570   55.5900 N.3    70  SER70      -0.1217
     19  CA       -25.6060    9.4770   55.5090 C.3    70  SER70       0.1889
     20  C        -26.1280    9.8400   54.1070 C.2    70  SER70       0.2288
     21  O        -26.7710   10.8710   53.9430 O.2    70  SER70      -0.2866
     22  CB       -24.7480   10.6670   55.9780 C.3    70  SER70       0.2089
     23  OG       -24.8230   10.8540   57.3690 O.3    70  SER70      -0.2183
     24  N        -29.9570   10.8470   53.7610 N.3    73  LYS73      -0.1245
     25  CA       -30.2290   12.1790   54.2940 C.3    73  LYS73       0.1561
     26  C        -29.6500   13.2950   53.4190 C.2    73  LYS73       0.2260
     27  O        -30.2870   14.3260   53.2200 O.2    73  LYS73      -0.2867
     28  CB       -29.6540   12.2590   55.7080 C.3    73  LYS73       0.0271
     29  CG       -29.8190   13.5820   56.4550 C.3    73  LYS73       0.0035
     30  CD       -28.7300   13.7190   57.5160 C.3    73  LYS73       0.0206
     31  CE       -28.9620   14.9110   58.4350 C.3    73  LYS73       0.1093
     32  NZ       -29.9820   14.6130   59.4770 N.3    73  LYS73      -0.1314
     33  N        -19.1860    6.9760   62.9720 N.3   112  GLN112     -0.1245
     34  CA       -18.9440    6.1460   64.1190 C.3   112  GLN112      0.1566
     35  C        -20.0950    5.1010   64.3040 C.2   112  GLN112      0.2260
     36  O        -21.1990    5.3190   63.7860 O.2   112  GLN112     -0.2867
     37  CB       -18.6980    7.0180   65.3290 C.3   112  GLN112      0.0367
     38  CG       -19.8620    7.9310   65.7070 C.3   112  GLN112      0.0905
     39  CD       -19.3610    9.2310   66.3470 C.2   112  GLN112      0.2608
     40  OE1      -18.7830   10.0900   65.6690 O.2   112  GLN112     -0.2717
     41  NE2      -19.5560    9.3710   67.6640 N.am  112  GLN112     -0.0878
     42  N        -22.8830    3.5080   65.1670 N.3   114  ARG114     -0.1245
     43  CA       -24.3220    3.2280   65.4040 C.3   114  ARG114      0.1563
     44  C        -24.8270    1.9350   64.7300 C.2   114  ARG114      0.2260
     45  O        -24.2000    1.4420   63.8070 O.2   114  ARG114     -0.2867
     46  CB       -25.1500    4.3710   64.8210 C.3   114  ARG114      0.0307
     47  CG       -25.1370    5.5930   65.6810 C.3   114  ARG114      0.0489
     48  CD       -25.5130    6.8110   64.8710 C.3   114  ARG114      0.2205
     49  NE       -25.7350    7.9330   65.7810 N.pl3 114  ARG114     -0.0865
     50  CZ       -24.7780    8.5890   66.4550 C.cat 114  ARG114      0.5346
     51  NH1      -23.4850    8.2650   66.3420 N.pl3 114  ARG114      0.1354
     52  NH2      -25.1170    9.5950   67.2600 N.pl3 114  ARG114      0.1354
     53  N        -16.5560   11.9330   66.1540 N.3   140  TYR140     -0.1227
     54  CA       -16.6150   13.2130   66.8440 C.3   140  TYR140      0.1736
     55  C        -17.2260   12.9260   68.2080 C.2   140  TYR140      0.2595
     56  O        -18.0230   11.9920   68.3290 O.2   140  TYR140     -0.2718
     57  CB       -17.5560   14.1860   66.0860 C.3   140  TYR140      0.0548
     58  CG       -17.0730   14.5190   64.6880 C.ar  140  TYR140     -0.0200
     59  CD1      -17.3710   13.6950   63.6020 C.ar  140  TYR140     -0.0009
     60  CD2      -16.2300   15.6370   64.4560 C.ar  140  TYR140     -0.0009
     61  CE1      -16.8370   13.9900   62.3210 C.ar  140  TYR140      0.0417
     62  CE2      -15.6950   15.9140   63.1900 C.ar  140  TYR140      0.0417
     63  CZ       -15.9640   15.0790   62.1400 C.ar  140  TYR140      0.1957
     64  OH       -15.4070   15.4300   60.8930 O.3   140  TYR140     -0.2866
     65  N        -16.8430   13.6660   69.2580 N.am  141  TYR141     -0.1962
     66  CA       -17.4680   13.4770   70.5590 C.3   141  TYR141      0.1771
     67  C        -18.8540   14.0930   70.6850 C.2   141  TYR141      0.2619
     68  O        -19.7450   13.5040   71.3170 O.2   141  TYR141     -0.2715
     69  CB       -16.5600   14.0570   71.6450 C.3   141  TYR141      0.0574
     70  CG       -15.2220   13.3810   71.8350 C.ar  141  TYR141     -0.0198
     71  CD1      -14.1260   13.7930   71.1310 C.ar  141  TYR141     -0.0009
     72  CD2      -15.0600   12.3310   72.7660 C.ar  141  TYR141     -0.0009
     73  CE1      -12.9000   13.2480   71.3250 C.ar  141  TYR141      0.0417
     74  CE2      -13.8070   11.7390   72.9500 C.ar  141  TYR141      0.0417
     75  CZ       -12.7290   12.2100   72.2060 C.ar  141  TYR141      0.1957
     76  OH       -11.4530   11.6860   72.3450 O.3   141  TYR141     -0.2866
     77  N        -19.0080   15.2880   70.1160 N.am  142  LEU142     -0.1977
     78  CA       -20.1180   16.1980   70.4280 C.3   142  LEU142      0.1596
     79  C        -20.5550   16.9620   69.2060 C.2   142  LEU142      0.2287
     80  O        -19.8340   17.0600   68.2500 O.2   142  LEU142     -0.2864
     81  CB       -19.6550   17.2820   71.4260 C.3   142  LEU142      0.0297
     82  CG       -19.1040   16.8640   72.7850 C.3   142  LEU142      0.0022
     83  CD1      -18.1560   17.9150   73.3520 C.3   142  LEU142      0.0001
     84  CD2      -20.2440   16.6300   73.7430 C.3   142  LEU142      0.0001
     85  N        -11.0810   10.5480   59.6440 N.3   185  GLN185     -0.1245
     86  CA       -11.5210   11.9150   59.8310 C.3   185  GLN185      0.1566
     87  C        -12.0180   12.0150   61.2540 C.2   185  GLN185      0.2260
     88  O        -12.9450   11.2790   61.6150 O.2   185  GLN185     -0.2867
     89  CB       -12.6660   12.2580   58.8820 C.3   185  GLN185      0.0367
     90  CG       -13.1860   13.7020   59.0400 C.3   185  GLN185      0.0905
     91  CD       -14.5310   13.8450   58.3770 C.2   185  GLN185      0.2608
     92  OE1      -15.5800   13.6820   59.0260 O.2   185  GLN185     -0.2717
     93  NE2      -14.5210   14.1080   57.1130 N.am  185  GLN185     -0.0878
     94  N        -18.6290   18.0860   65.7480 N.3   190  TYR190     -0.1227
     95  CA       -19.0530   18.2650   64.3680 C.3   190  TYR190      0.1736
     96  C        -19.8030   19.6140   64.2530 C.2   190  TYR190      0.2596
     97  O        -19.7990   20.4020   65.1830 O.2   190  TYR190     -0.2718
     98  CB       -19.8510   17.0690   63.8390 C.3   190  TYR190      0.0548
     99  CG       -21.1060   16.7750   64.5790 C.ar  190  TYR190     -0.0200
    100  CD1      -22.2890   17.4480   64.2630 C.ar  190  TYR190     -0.0009
    101  CD2      -21.1550   15.7980   65.5680 C.ar  190  TYR190     -0.0009
    102  CE1      -23.4740   17.1740   64.9130 C.ar  190  TYR190      0.0417
    103  CE2      -22.3300   15.5460   66.2450 C.ar  190  TYR190      0.0417
    104  CZ       -23.4870   16.2360   65.8900 C.ar  190  TYR190      0.1957
    105  OH       -24.6310   15.9570   66.5100 O.3   190  TYR190     -0.2866
    106  N        -20.3760   19.8720   63.0970 N.am  191  GLY191     -0.1942
    107  CA       -20.9280   21.1890   62.7580 C.3   191  GLY191      0.2014
    108  C        -19.8420   22.2220   62.6260 C.2   191  GLY191      0.2639
    109  O        -20.0490   23.3820   62.9840 O.2   191  GLY191     -0.2714
    110  N        -18.6820   21.8230   62.1270 N.am  192  GLY192     -0.1954
    111  CA       -17.5280   22.7230   62.0300 C.3   192  GLY192      0.1869
    112  C        -16.7630   23.0260   63.3150 C.2   192  GLY192      0.2309
    113  O        -15.8340   23.8090   63.2960 O.2   192  GLY192     -0.2863
    114  N         -9.2330   16.2290   61.4910 N.3   225  GLN225     -0.1245
    115  CA       -10.0860   17.2090   60.8350 C.3   225  GLN225      0.1566
    116  C         -9.9750   18.5160   61.6010 C.2   225  GLN225      0.2260
    117  O        -10.3440   18.5450   62.7770 O.2   225  GLN225     -0.2867
    118  CB       -11.5620   16.6880   60.8540 C.3   225  GLN225      0.0367
    119  CG       -12.5860   17.6620   60.3190 C.3   225  GLN225      0.0905
    120  CD       -12.7890   17.5020   58.8260 C.2   225  GLN225      0.2608
    121  OE1      -11.9810   16.8380   58.1490 O.2   225  GLN225     -0.2717
    122  NE2      -13.9020   18.0750   58.2800 N.am  225  GLN225     -0.0878
    123  N        -12.2940   23.6330   64.4310 N.3   233  TYR233     -0.1241
    124  CA       -11.4120   22.5370   64.7820 C.3   233  TYR233      0.1605
    125  C        -10.1290   22.5360   63.9720 C.2   233  TYR233      0.2264
    126  O         -9.3270   21.6130   64.0620 O.2   233  TYR233     -0.2867
    127  CB       -12.1610   21.1720   64.6940 C.3   233  TYR233      0.0534
    128  CG       -13.0390   20.9390   63.5000 C.ar  233  TYR233     -0.0201
    129  CD1      -12.6330   21.2650   62.2230 C.ar  233  TYR233     -0.0009
    130  CD2      -14.2700   20.3280   63.6420 C.ar  233  TYR233     -0.0009
    131  CE1      -13.4300   21.0360   61.1310 C.ar  233  TYR233      0.0417
    132  CE2      -15.0790   20.0230   62.5630 C.ar  233  TYR233      0.0417
    133  CZ       -14.6900   20.4160   61.2910 C.ar  233  TYR233      0.1957
    134  OH       -15.4920   20.1450   60.2170 O.3   233  TYR233     -0.2866
@<TRIPOS>BOND
     1     1     2    1
     2     5     2    1
     3     5     6    1
     4     2     3    1
     5     4     3    2
     6    27    26    2
     7     3     9   am
     8    26    25    1
     9    24    25    1
    10     6     8   am
    11     6     7    2
    12    21    20    2
    13    20    19    1
    14    25    28    1
    15    12    11    2
    16    11    10    1
    17     9    10    1
    18    10    13    1
    19    19    18    1
    20    19    22    1
    21    28    29    1
    22    22    23    1
    23    13    14    1
    24    29    30    1
    25    93    91   am
    26    14    15    1
    27    30    31    1
    28    16    15   ar
    29    15    17   ar
    30   121   120    2
    31   122   120   am
    32    91    92    2
    33    91    90    1
    34    31    32    1
    35   120   119    1
    36    89    90    1
    37    89    86    1
    38    85    86    1
    39    86    87    1
    40   134   133    1
    41   119   118    1
    42   115   118    1
    43   115   114    1
    44   115   116    1
    45    64    63    1
    46   131   133   ar
    47   131   129   ar
    48    87    88    2
    49   133   132   ar
    50   116   117    2
    51   111   110    1
    52   111   112    1
    53   110   108   am
    54    63    61   ar
    55    63    62   ar
    56   129   128   ar
    57    61    59   ar
    58   132   130   ar
    59   108   107    1
    60   108   109    2
    61   107   106    1
    62    33    34    1
    63   106    96   am
    64    62    60   ar
    65   113   112    2
    66   128   130   ar
    67   128   127    1
    68    59    58   ar
    69    36    35    2
    70    45    44    2
    71    98    95    1
    72    98    99    1
    73   125   126    2
    74   125   124    1
    75    34    35    1
    76    34    37    1
    77    96    95    1
    78    96    97    2
    79   100    99   ar
    80   100   102   ar
    81    95    94    1
    82   123   124    1
    83    60    58   ar
    84    99   101   ar
    85    58    57    1
    86   127   124    1
    87    44    43    1
    88    46    43    1
    89    46    47    1
    90    48    47    1
    91    48    49    1
    92   102   104   ar
    93    42    43    1
    94    37    38    1
    95   101   103   ar
    96    40    39    2
    97    38    39    1
    98    49    50    2
    99   104   103   ar
   100   104   105    1
   101    57    54    1
   102    53    54    1
   103    51    50    1
   104    39    41   am
   105    50    52    1
   106    54    55    1
   107    55    56    2
   108    55    65   am
   109    80    79    2
   110    79    78    1
   111    65    66    1
   112    77    78    1
   113    77    67   am
   114    78    81    1
   115    66    67    1
   116    66    69    1
   117    67    68    2
   118    71    73   ar
   119    71    70   ar
   120    73    75   ar
   121    81    82    1
   122    69    70    1
   123    70    72   ar
   124    75    76    1
   125    75    74   ar
   126    72    74   ar
   127    82    83    1
   128    82    84    1
