@<TRIPOS>MOLECULE
tmp/5la1A00.pdb
 121 116 0 0 0
SMALL
GASTEIGER

@<TRIPOS>ATOM
      1  N          8.6430  -20.7800   -3.2740 N.3    30  TYR30      -0.1241
      2  CA         8.3480  -20.3960   -1.8960 C.3    30  TYR30       0.1605
      3  C          7.6560  -21.4600   -1.0950 C.2    30  TYR30       0.2264
      4  O          7.0850  -22.4160   -1.6350 O.2    30  TYR30      -0.2867
      5  CB         7.4960  -19.1120   -1.8390 C.3    30  TYR30       0.0534
      6  CG         5.9940  -19.3120   -2.0560 C.ar   30  TYR30      -0.0201
      7  CD1        5.4580  -19.3550   -3.3410 C.ar   30  TYR30      -0.0009
      8  CD2        5.1130  -19.4630   -0.9840 C.ar   30  TYR30      -0.0009
      9  CE1        4.1070  -19.5580   -3.5580 C.ar   30  TYR30       0.0417
     10  CE2        3.7470  -19.6590   -1.1990 C.ar   30  TYR30       0.0417
     11  CZ         3.2580  -19.6800   -2.4910 C.ar   30  TYR30       0.1957
     12  OH         1.9110  -19.8450   -2.7650 O.3    30  TYR30      -0.2866
     13  N          5.5220  -21.5910    3.1290 N.3    32  SER32      -0.1217
     14  CA         5.0320  -20.8460    4.2680 C.3    32  SER32       0.1889
     15  C          4.9600  -21.7180    5.5340 C.2    32  SER32       0.2288
     16  O          4.5130  -22.8730    5.4660 O.2    32  SER32      -0.2866
     17  CB         3.5960  -20.3240    3.9920 C.3    32  SER32       0.2089
     18  OG         3.0250  -19.6470    5.1180 O.3    32  SER32      -0.2183
     19  N          3.4070  -19.8820    8.1410 N.3    34  GLU34      -0.1231
     20  CA         2.5190  -18.9050    8.7800 C.3    34  GLU34       0.1699
     21  C          1.3330  -19.5380    9.5350 C.2    34  GLU34       0.2592
     22  O          0.9180  -19.0300   10.5830 O.2    34  GLU34      -0.2718
     23  CB         1.9720  -17.9220    7.7400 C.3    34  GLU34       0.0402
     24  CG         3.0720  -17.0240    7.1150 C.3    34  GLU34       0.1161
     25  CD         2.5990  -16.4420    5.8150 C.2    34  GLU34       0.3649
     26  OE1        2.3690  -17.2140    4.8410 O.co2  34  GLU34      -0.2457
     27  OE2        2.3740  -15.2260    5.7970 O.co2  34  GLU34      -0.2457
     28  N          0.7970  -20.6240    8.9830 N.am   35  TRP35      -0.1976
     29  CA        -0.2470  -21.3870    9.6580 C.3    35  TRP35       0.1640
     30  C         -0.1670  -22.8830    9.3980 C.2    35  TRP35       0.2290
     31  O         -1.1170  -23.6170    9.6940 O.2    35  TRP35      -0.2864
     32  CB        -1.6530  -20.8190    9.3180 C.3    35  TRP35       0.0576
     33  CG        -2.0280  -20.9460    7.9000 C.ar   35  TRP35       0.0006
     34  CD1       -2.6520  -22.0150    7.2680 C.ar   35  TRP35       0.0946
     35  CD2       -1.8340  -19.9580    6.9160 C.ar   35  TRP35       0.0152
     36  NE1       -2.8190  -21.7390    5.9260 N.ar   35  TRP35      -0.2442
     37  CE2       -2.3140  -20.4870    5.6810 C.ar   35  TRP35       0.0810
     38  CE3       -1.2730  -18.6820    6.9420 C.ar   35  TRP35       0.0012
     39  CZ2       -2.2340  -19.7690    4.4890 C.ar   35  TRP35       0.0191
     40  CZ3       -1.1990  -17.9650    5.7500 C.ar   35  TRP35       0.0001
     41  CH2       -1.6810  -18.5020    4.5500 C.ar   35  TRP35       0.0015
     42  N          7.8070  -17.3570    3.7620 N.3    58  TYR58      -0.1241
     43  CA         6.9140  -16.4510    4.4940 C.3    58  TYR58       0.1605
     44  C          6.7550  -17.1370    5.8480 C.2    58  TYR58       0.2264
     45  O          6.0690  -18.1430    5.9440 O.2    58  TYR58      -0.2867
     46  CB         5.5730  -16.2870    3.7670 C.3    58  TYR58       0.0534
     47  CG         5.7130  -15.7570    2.3570 C.ar   58  TYR58      -0.0201
     48  CD1        5.9680  -16.6110    1.2850 C.ar   58  TYR58      -0.0009
     49  CD2        5.5990  -14.4080    2.0880 C.ar   58  TYR58      -0.0009
     50  CE1        6.0930  -16.1120   -0.0080 C.ar   58  TYR58       0.0417
     51  CE2        5.7350  -13.9020    0.7950 C.ar   58  TYR58       0.0417
     52  CZ         5.9870  -14.7620   -0.2400 C.ar   58  TYR58       0.1957
     53  OH         6.1410  -14.2720   -1.5060 O.3    58  TYR58      -0.2866
     54  N          5.1780  -12.3780    6.3630 N.3   100  GLY100     -0.1210
     55  CA         4.0380  -12.3710    5.4700 C.3   100  GLY100      0.1956
     56  C          2.8950  -11.5600    6.0040 C.2   100  GLY100      0.2612
     57  O          2.9740  -11.0430    7.0990 O.2   100  GLY100     -0.2717
     58  N          1.8470  -11.4240    5.2040 N.am  101  ASN101     -0.1960
     59  CA         0.7540  -10.5070    5.5250 C.3   101  ASN101      0.1819
     60  C         -0.6390  -11.0840    5.5760 C.2   101  ASN101      0.2621
     61  O         -1.5550  -10.3830    6.0290 O.2   101  ASN101     -0.2715
     62  CB         0.6470   -9.3900    4.4980 C.3   101  ASN101      0.1195
     63  CG         1.9970   -8.7760    4.1300 C.2   101  ASN101      0.2630
     64  OD1        2.9380   -9.4850    3.7390 O.2   101  ASN101     -0.2716
     65  ND2        2.0880   -7.4690    4.2310 N.am  101  ASN101     -0.0877
     66  N         -0.8440  -12.2830    5.0510 N.am  102  GLY102     -0.1954
     67  CA        -2.1710  -12.9060    5.1560 C.3   102  GLY102      0.1869
     68  C         -3.1710  -12.1560    4.3130 C.2   102  GLY102      0.2309
     69  O         -2.9360  -11.9700    3.1280 O.2   102  GLY102     -0.2863
     70  N         -2.0030   -7.7820    2.7430 N.3   105  ASN105     -0.1240
     71  CA        -0.9240   -7.3080    1.8400 C.3   105  ASN105      0.1653
     72  C         -1.0730   -5.8120    1.6230 C.2   105  ASN105      0.2266
     73  O         -2.1820   -5.2610    1.6560 O.2   105  ASN105     -0.2867
     74  CB        -0.8950   -8.0200    0.5020 C.3   105  ASN105      0.1155
     75  CG        -0.4030   -9.4470    0.6220 C.2   105  ASN105      0.2627
     76  OD1        0.5920   -9.7460    1.2750 O.2   105  ASN105     -0.2716
     77  ND2       -1.1160  -10.3360    0.0030 N.am  105  ASN105     -0.0877
     78  N          7.3000   -8.3890    3.7720 N.3   136  ASN136     -0.1225
     79  CA         6.6120   -8.4910    2.5290 C.3   136  ASN136      0.1785
     80  C          5.6510   -7.3160    2.3600 C.2   136  ASN136      0.2597
     81  O          4.9980   -6.8830    3.3330 O.2   136  ASN136     -0.2718
     82  CB         5.8240   -9.8120    2.4840 C.3   136  ASN136      0.1169
     83  CG         5.2030  -10.0560    1.1600 C.2   136  ASN136      0.2627
     84  OD1        5.9030  -10.2820    0.1720 O.2   136  ASN136     -0.2716
     85  ND2        3.8780  -10.0810    1.1180 N.am  136  ASN136     -0.0877
     86  N          5.5690   -6.8210    1.1270 N.am  137  GLU137     -0.1979
     87  CA         4.5690   -5.8170    0.6660 C.3   137  GLU137      0.1602
     88  C          3.9530   -4.9340    1.7810 C.2   137  GLU137      0.2287
     89  O          2.7580   -5.0620    2.1070 O.2   137  GLU137     -0.2864
     90  CB         3.4590   -6.5390   -0.1240 C.3   137  GLU137      0.0415
     91  CG         3.9720   -7.2740   -1.3520 C.3   137  GLU137      0.1163
     92  CD         2.8800   -7.8170   -2.2790 C.2   137  GLU137      0.3649
     93  OE1        1.6800   -7.7320   -1.9260 O.co2 137  GLU137     -0.2457
     94  OE2        3.2120   -8.3140   -3.3960 O.co2 137  GLU137     -0.2457
     95  N          8.9510  -12.0720   -5.4100 N.3   245  GLU245     -0.1245
     96  CA         7.6290  -12.6260   -5.6710 C.3   245  GLU245      0.1567
     97  C          7.0660  -12.1620   -6.9810 C.2   245  GLU245      0.2260
     98  O          6.9240  -10.9640   -7.1940 O.2   245  GLU245     -0.2867
     99  CB         6.6360  -12.2890   -4.5380 C.3   245  GLU245      0.0388
    100  CG         5.3480  -13.1150   -4.5830 C.3   245  GLU245      0.1160
    101  CD         4.2690  -12.5830   -3.6580 C.2   245  GLU245      0.3649
    102  OE1        4.5190  -12.5280   -2.4260 O.co2 245  GLU245     -0.2457
    103  OE2        3.1460  -12.2540   -4.1280 O.co2 245  GLU245     -0.2457
    104  N          6.5340  -17.1830   -7.4230 N.3   268  PHE268     -0.1241
    105  CA         5.3880  -17.4220   -6.5400 C.3   268  PHE268      0.1605
    106  C          4.6270  -18.7000   -6.8770 C.2   268  PHE268      0.2264
    107  O          3.4100  -18.6940   -7.1010 O.2   268  PHE268     -0.2867
    108  CB         4.4660  -16.1740   -6.5230 C.3   268  PHE268      0.0534
    109  CG         3.5180  -16.1230   -5.3450 C.ar  268  PHE268     -0.0203
    110  CD1        3.9910  -16.2220   -4.0550 C.ar  268  PHE268     -0.0042
    111  CD2        2.1780  -15.8780   -5.5470 C.ar  268  PHE268     -0.0042
    112  CE1        3.1370  -16.1360   -2.9690 C.ar  268  PHE268     -0.0003
    113  CE2        1.2930  -15.7930   -4.4750 C.ar  268  PHE268     -0.0003
    114  CZ         1.7800  -15.9040   -3.1750 C.ar  268  PHE268     -0.0000
    115  N         -0.7850  -20.7640   -1.2200 N.3   276  VAL276     -0.1245
    116  CA        -1.9390  -19.9420   -1.6600 C.3   276  VAL276      0.1561
    117  C         -2.0590  -19.7460   -3.1680 C.2   276  VAL276      0.2260
    118  O         -3.0460  -19.1320   -3.6260 O.2   276  VAL276     -0.2867
    119  CB        -1.9690  -18.5590   -0.9720 C.3   276  VAL276      0.0252
    120  CG1       -2.1430  -18.7420    0.5400 C.3   276  VAL276      0.0019
    121  CG2       -0.7300  -17.7340   -1.3020 C.3   276  VAL276      0.0019
@<TRIPOS>BOND
     1   104   105    1
     2    98    97    2
     3   107   106    2
     4    97    96    1
     5   106   105    1
     6   105   108    1
     7   108   109    1
     8    96    95    1
     9    96    99    1
    10   111   109   ar
    11   111   113   ar
    12   109   110   ar
    13   100    99    1
    14   100   101    1
    15   113   114   ar
    16   103   101   ar
    17   110   112   ar
    18   101   102   ar
    19   118   117    2
    20     9     7   ar
    21     9    11   ar
    22    94    92   ar
    23     7     6   ar
    24     1     2    1
    25   114   112   ar
    26   117   116    1
    27    12    11    1
    28    11    10   ar
    29    92    93   ar
    30    92    91    1
    31     6     5    1
    32     6     8   ar
    33     2     5    1
    34     2     3    1
    35   116   115    1
    36   116   119    1
    37     4     3    2
    38    53    52    1
    39    91    90    1
    40   121   119    1
    41    10     8   ar
    42   119   120    1
    43    52    50   ar
    44    52    51   ar
    45    90    87    1
    46    50    48   ar
    47    77    75   am
    48    84    83    2
    49    74    75    1
    50    74    71    1
    51    75    76    2
    52    87    86    1
    53    87    88    1
    54    51    49   ar
    55    85    83   am
    56    86    80   am
    57    83    82    1
    58    48    47   ar
    59    72    73    2
    60    72    71    1
    61    88    89    2
    62    71    70    1
    63    49    47   ar
    64    47    46    1
    65    80    79    1
    66    80    81    2
    67    82    79    1
    68    79    78    1
    69    69    68    2
    70    13    14    1
    71    64    63    2
    72    42    43    1
    73    46    43    1
    74    17    14    1
    75    17    18    1
    76    63    65   am
    77    63    62    1
    78    14    15    1
    79    68    67    1
    80    39    41   ar
    81    39    37   ar
    82    43    44    1
    83    62    59    1
    84    41    40   ar
    85    26    25   ar
    86    66    67    1
    87    66    60   am
    88    58    59    1
    89    58    56   am
    90    16    15    2
    91    55    56    1
    92    55    54    1
    93    59    60    1
    94    60    61    2
    95    37    36   ar
    96    37    35   ar
    97    40    38   ar
    98    27    25   ar
    99    25    24    1
   100    44    45    2
   101    36    34   ar
   102    56    57    2
   103    35    38   ar
   104    35    33   ar
   105    24    23    1
   106    34    33   ar
   107    23    20    1
   108    33    32    1
   109    19    20    1
   110    20    21    1
   111    28    21   am
   112    28    29    1
   113    32    29    1
   114    30    29    1
   115    30    31    2
   116    21    22    2
