@<TRIPOS>MOLECULE
tmp/5la1A02.pdb
 101 94 0 0 0
SMALL
GASTEIGER

@<TRIPOS>ATOM
      1  N         13.2080  -14.2690  -18.1110 N.3   256  TYR256     -0.1241
      2  CA        14.1790  -13.9840  -19.1780 C.3   256  TYR256      0.1605
      3  C         14.9090  -12.6640  -18.9630 C.2   256  TYR256      0.2264
      4  O         16.1630  -12.6020  -19.0700 O.2   256  TYR256     -0.2867
      5  CB        13.4850  -14.0070  -20.5480 C.3   256  TYR256      0.0534
      6  CG        14.4070  -13.6320  -21.7000 C.ar  256  TYR256     -0.0201
      7  CD1       15.2460  -14.5690  -22.2770 C.ar  256  TYR256     -0.0009
      8  CD2       14.4350  -12.3530  -22.2030 C.ar  256  TYR256     -0.0009
      9  CE1       16.0850  -14.2370  -23.3360 C.ar  256  TYR256      0.0417
     10  CE2       15.2790  -12.0030  -23.2520 C.ar  256  TYR256      0.0417
     11  CZ        16.1000  -12.9550  -23.8260 C.ar  256  TYR256      0.1957
     12  OH        16.9540  -12.6010  -24.8650 O.3   256  TYR256     -0.2866
     13  N         17.2180  -12.8380  -15.7700 N.3   259  GLU259     -0.1245
     14  CA        18.4140  -13.5860  -16.1720 C.3   259  GLU259      0.1567
     15  C         19.3860  -12.7030  -16.9430 C.2   259  GLU259      0.2260
     16  O         20.5800  -12.6850  -16.6200 O.2   259  GLU259     -0.2867
     17  CB        18.0590  -14.8470  -16.9610 C.3   259  GLU259      0.0388
     18  CG        17.4330  -15.9200  -16.0960 C.3   259  GLU259      0.1160
     19  CD        18.4130  -16.4710  -15.0690 C.2   259  GLU259      0.3649
     20  OE1       19.5390  -16.8410  -15.4520 O.co2 259  GLU259     -0.2457
     21  OE2       18.0670  -16.5480  -13.8730 O.co2 259  GLU259     -0.2457
     22  N         12.5450  -22.4440  -24.0090 N.3   294  GLY294     -0.1210
     23  CA        13.9880  -22.4170  -24.2170 C.3   294  GLY294      0.1956
     24  C         14.7740  -21.6950  -23.1280 C.2   294  GLY294      0.2612
     25  O         16.0060  -21.6160  -23.1930 O.2   294  GLY294     -0.2717
     26  N         14.0980  -21.2200  -22.0840 N.am  295  LEU295     -0.1965
     27  CA        14.7960  -20.5740  -20.9830 C.3   295  LEU295      0.1728
     28  C         15.8230  -21.5430  -20.3690 C.2   295  LEU295      0.2616
     29  O         15.5380  -22.7360  -20.1950 O.2   295  LEU295     -0.2715
     30  CB        13.7400  -20.1550  -19.9520 C.3   295  LEU295      0.0311
     31  CG        13.9650  -19.1540  -18.8520 C.3   295  LEU295      0.0022
     32  CD1       14.4990  -17.8380  -19.3890 C.3   295  LEU295      0.0001
     33  CD2       12.5960  -18.9910  -18.1710 C.3   295  LEU295      0.0001
     34  N         17.0230  -21.0550  -20.0710 N.am  296  SER296     -0.1950
     35  CA        17.9960  -21.8930  -19.3980 C.3   296  SER296      0.1924
     36  C         18.9490  -21.0410  -18.5490 C.2   296  SER296      0.2314
     37  O         19.2120  -19.8620  -18.8370 O.2   296  SER296     -0.2863
     38  CB        18.7640  -22.7310  -20.4310 C.3   296  SER296      0.2116
     39  OG        19.6720  -23.6430  -19.8140 O.3   296  SER296     -0.2180
     40  N         22.3330  -24.7600  -22.7420 N.3   308  ARG308     -0.1231
     41  CA        21.9830  -24.4520  -24.1300 C.3   308  ARG308      0.1694
     42  C         21.9800  -22.9470  -24.3110 C.2   308  ARG308      0.2593
     43  O         21.9590  -22.1870  -23.3300 O.2   308  ARG308     -0.2718
     44  CB        20.5940  -25.0410  -24.5120 C.3   308  ARG308      0.0321
     45  CG        19.4190  -24.4580  -23.7130 C.3   308  ARG308      0.0489
     46  CD        18.0540  -24.9950  -24.0780 C.3   308  ARG308      0.2205
     47  NE        17.7390  -24.8270  -25.5120 N.pl3 308  ARG308     -0.0865
     48  CZ        17.3700  -25.8090  -26.3440 C.cat 308  ARG308      0.5346
     49  NH1       17.2070  -27.0540  -25.9120 N.pl3 308  ARG308      0.1354
     50  NH2       17.1210  -25.5430  -27.6130 N.pl3 308  ARG308      0.1354
     51  N         21.9020  -22.5140  -25.5570 N.am  309  GLY309     -0.1942
     52  CA        21.7540  -21.0880  -25.8410 C.3   309  GLY309      0.2014
     53  C         21.5280  -20.7960  -27.2950 C.2   309  GLY309      0.2638
     54  O         21.6000  -21.6910  -28.1600 O.2   309  GLY309     -0.2714
     55  N         21.2830  -19.5310  -27.5700 N.am  310  VAL310     -0.1977
     56  CA        21.0770  -19.0550  -28.9300 C.3   310  VAL310      0.1596
     57  C         22.4140  -18.9200  -29.5950 C.2   310  VAL310      0.2287
     58  O         23.3620  -18.3920  -29.0010 O.2   310  VAL310     -0.2864
     59  CB        20.3650  -17.6870  -28.9210 C.3   310  VAL310      0.0276
     60  CG1       20.3960  -16.9950  -30.2850 C.3   310  VAL310      0.0022
     61  CG2       18.9310  -17.8650  -28.4740 C.3   310  VAL310      0.0022
     62  N         23.5640  -13.9460  -28.4220 N.3   315  GLY315     -0.1210
     63  CA        22.9740  -14.8040  -27.4080 C.3   315  GLY315      0.1956
     64  C         21.5580  -14.4530  -26.9770 C.2   315  GLY315      0.2612
     65  O         21.0280  -15.1130  -26.0970 O.2   315  GLY315     -0.2717
     66  N         20.9380  -13.4390  -27.5990 N.am  316  LEU316     -0.1965
     67  CA        19.5950  -13.0290  -27.2570 C.3   316  LEU316      0.1728
     68  C         18.5820  -13.8460  -28.0690 C.2   316  LEU316      0.2616
     69  O         18.8120  -14.1580  -29.2250 O.2   316  LEU316     -0.2715
     70  CB        19.3870  -11.5500  -27.5770 C.3   316  LEU316      0.0311
     71  CG        20.3280  -10.5240  -26.9180 C.3   316  LEU316      0.0022
     72  CD1       19.9310   -9.1060  -27.3280 C.3   316  LEU316      0.0001
     73  CD2       20.3240  -10.7130  -25.4100 C.3   316  LEU316      0.0001
     74  N         17.4380  -14.1350  -27.4820 N.am  317  ALA317     -0.1977
     75  CA        16.3700  -14.8100  -28.2270 C.3   317  ALA317      0.1597
     76  C         16.0910  -13.9880  -29.4620 C.2   317  ALA317      0.2287
     77  O         16.0770  -12.7500  -29.3850 O.2   317  ALA317     -0.2864
     78  CB        15.1020  -14.9170  -27.3700 C.3   317  ALA317      0.0319
     79  N         20.0290  -23.5370  -31.9850 N.3   340  ASP340     -0.1239
     80  CA        20.5380  -23.3860  -30.6270 C.3   340  ASP340      0.1674
     81  C         21.6940  -24.3610  -30.3720 C.2   340  ASP340      0.2266
     82  O         21.6470  -25.5170  -30.7780 O.2   340  ASP340     -0.2867
     83  CB        19.4650  -23.6450  -29.5770 C.3   340  ASP340      0.1410
     84  CG        18.3510  -22.6110  -29.5420 C.2   340  ASP340      0.3668
     85  OD1       18.3990  -21.5750  -30.2420 O.co2 340  ASP340     -0.2456
     86  OD2       17.3830  -22.8980  -28.7880 O.co2 340  ASP340     -0.2456
     87  N         15.6040  -20.7670  -30.5040 N.3   392  THR392     -0.1218
     88  CA        14.8760  -19.9840  -29.5030 C.3   392  THR392      0.1862
     89  C         14.5620  -18.5860  -30.0280 C.2   392  THR392      0.2287
     90  O         15.4670  -17.7930  -30.3890 O.2   392  THR392     -0.2866
     91  CB        15.6530  -19.9530  -28.1830 C.3   392  THR392      0.1770
     92  OG1       15.7840  -21.2710  -27.6710 O.3   392  THR392     -0.2211
     93  CG2       14.9500  -19.1220  -27.1530 C.3   392  THR392      0.0375
     94  N          8.6260  -15.8310  -25.4820 N.3   452  LEU452     -0.1245
     95  CA         9.7860  -16.6880  -25.6550 C.3   452  LEU452      0.1561
     96  C          9.2750  -18.1140  -25.9490 C.2   452  LEU452      0.2260
     97  O          8.4280  -18.6730  -25.2190 O.2   452  LEU452     -0.2867
     98  CB        10.6050  -16.6640  -24.3500 C.3   452  LEU452      0.0270
     99  CG        11.9990  -17.3170  -24.4230 C.3   452  LEU452      0.0019
    100  CD1       12.9560  -16.4340  -25.2440 C.3   452  LEU452      0.0001
    101  CD2       12.5990  -17.5670  -23.0340 C.3   452  LEU452      0.0001
@<TRIPOS>BOND
     1    79    80    1
     2    82    81    2
     3    80    81    1
     4    80    83    1
     5    87    88    1
     6    90    89    2
     7    60    59    1
     8    85    84   ar
     9    89    88    1
    10    57    58    2
    11    57    56    1
    12    83    84    1
    13    84    86   ar
    14    88    91    1
    15    76    77    2
    16    76    75    1
    17    69    68    2
    18    56    59    1
    19    56    55    1
    20    59    61    1
    21    62    63    1
    22    75    74    1
    23    75    78    1
    24    91    92    1
    25    91    93    1
    26    54    53    2
    27    68    74   am
    28    68    67    1
    29    50    48    1
    30    66    67    1
    31    66    64   am
    32    70    67    1
    33    70    71    1
    34    55    53   am
    35    63    64    1
    36    72    71    1
    37    53    52    1
    38    64    65    2
    39    71    73    1
    40    48    49    1
    41    48    47    2
    42    96    95    1
    43    96    97    2
    44    52    51    1
    45    95    94    1
    46    95    98    1
    47    51    42   am
    48    47    46    1
    49   100    99    1
    50    12    11    1
    51    44    41    1
    52    44    45    1
    53    99    98    1
    54    99   101    1
    55    42    41    1
    56    42    43    2
    57    23    22    1
    58    23    24    1
    59    41    40    1
    60    46    45    1
    61    11     9   ar
    62    11    10   ar
    63     9     7   ar
    64    10     8   ar
    65    25    24    2
    66    24    26   am
    67     7     6   ar
    68     8     6   ar
    69    26    27    1
    70     6     5    1
    71    27    28    1
    72    27    30    1
    73     5     2    1
    74    38    39    1
    75    38    35    1
    76    28    29    2
    77    28    34   am
    78    34    35    1
    79    30    31    1
    80    35    36    1
    81    32    31    1
    82     2     3    1
    83     2     1    1
    84     4     3    2
    85    31    33    1
    86    37    36    2
    87    17    14    1
    88    17    18    1
    89    15    16    2
    90    15    14    1
    91    14    13    1
    92    18    19    1
    93    20    19   ar
    94    19    21   ar
