@<TRIPOS>MOLECULE
tmp/5la2A00.pdb
 112 108 0 0 0
SMALL
GASTEIGER

@<TRIPOS>ATOM
      1  N         15.4570   17.1580   34.1090 N.3    28  TYR28      -0.1241
      2  CA        15.4110   18.1810   35.1660 C.3    28  TYR28       0.1605
      3  C         16.5940   18.1320   36.0910 C.2    28  TYR28       0.2264
      4  O         17.3260   17.1230   36.1680 O.2    28  TYR28      -0.2867
      5  CB        14.1150   18.0820   36.0280 C.3    28  TYR28       0.0534
      6  CG        14.1140   17.0010   37.0950 C.ar   28  TYR28      -0.0201
      7  CD1       13.8680   15.6810   36.7570 C.ar   28  TYR28      -0.0009
      8  CD2       14.3640   17.2950   38.4210 C.ar   28  TYR28      -0.0009
      9  CE1       13.8840   14.6850   37.7120 C.ar   28  TYR28       0.0417
     10  CE2       14.3830   16.2970   39.4010 C.ar   28  TYR28       0.0417
     11  CZ        14.1280   14.9910   39.0410 C.ar   28  TYR28       0.1957
     12  OH        14.1430   13.9830   39.9910 O.3    28  TYR28      -0.2866
     13  N         17.5670   20.2640   40.2150 N.3    30  SER30      -0.1217
     14  CA        17.0240   21.0200   41.3290 C.3    30  SER30       0.1889
     15  C         18.1060   21.7260   42.1160 C.2    30  SER30       0.2288
     16  O         19.1970   21.1730   42.3310 O.2    30  SER30      -0.2866
     17  CB        16.2440   20.1000   42.2760 C.3    30  SER30       0.2089
     18  OG        15.8720   20.7610   43.5130 O.3    30  SER30      -0.2183
     19  N         16.7540   23.2280   44.9780 N.3    32  GLU32      -0.1231
     20  CA        15.8600   23.4340   46.1210 C.3    32  GLU32       0.1699
     21  C         16.5440   23.1880   47.4780 C.2    32  GLU32       0.2592
     22  O         16.2780   23.9170   48.4440 O.2    32  GLU32      -0.2718
     23  CB        14.6310   22.5330   46.0200 C.3    32  GLU32       0.0402
     24  CG        13.7040   22.8030   44.8340 C.3    32  GLU32       0.1161
     25  CD        12.8230   21.6250   44.5420 C.2    32  GLU32       0.3649
     26  OE1       13.3620   20.5770   44.0830 O.co2  32  GLU32      -0.2457
     27  OE2       11.5930   21.7320   44.7810 O.co2  32  GLU32      -0.2457
     28  N         17.3450   22.1250   47.5700 N.am   33  TRP33      -0.1976
     29  CA        18.0580   21.7370   48.8190 C.3    33  TRP33       0.1640
     30  C         19.5170   21.2220   48.5640 C.2    33  TRP33       0.2290
     31  O         20.1590   20.6830   49.4590 O.2    33  TRP33      -0.2864
     32  CB        17.2090   20.7180   49.6520 C.3    33  TRP33       0.0576
     33  CG        16.6120   19.6230   48.8300 C.ar   33  TRP33       0.0006
     34  CD1       17.2540   18.5060   48.3390 C.ar   33  TRP33       0.0946
     35  CD2       15.2610   19.5510   48.3500 C.ar   33  TRP33       0.0152
     36  NE1       16.3780   17.7500   47.5970 N.ar   33  TRP33      -0.2442
     37  CE2       15.1510   18.3660   47.5830 C.ar   33  TRP33       0.0810
     38  CE3       14.1390   20.3620   48.4990 C.ar   33  TRP33       0.0012
     39  CZ2       13.9530   17.9840   46.9560 C.ar   33  TRP33       0.0191
     40  CZ3       12.9470   19.9750   47.8890 C.ar   33  TRP33       0.0001
     41  CH2       12.8630   18.8050   47.1300 C.ar   33  TRP33       0.0015
     42  N         13.8260   23.0210   39.0310 N.3    56  TYR56      -0.1241
     43  CA        13.0710   23.3200   40.2380 C.3    56  TYR56       0.1605
     44  C         14.0440   24.1730   41.0420 C.2    56  TYR56       0.2264
     45  O         15.0600   23.6400   41.5840 O.2    56  TYR56      -0.2867
     46  CB        12.6550   22.0350   40.9740 C.3    56  TYR56       0.0534
     47  CG        11.6770   21.1630   40.1800 C.ar   56  TYR56      -0.0201
     48  CD1       10.2830   21.3280   40.3060 C.ar   56  TYR56      -0.0009
     49  CD2       12.1430   20.1850   39.3240 C.ar   56  TYR56      -0.0009
     50  CE1        9.3820   20.5310   39.6010 C.ar   56  TYR56       0.0417
     51  CE2       11.2440   19.3790   38.5880 C.ar   56  TYR56       0.0417
     52  CZ         9.8720   19.5620   38.7190 C.ar   56  TYR56       0.1957
     53  OH         8.9930   18.7600   38.0230 O.3    56  TYR56      -0.2866
     54  N          9.3310   24.6980   42.9810 N.3    98  GLY98      -0.1210
     55  CA         8.9740   23.3560   43.3550 C.3    98  GLY98       0.1956
     56  C          8.2650   23.3160   44.6880 C.2    98  GLY98       0.2612
     57  O          8.1040   24.3350   45.3640 O.2    98  GLY98      -0.2717
     58  N          7.8650   22.1110   45.0680 N.am   99  ASN99      -0.1960
     59  CA         6.9740   21.9070   46.2100 C.3    99  ASN99       0.1819
     60  C          7.4520   20.9940   47.3060 C.2    99  ASN99       0.2621
     61  O          6.8750   21.0470   48.4020 O.2    99  ASN99      -0.2715
     62  CB         5.6000   21.4010   45.7940 C.3    99  ASN99       0.1195
     63  CG         5.0390   22.0860   44.5560 C.2    99  ASN99       0.2630
     64  OD1        5.7180   22.1940   43.5400 O.2    99  ASN99      -0.2716
     65  ND2        3.7660   22.4920   44.6130 N.am   99  ASN99      -0.0877
     66  N          8.4620   20.1620   47.0480 N.am  100  GLY100     -0.1954
     67  CA         8.9530   19.1900   48.0610 C.3   100  GLY100      0.1869
     68  C          7.8670   18.1960   48.4190 C.2   100  GLY100      0.2309
     69  O          7.3300   17.5210   47.5420 O.2   100  GLY100     -0.2863
     70  N          3.3920   18.9680   46.9900 N.3   103  ASN103     -0.1240
     71  CA         2.8300   19.0600   45.6460 C.3   103  ASN103      0.1653
     72  C          1.3290   19.1110   45.8140 C.2   103  ASN103      0.2266
     73  O          0.7890   18.5470   46.7630 O.2   103  ASN103     -0.2867
     74  CB         3.1920   17.8740   44.7570 C.3   103  ASN103      0.1155
     75  CG         4.6220   17.9110   44.2970 C.2   103  ASN103      0.2627
     76  OD1        5.1280   18.9240   43.8280 O.2   103  ASN103     -0.2716
     77  ND2        5.2870   16.7880   44.4220 N.am  103  ASN103     -0.0877
     78  N          5.0880   24.9580   40.0030 N.3   134  ASN134     -0.1225
     79  CA         4.7820   23.5340   39.8700 C.3   134  ASN134      0.1785
     80  C          3.5230   23.1280   40.6550 C.2   134  ASN134      0.2597
     81  O          3.3140   23.6040   41.7900 O.2   134  ASN134     -0.2718
     82  CB         5.9540   22.7120   40.3630 C.3   134  ASN134      0.1169
     83  CG         5.7940   21.2650   40.0880 C.2   134  ASN134      0.2627
     84  OD1        5.6730   20.8830   38.9130 O.2   134  ASN134     -0.2716
     85  ND2        5.7430   20.4380   41.1460 N.am  134  ASN134     -0.0877
     86  N          2.7220   22.2460   40.0540 N.am  135  GLU135     -0.1979
     87  CA         1.5710   21.5750   40.6760 C.3   135  GLU135      0.1602
     88  C          0.9870   22.3330   41.9040 C.2   135  GLU135      0.2287
     89  O          1.0630   21.8570   43.0220 O.2   135  GLU135     -0.2864
     90  CB         1.9570   20.1260   41.0600 C.3   135  GLU135      0.0415
     91  CG         2.3210   19.2650   39.8490 C.3   135  GLU135      0.1163
     92  CD         2.5840   17.8290   40.2030 C.2   135  GLU135      0.3649
     93  OE1        2.5170   17.4950   41.3950 O.co2 135  GLU135     -0.2457
     94  OE2        2.8270   17.0200   39.2750 O.co2 135  GLU135     -0.2457
     95  N         10.9040   13.7030   33.7690 N.3   266  PHE266     -0.1241
     96  CA        11.2570   13.6720   35.2140 C.3   266  PHE266      0.1605
     97  C         12.2930   12.6120   35.5600 C.2   266  PHE266      0.2264
     98  O         12.0730   11.7400   36.4340 O.2   266  PHE266     -0.2867
     99  CB         9.9980   13.5020   36.0650 C.3   266  PHE266      0.0534
    100  CG        10.1730   13.8830   37.5210 C.ar  266  PHE266     -0.0203
    101  CD1       10.4490   15.1940   37.8770 C.ar  266  PHE266     -0.0042
    102  CD2       10.0240   12.9340   38.5220 C.ar  266  PHE266     -0.0042
    103  CE1       10.5910   15.5490   39.2100 C.ar  266  PHE266     -0.0003
    104  CE2       10.1730   13.2920   39.8580 C.ar  266  PHE266     -0.0003
    105  CZ        10.4650   14.5970   40.1970 C.ar  266  PHE266     -0.0000
    106  N         15.2580   13.4580   43.0770 N.3   274  VAL274     -0.1245
    107  CA        14.2900   12.6650   43.8210 C.3   274  VAL274      0.1561
    108  C         13.7600   11.4530   43.0740 C.2   274  VAL274      0.2260
    109  O         13.1760   10.5790   43.7020 O.2   274  VAL274     -0.2867
    110  CB        13.1190   13.5200   44.3960 C.3   274  VAL274      0.0252
    111  CG1       13.6580   14.5980   45.3110 C.3   274  VAL274      0.0019
    112  CG2       12.2470   14.1540   43.3240 C.3   274  VAL274      0.0019
@<TRIPOS>BOND
     1    95    96    1
     2     1     2    1
     3     2     5    1
     4     2     3    1
     5    96    97    1
     6    96    99    1
     7    97    98    2
     8     5     6    1
     9    99   100    1
    10     3     4    2
    11     7     6   ar
    12     7     9   ar
    13     6     8   ar
    14   100   101   ar
    15   100   102   ar
    16     9    11   ar
    17   101   103   ar
    18    53    52    1
    19     8    10   ar
    20   102   104   ar
    21    51    52   ar
    22    51    49   ar
    23    52    50   ar
    24    84    83    2
    25    42    43    1
    26    11    10   ar
    27    11    12    1
    28   103   105   ar
    29    94    92   ar
    30    49    47   ar
    31    50    48   ar
    32    91    92    1
    33    91    90    1
    34   104   105   ar
    35    79    78    1
    36    79    82    1
    37    79    80    1
    38    86    80   am
    39    86    87    1
    40    83    82    1
    41    83    85   am
    42    47    48   ar
    43    47    46    1
    44    92    93   ar
    45    13    14    1
    46    43    46    1
    47    43    44    1
    48    80    81    2
    49    87    90    1
    50    87    88    1
    51    44    45    2
    52    14    15    1
    53    14    17    1
    54    88    89    2
    55    15    16    2
    56    17    18    1
    57    54    55    1
    58   108   109    2
    59   108   107    1
    60   106   107    1
    61   112   110    1
    62    55    56    1
    63    64    63    2
    64   107   110    1
    65    76    75    2
    66    26    25   ar
    67    75    77   am
    68    75    74    1
    69   110   111    1
    70    25    27   ar
    71    25    24    1
    72    63    65   am
    73    63    62    1
    74    56    58   am
    75    56    57    2
    76    74    71    1
    77    24    23    1
    78    19    20    1
    79    58    59    1
    80    71    72    1
    81    71    70    1
    82    62    59    1
    83    72    73    2
    84    23    20    1
    85    20    21    1
    86    59    60    1
    87    39    41   ar
    88    39    37   ar
    89    66    60   am
    90    66    67    1
    91    41    40   ar
    92    60    61    2
    93    21    28   am
    94    21    22    2
    95    69    68    2
    96    28    29    1
    97    37    36   ar
    98    37    35   ar
    99    36    34   ar
   100    40    38   ar
   101    67    68    1
   102    34    33   ar
   103    35    38   ar
   104    35    33   ar
   105    30    29    1
   106    30    31    2
   107    29    32    1
   108    33    32    1
