@<TRIPOS>MOLECULE
tmp/5la4A00.pdb
 87 83 0 0 0
SMALL
GASTEIGER

@<TRIPOS>ATOM
      1  N         33.7520    0.0770   10.7550 N.3    66  PHE66      -0.1241
      2  CA        34.2110   -1.2470   10.3640 C.3    66  PHE66       0.1605
      3  C         33.0920   -2.0690    9.7180 C.2    66  PHE66       0.2264
      4  O         33.1400   -3.2990    9.6760 O.2    66  PHE66      -0.2867
      5  CB        34.7750   -1.9250   11.6010 C.3    66  PHE66       0.0534
      6  CG        35.8780   -1.1420   12.2510 C.ar   66  PHE66      -0.0203
      7  CD1       37.2140   -1.3050   11.8440 C.ar   66  PHE66      -0.0042
      8  CD2       35.6010   -0.2410   13.2680 C.ar   66  PHE66      -0.0042
      9  CE1       38.2330   -0.5840   12.4630 C.ar   66  PHE66      -0.0003
     10  CE2       36.6120    0.4710   13.8850 C.ar   66  PHE66      -0.0003
     11  CZ        37.9290    0.3130   13.4730 C.ar   66  PHE66      -0.0000
     12  N         30.6930   -2.4480    6.1590 N.3    68  ILE68      -0.1245
     13  CA        30.7380   -2.2110    4.7100 C.3    68  ILE68       0.1561
     14  C         29.4710   -2.7880    4.0920 C.2    68  ILE68       0.2260
     15  O         29.0990   -3.9410    4.3240 O.2    68  ILE68      -0.2867
     16  CB        32.0180   -2.8160    4.0670 C.3    68  ILE68       0.0252
     17  CG1       33.2660   -2.1170    4.6260 C.3    68  ILE68       0.0019
     18  CG2       31.9870   -2.6470    2.5480 C.3    68  ILE68       0.0019
     19  CD1       34.5470   -2.9040    4.4550 C.3    68  ILE68       0.0001
     20  N         38.9070   -4.6610   16.1400 N.3   125  PHE125     -0.1227
     21  CA        37.7730   -4.6840   15.2180 C.3   125  PHE125      0.1736
     22  C         38.2240   -5.1280   13.8390 C.2   125  PHE125      0.2595
     23  O         39.2670   -4.7120   13.3680 O.2   125  PHE125     -0.2718
     24  CB        37.1230   -3.3060   15.1260 C.3   125  PHE125      0.0547
     25  CG        36.6680   -2.7770   16.4430 C.ar  125  PHE125     -0.0202
     26  CD1       35.4370   -3.1740   16.9740 C.ar  125  PHE125     -0.0042
     27  CD2       37.4780   -1.9120   17.1730 C.ar  125  PHE125     -0.0042
     28  CE1       35.0150   -2.7060   18.2060 C.ar  125  PHE125     -0.0003
     29  CE2       37.0680   -1.4340   18.4090 C.ar  125  PHE125     -0.0003
     30  CZ        35.8370   -1.8350   18.9320 C.ar  125  PHE125     -0.0000
     31  N         37.4250   -5.9890   13.2190 N.am  126  LYS126     -0.1966
     32  CA        37.6060   -6.4030   11.8310 C.3   126  LYS126      0.1728
     33  C         36.5140   -5.7850   10.9960 C.2   126  LYS126      0.2616
     34  O         35.4770   -5.4040   11.5220 O.2   126  LYS126     -0.2715
     35  CB        37.5150   -7.9200   11.7260 C.3   126  LYS126      0.0311
     36  CG        38.6430   -8.5830   12.4880 C.3   126  LYS126      0.0038
     37  CD        38.5410  -10.0950   12.5570 C.3   126  LYS126      0.0206
     38  CE        39.7430  -10.6460   13.3220 C.3   126  LYS126      0.1093
     39  NZ        39.6060  -10.4490   14.7930 N.3   126  LYS126     -0.1314
     40  N         36.7420   -5.6800    9.6940 N.am  127  ASN127     -0.1972
     41  CA        35.6770   -5.2660    8.7860 C.3   127  ASN127      0.1688
     42  C         34.6890   -6.3960    8.6860 C.2   127  ASN127      0.2292
     43  O         35.0720   -7.5690    8.7240 O.2   127  ASN127     -0.2864
     44  CB        36.1900   -4.9740    7.3910 C.3   127  ASN127      0.1181
     45  CG        36.9330   -3.6740    7.3010 C.2   127  ASN127      0.2629
     46  OD1       36.7470   -2.7770    8.1220 O.2   127  ASN127     -0.2716
     47  ND2       37.8010   -3.5770    6.2900 N.am  127  ASN127     -0.0877
     48  N         36.0720    5.2800    7.6430 N.3   156  LEU156     -0.1231
     49  CA        37.4510    4.7660    7.5180 C.3   156  LEU156      0.1693
     50  C         37.7450    4.1290    6.1480 C.2   156  LEU156      0.2592
     51  O         38.7870    3.4830    5.9780 O.2   156  LEU156     -0.2718
     52  CB        37.7570    3.7880    8.6590 C.3   156  LEU156      0.0284
     53  CG        37.9480    4.4620   10.0250 C.3   156  LEU156      0.0019
     54  CD1       38.3260    3.4040   11.0520 C.3   156  LEU156      0.0001
     55  CD2       38.9690    5.5820   10.0190 C.3   156  LEU156      0.0001
     56  N         36.8160    4.2790    5.1990 N.am  157  LEU157     -0.1966
     57  CA        37.0440    3.9170    3.8100 C.3   157  LEU157      0.1728
     58  C         37.7290    5.1380    3.2310 C.2   157  LEU157      0.2616
     59  O         37.1570    6.2190    3.1890 O.2   157  LEU157     -0.2715
     60  CB        35.7390    3.6030    3.0890 C.3   157  LEU157      0.0311
     61  CG        34.9790    2.4140    3.7000 C.3   157  LEU157      0.0022
     62  CD1       33.5640    2.3250    3.1300 C.3   157  LEU157      0.0001
     63  CD2       35.7200    1.0910    3.5220 C.3   157  LEU157      0.0001
     64  N         38.9870    4.9530    2.8330 N.am  158  ARG158     -0.1977
     65  CA        39.8980    6.0410    2.5570 C.3   158  ARG158      0.1597
     66  C         40.6560    5.8270    1.2260 C.2   158  ARG158      0.2287
     67  O         41.0400    4.7150    0.8840 O.2   158  ARG158     -0.2864
     68  CB        40.8860    6.1590    3.7090 C.3   158  ARG158      0.0334
     69  CG        40.2850    6.7220    4.9910 C.3   158  ARG158      0.0492
     70  CD        40.1620    8.2360    4.9110 C.3   158  ARG158      0.2205
     71  NE        38.9980    8.7090    5.6250 N.pl3 158  ARG158     -0.0865
     72  CZ        38.6850    9.9820    5.8230 C.cat 158  ARG158      0.5346
     73  NH1       39.4570   10.9620    5.3780 N.pl3 158  ARG158      0.1354
     74  NH2       37.5770   10.2770    6.5010 N.pl3 158  ARG158      0.1354
     75  N         42.2630    2.1980   14.4730 N.3   198  ALA198     -0.1245
     76  CA        42.5960    1.7900   13.1180 C.3   198  ALA198      0.1562
     77  C         43.9970    2.1960   12.6580 C.2   198  ALA198      0.2260
     78  O         44.3280    1.9390   11.5130 O.2   198  ALA198     -0.2867
     79  CB        41.5560    2.3720   12.1600 C.3   198  ALA198      0.0290
     80  N         44.9110    5.0680   11.7790 N.3   200  ILE200     -0.1245
     81  CA        44.7910    6.1270   10.7830 C.3   200  ILE200      0.1561
     82  C         44.4140    7.3250   11.6270 C.2   200  ILE200      0.2260
     83  O         43.5030    7.2280   12.4620 O.2   200  ILE200     -0.2867
     84  CB        43.6670    5.8960    9.7260 C.3   200  ILE200      0.0252
     85  CG1       43.7210    4.4860    9.1130 C.3   200  ILE200      0.0019
     86  CG2       43.7620    6.9360    8.6130 C.3   200  ILE200      0.0019
     87  CD1       42.5220    4.1280    8.2410 C.3   200  ILE200      0.0001
@<TRIPOS>BOND
     1    67    66    2
     2    66    65    1
     3    18    16    1
     4    65    64    1
     5    65    68    1
     6    64    58   am
     7    60    61    1
     8    60    57    1
     9    62    61    1
    10    59    58    2
    11    58    57    1
    12    63    61    1
    13    68    69    1
    14    57    56    1
    15    16    17    1
    16    16    13    1
    17    14    15    2
    18    14    13    1
    19    19    17    1
    20    13    12    1
    21    70    69    1
    22    70    71    1
    23    56    50   am
    24    73    72    1
    25    71    72    2
    26    72    74    1
    27    51    50    2
    28    50    49    1
    29    47    45   am
    30    45    44    1
    31    45    46    2
    32    44    41    1
    33    49    48    1
    34    49    52    1
    35    87    85    1
    36    86    84    1
    37    52    53    1
    38    42    43    2
    39    42    41    1
    40    41    40    1
    41    85    84    1
    42     4     3    2
    43    40    33   am
    44     3     2    1
    45    84    81    1
    46    55    53    1
    47    53    54    1
    48     2     1    1
    49     2     5    1
    50    81    82    1
    51    81    80    1
    52    33    34    2
    53    33    32    1
    54    78    77    2
    55     5     6    1
    56    82    83    2
    57    35    32    1
    58    35    36    1
    59    32    31    1
    60     7     6   ar
    61     7     9   ar
    62    79    76    1
    63     6     8   ar
    64     9    11   ar
    65    36    37    1
    66    37    38    1
    67    77    76    1
    68    76    75    1
    69    31    22   am
    70     8    10   ar
    71    38    39    1
    72    23    22    2
    73    11    10   ar
    74    22    21    1
    75    24    21    1
    76    24    25    1
    77    21    20    1
    78    25    26   ar
    79    25    27   ar
    80    26    28   ar
    81    27    29   ar
    82    28    30   ar
    83    29    30   ar
