@<TRIPOS>MOLECULE
tmp/5lakA01.pdb
 129 127 0 0 0
SMALL
GASTEIGER

@<TRIPOS>ATOM
      1  N          9.3270   18.4700   27.1860 N.3   110  LEU110     -0.1245
      2  CA         9.8640   19.7870   26.8680 C.3   110  LEU110      0.1561
      3  C          9.5460   20.2090   25.4390 C.2   110  LEU110      0.2260
      4  O          9.8030   21.3510   25.0610 O.2   110  LEU110     -0.2867
      5  CB        11.3790   19.8300   27.0770 C.3   110  LEU110      0.0270
      6  CG        11.9140   19.7820   28.5140 C.3   110  LEU110      0.0019
      7  CD1       13.3930   20.1340   28.5190 C.3   110  LEU110      0.0001
      8  CD2       11.1400   20.6910   29.4600 C.3   110  LEU110      0.0001
      9  N          4.8550   26.5190   27.2830 N.3   138  SER138     -0.1202
     10  CA         5.6960   26.5410   26.0970 C.3   138  SER138      0.2020
     11  C          7.0720   25.9680   26.4400 C.2   138  SER138      0.2618
     12  O          7.8860   26.6210   27.1020 O.2   138  SER138     -0.2717
     13  CB         5.8250   27.9670   25.5620 C.3   138  SER138      0.2103
     14  OG         6.4580   27.9820   24.3000 O.3   138  SER138     -0.2182
     15  N          7.3160   24.7440   25.9850 N.am  139  GLU139     -0.1979
     16  CA         8.5840   24.0530   26.2020 C.3   139  GLU139      0.1602
     17  C          9.0850   24.1590   27.6470 C.2   139  GLU139      0.2287
     18  O         10.2070   24.5960   27.8950 O.2   139  GLU139     -0.2864
     19  CB         9.6510   24.5930   25.2440 C.3   139  GLU139      0.0415
     20  CG         9.3240   24.4220   23.7640 C.3   139  GLU139      0.1163
     21  CD         8.3050   25.4280   23.2490 C.2   139  GLU139      0.3649
     22  OE1        8.4080   26.6180   23.6060 O.co2 139  GLU139     -0.2457
     23  OE2        7.4060   25.0300   22.4750 O.co2 139  GLU139     -0.2457
     24  N          7.9550   26.0220   30.1170 N.3   141  HIS141     -0.1241
     25  CA         7.7110   27.3080   30.7640 C.3   141  HIS141      0.1621
     26  C          6.2290   27.6490   30.7080 C.2   141  HIS141      0.2264
     27  O          5.6500   27.7270   29.6240 O.2   141  HIS141     -0.2867
     28  CB         8.5430   28.4020   30.0960 C.3   141  HIS141      0.0745
     29  CG        10.0170   28.2290   30.2810 C.ar  141  HIS141      0.0817
     30  ND1       10.7700   29.0600   31.0810 N.ar  141  HIS141     -0.2268
     31  CD2       10.8740   27.3030   29.7910 C.ar  141  HIS141      0.1154
     32  CE1       12.0300   28.6650   31.0630 C.ar  141  HIS141      0.1986
     33  NE2       12.1200   27.5990   30.2880 N.ar  141  HIS141     -0.2212
     34  N         15.1050   20.2720   31.9790 N.3   205  ILE205     -0.1231
     35  CA        14.6130   21.6010   32.3310 C.3   205  ILE205      0.1692
     36  C         15.1150   22.5930   31.2880 C.2   205  ILE205      0.2592
     37  O         16.2920   22.5790   30.9310 O.2   205  ILE205     -0.2718
     38  CB        15.0720   22.0210   33.7560 C.3   205  ILE205      0.0266
     39  CG1       14.5960   23.4390   34.0890 C.3   205  ILE205      0.0019
     40  CG2       16.5930   21.9270   33.8960 C.3   205  ILE205      0.0020
     41  CD1       14.7750   23.8120   35.5520 C.3   205  ILE205      0.0001
     42  N         14.2290   23.4480   30.7880 N.am  206  ASN206     -0.1960
     43  CA        14.6050   24.3510   29.7070 C.3   206  ASN206      0.1819
     44  C         15.2920   25.5920   30.2610 C.2   206  ASN206      0.2621
     45  O         14.7190   26.6810   30.3040 O.2   206  ASN206     -0.2715
     46  CB        13.3890   24.7300   28.8600 C.3   206  ASN206      0.1195
     47  CG        13.7810   25.3840   27.5390 C.2   206  ASN206      0.2630
     48  OD1       14.9650   25.5730   27.2520 O.2   206  ASN206     -0.2716
     49  ND2       12.7910   25.7140   26.7240 N.am  206  ASN206     -0.0877
     50  N         16.5290   25.3900   30.7000 N.am  207  LEU207     -0.1977
     51  CA        17.3960   26.4490   31.2000 C.3   207  LEU207      0.1596
     52  C         18.8340   26.1130   30.8310 C.2   207  LEU207      0.2287
     53  O         19.1680   24.9440   30.6640 O.2   207  LEU207     -0.2864
     54  CB        17.2770   26.5960   32.7200 C.3   207  LEU207      0.0297
     55  CG        16.0580   27.2800   33.3370 C.3   207  LEU207      0.0022
     56  CD1       16.1450   27.1710   34.8490 C.3   207  LEU207      0.0001
     57  CD2       15.9840   28.7400   32.9230 C.3   207  LEU207      0.0001
     58  N         16.2760   34.2640   30.5190 N.3   221  VAL221     -0.1231
     59  CA        16.2250   34.9140   29.2220 C.3   221  VAL221      0.1692
     60  C         15.1880   34.2510   28.3230 C.2   221  VAL221      0.2592
     61  O         15.2530   33.0550   28.0420 O.2   221  VAL221     -0.2718
     62  CB        17.6010   34.8930   28.5260 C.3   221  VAL221      0.0266
     63  CG1       17.5800   35.7670   27.2860 C.3   221  VAL221      0.0020
     64  CG2       18.6890   35.3700   29.4760 C.3   221  VAL221      0.0020
     65  N         14.2260   35.0510   27.8840 N.am  222  TYR222     -0.1962
     66  CA        13.2090   34.6010   26.9460 C.3   222  TYR222      0.1771
     67  C         13.4730   35.2490   25.5970 C.2   222  TYR222      0.2619
     68  O         14.0250   36.3450   25.5310 O.2   222  TYR222     -0.2715
     69  CB        11.8070   34.9700   27.4360 C.3   222  TYR222      0.0574
     70  CG        11.1840   34.0320   28.4460 C.ar  222  TYR222     -0.0198
     71  CD1       11.9390   33.0870   29.1320 C.ar  222  TYR222     -0.0009
     72  CD2        9.8180   34.0820   28.6950 C.ar  222  TYR222     -0.0009
     73  CE1       11.3420   32.2240   30.0470 C.ar  222  TYR222      0.0417
     74  CE2        9.2190   33.2340   29.5990 C.ar  222  TYR222      0.0417
     75  CZ         9.9790   32.3060   30.2720 C.ar  222  TYR222      0.1957
     76  OH         9.3590   31.4720   31.1710 O.3   222  TYR222     -0.2866
     77  N         13.0570   34.5920   24.5230 N.am  223  GLN223     -0.1963
     78  CA        13.1420   35.1990   23.1980 C.3   223  GLN223      0.1733
     79  C         11.8810   35.9950   22.9240 C.2   223  GLN223      0.2616
     80  O         11.8840   36.9420   22.1390 O.2   223  GLN223     -0.2715
     81  CB        13.3570   34.1420   22.1170 C.3   223  GLN223      0.0408
     82  CG        13.6130   34.7350   20.7400 C.3   223  GLN223      0.0908
     83  CD        14.0400   33.6960   19.7190 C.2   223  GLN223      0.2608
     84  OE1       14.1920   32.5210   20.0410 O.2   223  GLN223     -0.2717
     85  NE2       14.2320   34.1270   18.4800 N.am  223  GLN223     -0.0878
     86  N         10.7950   35.5940   23.5700 N.am  224  HIS224     -0.1960
     87  CA         9.4990   36.2050   23.3220 C.3   224  HIS224      0.1772
     88  C          8.5360   35.8250   24.4340 C.2   224  HIS224      0.2462
     89  O          8.8130   34.9010   25.2010 O.2   224  HIS224     -0.2730
     90  CB         8.9830   35.7680   21.9530 C.3   224  HIS224      0.0785
     91  CG         9.0820   34.2930   21.7140 C.ar  224  HIS224      0.0821
     92  ND1        8.2580   33.3780   22.3340 N.ar  224  HIS224     -0.2267
     93  CD2        9.9290   33.5710   20.9410 C.ar  224  HIS224      0.1154
     94  CE1        8.5810   32.1590   21.9390 C.ar  224  HIS224      0.1986
     95  NE2        9.5920   32.2480   21.0950 N.ar  224  HIS224     -0.2212
     96  N          7.4040   36.5360   24.5390 N.am  225  PRO225     -0.2716
     97  CA         6.4110   36.1000   25.5280 C.3   225  PRO225      0.1536
     98  C          5.9380   34.6820   25.2280 C.2   225  PRO225      0.2598
     99  O          6.1140   34.2230   24.0980 O.2   225  PRO225     -0.2715
    100  CB         5.2750   37.1130   25.3650 C.3   225  PRO225      0.0310
    101  CG         5.9040   38.3010   24.7250 C.3   225  PRO225      0.0237
    102  CD         6.9860   37.7620   23.8400 C.3   225  PRO225      0.0939
    103  N          5.3740   33.9970   26.2180 N.am  226  LEU226     -0.1964
    104  CA         4.8720   32.6470   26.0010 C.3   226  LEU226      0.1728
    105  C          3.9010   32.6560   24.8310 C.2   226  LEU226      0.2616
    106  O          2.9890   33.4850   24.7760 O.2   226  LEU226     -0.2715
    107  CB         4.1980   32.0920   27.2570 C.3   226  LEU226      0.0311
    108  CG         5.0860   31.9750   28.5010 C.3   226  LEU226      0.0022
    109  CD1        4.2780   31.5380   29.7170 C.3   226  LEU226      0.0001
    110  CD2        6.2270   31.0100   28.2480 C.3   226  LEU226      0.0001
    111  N          4.1110   31.7410   23.8880 N.am  227  ARG227     -0.1977
    112  CA         3.3280   31.7420   22.6580 C.3   227  ARG227      0.1597
    113  C          3.2540   30.3790   21.9910 C.2   227  ARG227      0.2287
    114  O          4.1720   29.5660   22.1010 O.2   227  ARG227     -0.2864
    115  CB         3.9220   32.7600   21.6730 C.3   227  ARG227      0.0334
    116  CG         5.2980   32.3750   21.1190 C.3   227  ARG227      0.0492
    117  CD         5.1720   31.6660   19.7730 C.3   227  ARG227      0.2205
    118  NE         6.4620   31.3020   19.1880 N.pl3 227  ARG227     -0.0865
    119  CZ         7.1110   30.1670   19.4320 C.cat 227  ARG227      0.5346
    120  NH1        8.2680   29.9310   18.8330 N.pl3 227  ARG227      0.1354
    121  NH2        6.6120   29.2680   20.2700 N.pl3 227  ARG227      0.1354
    122  N         10.6060   33.3460   17.0390 N.3   258  ASN258     -0.1240
    123  CA        11.1390   32.0060   16.7890 C.3   258  ASN258      0.1653
    124  C         10.1440   31.1850   15.9750 C.2   258  ASN258      0.2266
    125  O          9.8060   30.0520   16.3200 O.2   258  ASN258     -0.2867
    126  CB        11.4930   31.2980   18.1020 C.3   258  ASN258      0.1155
    127  CG        12.2810   30.0150   17.8800 C.2   258  ASN258      0.2627
    128  OD1       13.0460   29.8990   16.9250 O.2   258  ASN258     -0.2716
    129  ND2       12.1050   29.0520   18.7700 N.am  258  ASN258     -0.0877
@<TRIPOS>BOND
     1   124   125    2
     2   124   123    1
     3   123   122    1
     4   123   126    1
     5   128   127    2
     6   127   126    1
     7   127   129   am
     8    85    83   am
     9   120   119    1
    10   118   119    2
    11   118   117    1
    12   119   121    1
    13    83    84    2
    14    83    82    1
    15   117   116    1
    16    82    81    1
    17    93    95   ar
    18    93    91   ar
    19    95    94   ar
    20   116   115    1
    21   115   112    1
    22    91    90    1
    23    91    92   ar
    24    94    92   ar
    25    90    87    1
    26   113   114    2
    27   113   112    1
    28    81    78    1
    29    80    79    2
    30    23    21   ar
    31   112   111    1
    32    79    78    1
    33    79    86   am
    34    78    77    1
    35    21    22   ar
    36    21    20    1
    37    87    86    1
    38    87    88    1
    39    20    19    1
    40   102    96    1
    41   102   101    1
    42   111   105   am
    43    99    98    2
    44    14    13    1
    45    88    96   am
    46    88    89    2
    47    77    67   am
    48    96    97    1
    49   101   100    1
    50   106   105    2
    51   105   104    1
    52     4     3    2
    53    98    97    1
    54    98   103   am
    55    19    16    1
    56   100    97    1
    57     3     2    1
    58    68    67    2
    59    13    10    1
    60    67    66    1
    61    15    16    1
    62    15    11   am
    63   104   103    1
    64   104   107    1
    65    10    11    1
    66    10     9    1
    67    16    17    1
    68    11    12    2
    69    49    47   am
    70     2     5    1
    71     2     1    1
    72    66    69    1
    73    66    65    1
    74     5     6    1
    75    48    47    2
    76   107   108    1
    77    63    62    1
    78    69    70    1
    79    47    46    1
    80    17    18    2
    81    65    60   am
    82    61    60    2
    83   110   108    1
    84    60    59    1
    85    70    72   ar
    86    70    71   ar
    87   108   109    1
    88     6     7    1
    89     6     8    1
    90    62    59    1
    91    62    64    1
    92    72    74   ar
    93    46    43    1
    94    71    73   ar
    95    59    58    1
    96    74    75   ar
    97    27    26    2
    98    43    44    1
    99    43    42    1
   100    31    29   ar
   101    31    33   ar
   102    73    75   ar
   103    28    29    1
   104    28    25    1
   105    24    25    1
   106    44    45    2
   107    44    50   am
   108    75    76    1
   109    29    30   ar
   110    33    32   ar
   111    53    52    2
   112    50    51    1
   113    26    25    1
   114    42    36   am
   115    52    51    1
   116    37    36    2
   117    32    30   ar
   118    51    54    1
   119    36    35    1
   120    34    35    1
   121    35    38    1
   122    54    55    1
   123    57    55    1
   124    55    56    1
   125    38    40    1
   126    38    39    1
   127    39    41    1
