@<TRIPOS>MOLECULE
tmp/5lakB01.pdb
 94 93 0 0 0
SMALL
GASTEIGER

@<TRIPOS>ATOM
      1  N        -21.4450   34.8850   36.9070 N.3   135  SER135     -0.1202
      2  CA       -22.1470   35.9630   37.5930 C.3   135  SER135      0.2020
      3  C        -23.6470   35.6930   37.5780 C.2   135  SER135      0.2618
      4  O        -24.2930   35.8180   36.5360 O.2   135  SER135     -0.2717
      5  CB       -21.8490   37.3120   36.9370 C.3   135  SER135      0.2103
      6  OG       -22.3710   38.3730   37.7120 O.3   135  SER135     -0.2182
      7  N        -24.1840   35.3090   38.7340 N.am  136  GLU136     -0.1979
      8  CA       -25.6150   35.0420   38.8970 C.3   136  GLU136      0.1602
      9  C        -26.2110   34.1930   37.7710 C.2   136  GLU136      0.2287
     10  O        -27.1800   34.5920   37.1220 O.2   136  GLU136     -0.2864
     11  CB       -26.3870   36.3600   39.0230 C.3   136  GLU136      0.0415
     12  CG       -25.9850   37.2040   40.2320 C.3   136  GLU136      0.1163
     13  CD       -24.6680   37.9350   40.0480 C.2   136  GLU136      0.3649
     14  OE1      -24.4500   38.5000   38.9590 O.co2 136  GLU136     -0.2457
     15  OE2      -23.8420   37.9310   40.9890 O.co2 136  GLU136     -0.2457
     16  N        -24.8940   33.2400   34.9070 N.3   138  HIS138     -0.1241
     17  CA       -24.3960   33.5040   33.5620 C.3   138  HIS138      0.1621
     18  C        -22.8810   33.3590   33.5540 C.2   138  HIS138      0.2264
     19  O        -22.1940   34.0220   34.3320 O.2   138  HIS138     -0.2867
     20  CB       -24.8040   34.9010   33.0950 C.3   138  HIS138      0.0745
     21  CG       -26.2840   35.0780   32.9430 C.ar  138  HIS138      0.0817
     22  ND1      -26.8990   35.1870   31.7140 N.ar  138  HIS138     -0.2268
     23  CD2      -27.2710   35.1680   33.8660 C.ar  138  HIS138      0.1154
     24  CE1      -28.1990   35.3340   31.8870 C.ar  138  HIS138      0.1986
     25  NE2      -28.4510   35.3260   33.1830 N.ar  138  HIS138     -0.2212
     26  N        -31.6670   32.7120   35.6520 N.3   197  ASN197     -0.1240
     27  CA       -31.6470   34.1650   35.6300 C.3   197  ASN197      0.1653
     28  C        -31.9860   34.7250   34.2460 C.2   197  ASN197      0.2266
     29  O        -31.1250   35.2370   33.5260 O.2   197  ASN197     -0.2867
     30  CB       -30.2860   34.6600   36.1110 C.3   197  ASN197      0.1155
     31  CG       -30.2850   36.1380   36.4330 C.2   197  ASN197      0.2627
     32  OD1      -31.2850   36.8310   36.2480 O.2   197  ASN197     -0.2716
     33  ND2      -29.1770   36.6150   36.9750 N.am  197  ASN197     -0.0877
     34  N        -30.9020   39.7840   27.2730 N.3   212  VAL212     -0.1231
     35  CA       -30.6170   41.1800   27.6010 C.3   212  VAL212      0.1692
     36  C        -29.7130   41.2770   28.8340 C.2   212  VAL212      0.2592
     37  O        -30.0640   40.7900   29.9110 O.2   212  VAL212     -0.2718
     38  CB       -31.9290   41.9680   27.8470 C.3   212  VAL212      0.0266
     39  CG1      -31.6530   43.4580   27.9880 C.3   212  VAL212      0.0020
     40  CG2      -32.9240   41.7190   26.7160 C.3   212  VAL212      0.0020
     41  N        -28.5480   41.9030   28.6650 N.am  213  TYR213     -0.1962
     42  CA       -27.6090   42.1310   29.7690 C.3   213  TYR213      0.1771
     43  C        -27.5560   43.6070   30.1380 C.2   213  TYR213      0.2619
     44  O        -27.8610   44.4670   29.3150 O.2   213  TYR213     -0.2715
     45  CB       -26.1910   41.6640   29.4140 C.3   213  TYR213      0.0574
     46  CG       -25.9180   40.1820   29.5610 C.ar  213  TYR213     -0.0198
     47  CD1      -26.9480   39.2570   29.6660 C.ar  213  TYR213     -0.0009
     48  CD2      -24.6080   39.7120   29.6200 C.ar  213  TYR213     -0.0009
     49  CE1      -26.6780   37.9050   29.8010 C.ar  213  TYR213      0.0417
     50  CE2      -24.3320   38.3680   29.7590 C.ar  213  TYR213      0.0417
     51  CZ       -25.3660   37.4690   29.8520 C.ar  213  TYR213      0.1957
     52  OH       -25.0820   36.1300   29.9890 O.3   213  TYR213     -0.2866
     53  N        -27.1780   43.8960   31.3790 N.am  214  GLN214     -0.1963
     54  CA       -26.9280   45.2710   31.7940 C.3   214  GLN214      0.1733
     55  C        -25.4730   45.6520   31.5720 C.2   214  GLN214      0.2616
     56  O        -25.1490   46.8190   31.3630 O.2   214  GLN214     -0.2715
     57  CB       -27.2960   45.4780   33.2620 C.3   214  GLN214      0.0408
     58  CG       -27.1960   46.9360   33.6960 C.3   214  GLN214      0.0908
     59  CD       -27.7790   47.1930   35.0710 C.2   214  GLN214      0.2608
     60  OE1      -28.3160   46.2910   35.7150 O.2   214  GLN214     -0.2717
     61  NE2      -27.6700   48.4330   35.5310 N.am  214  GLN214     -0.0878
     62  N        -24.5970   44.6580   31.6290 N.am  215  HIS215     -0.1960
     63  CA       -23.1650   44.8960   31.5520 C.3   215  HIS215      0.1772
     64  C        -22.4360   43.5890   31.2820 C.2   215  HIS215      0.2462
     65  O        -23.0230   42.5150   31.4130 O.2   215  HIS215     -0.2730
     66  CB       -22.6610   45.5290   32.8490 C.3   215  HIS215      0.0785
     67  CG       -23.1290   44.8210   34.0830 C.ar  215  HIS215      0.0821
     68  ND1      -22.6580   43.5800   34.4560 N.ar  215  HIS215     -0.2267
     69  CD2      -24.0290   45.1810   35.0280 C.ar  215  HIS215      0.1154
     70  CE1      -23.2490   43.2060   35.5760 C.ar  215  HIS215      0.1986
     71  NE2      -24.0850   44.1600   35.9450 N.ar  215  HIS215     -0.2212
     72  N        -21.1540   43.6750   30.8930 N.am  216  PRO216     -0.2716
     73  CA       -20.3510   42.4590   30.7420 C.3   216  PRO216      0.1536
     74  C        -20.2440   41.7020   32.0620 C.2   216  PRO216      0.2598
     75  O        -20.5040   42.2800   33.1170 O.2   216  PRO216     -0.2715
     76  CB       -18.9840   42.9890   30.2940 C.3   216  PRO216      0.0310
     77  CG       -19.2580   44.3350   29.7260 C.3   216  PRO216      0.0237
     78  CD       -20.4030   44.8830   30.5110 C.3   216  PRO216      0.0939
     79  N        -19.9010   40.4200   31.9990 N.am  217  LEU217     -0.1978
     80  CA       -19.7180   39.6240   33.2080 C.3   217  LEU217      0.1596
     81  C        -18.7050   40.3080   34.1110 C.2   217  LEU217      0.2287
     82  O        -17.6300   40.7000   33.6580 O.2   217  LEU217     -0.2864
     83  CB       -19.2640   38.2100   32.8610 C.3   217  LEU217      0.0297
     84  CG       -20.2370   37.4310   31.9800 C.3   217  LEU217      0.0022
     85  CD1      -19.6210   36.1200   31.5600 C.3   217  LEU217      0.0001
     86  CD2      -21.5560   37.1940   32.7030 C.3   217  LEU217      0.0001
     87  N        -24.4830   47.9640   37.6510 N.3   249  ASN249     -0.1240
     88  CA       -25.3050   47.4170   38.7300 C.3   249  ASN249      0.1653
     89  C        -24.4800   47.2520   40.0030 C.2   249  ASN249      0.2266
     90  O        -24.4940   46.2000   40.6430 O.2   249  ASN249     -0.2867
     91  CB       -25.9290   46.0820   38.3130 C.3   249  ASN249      0.1155
     92  CG       -27.0000   45.6120   39.2820 C.2   249  ASN249      0.2627
     93  OD1      -27.7020   46.4200   39.8890 O.2   249  ASN249     -0.2716
     94  ND2      -27.1290   44.2980   39.4300 N.am  249  ASN249     -0.0877
@<TRIPOS>BOND
     1    40    38    1
     2    34    35    1
     3    35    38    1
     4    35    36    1
     5    38    39    1
     6    41    36   am
     7    41    42    1
     8    36    37    2
     9    44    43    2
    10    45    46    1
    11    45    42    1
    12    46    48   ar
    13    46    47   ar
    14    48    50   ar
    15    47    49   ar
    16    77    76    1
    17    77    78    1
    18    50    51   ar
    19    42    43    1
    20    49    51   ar
    21    51    52    1
    22    43    53   am
    23    76    73    1
    24    78    72    1
    25    73    72    1
    26    73    74    1
    27    72    64   am
    28    64    65    2
    29    64    63    1
    30    56    55    2
    31    53    54    1
    32    63    62    1
    33    63    66    1
    34    85    84    1
    35    55    62   am
    36    55    54    1
    37    22    24   ar
    38    22    21   ar
    39    54    57    1
    40    24    25   ar
    41    84    86    1
    42    84    83    1
    43    79    74   am
    44    79    80    1
    45    74    75    2
    46    66    67    1
    47    83    80    1
    48    21    20    1
    49    21    23   ar
    50    20    17    1
    51    25    23   ar
    52    80    81    1
    53    57    58    1
    54    29    28    2
    55    18    17    1
    56    18    19    2
    57    17    16    1
    58    82    81    2
    59    58    59    1
    60    67    68   ar
    61    67    69   ar
    62    28    27    1
    63    68    70   ar
    64    69    71   ar
    65    59    61   am
    66    59    60    2
    67    70    71   ar
    68    27    26    1
    69    27    30    1
    70    30    31    1
    71    32    31    2
    72    31    33   am
    73     4     3    2
    74     1     2    1
    75     5     2    1
    76     5     6    1
    77    10     9    2
    78     3     2    1
    79     3     7   am
    80    87    88    1
    81     9     8    1
    82    91    88    1
    83    91    92    1
    84    88    89    1
    85     7     8    1
    86     8    11    1
    87    14    13   ar
    88    11    12    1
    89    92    94   am
    90    92    93    2
    91    89    90    2
    92    13    12    1
    93    13    15   ar
