@<TRIPOS>MOLECULE
tmp/5lakC00.pdb
 163 158 0 0 0
SMALL
GASTEIGER

@<TRIPOS>ATOM
      1  N          7.7770   31.8140   59.3220 N.3    33  SER33      -0.1217
      2  CA         6.6990   31.6170   60.2720 C.3    33  SER33       0.1889
      3  C          7.2090   31.6410   61.6980 C.2    33  SER33       0.2288
      4  O          8.3280   31.2250   61.9870 O.2    33  SER33      -0.2866
      5  CB         5.9750   30.2970   59.9960 C.3    33  SER33       0.2089
      6  OG         6.7390   29.1890   60.4310 O.3    33  SER33      -0.2183
      7  N         11.5880   39.6910   62.6090 N.3    48  HIS48      -0.1241
      8  CA        12.3780   38.9140   61.6600 C.3    48  HIS48       0.1621
      9  C         11.5210   37.9530   60.8380 C.2    48  HIS48       0.2264
     10  O         12.0280   37.2610   59.9570 O.2    48  HIS48      -0.2867
     11  CB        13.4820   38.1330   62.3800 C.3    48  HIS48       0.0745
     12  CG        12.9860   36.9550   63.1580 C.ar   48  HIS48       0.0817
     13  ND1       12.7780   36.9990   64.5190 N.ar   48  HIS48      -0.2268
     14  CD2       12.6470   35.7030   62.7660 C.ar   48  HIS48       0.1154
     15  CE1       12.3450   35.8220   64.9350 C.ar   48  HIS48       0.1986
     16  NE2       12.2520   35.0200   63.8900 N.ar   48  HIS48      -0.2212
     17  N         15.7110   38.6790   57.8520 N.3    52  SER52      -0.1217
     18  CA        16.7580   38.5780   58.8610 C.3    52  SER52       0.1889
     19  C         17.9100   39.5420   58.5910 C.2    52  SER52       0.2288
     20  O         18.9990   39.3900   59.1430 O.2    52  SER52      -0.2866
     21  CB        17.2830   37.1410   58.9190 C.3    52  SER52       0.2089
     22  OG        18.2840   36.9580   59.7900 O.3    52  SER52      -0.2183
     23  N         14.2430   23.7950   70.9660 N.3   146  THR146     -0.1203
     24  CA        13.4090   24.4880   69.9940 C.3   146  THR146      0.1994
     25  C         13.9250   24.2310   68.5930 C.2   146  THR146      0.2618
     26  O         15.0650   23.8090   68.3980 O.2   146  THR146     -0.2717
     27  CB        13.3650   26.0020   70.2330 C.3   146  THR146      0.1784
     28  OG1       14.6950   26.5320   70.1820 O.3   146  THR146     -0.2211
     29  CG2       12.7280   26.3120   71.5750 C.3   146  THR146      0.0376
     30  N         13.0620   24.4820   67.6220 N.am  147  VAL147     -0.1965
     31  CA        13.4120   24.3290   66.2260 C.3   147  VAL147      0.1727
     32  C         13.0140   25.6170   65.5190 C.2   147  VAL147      0.2616
     33  O         12.2860   26.4300   66.0880 O.2   147  VAL147     -0.2715
     34  CB        12.7100   23.0910   65.6250 C.3   147  VAL147      0.0290
     35  CG1       11.3640   23.4510   65.0060 C.3   147  VAL147      0.0023
     36  CG2       13.6030   22.4200   64.6150 C.3   147  VAL147      0.0023
     37  N         13.5040   25.8200   64.3000 N.am  148  PHE148     -0.1960
     38  CA        13.1800   27.0260   63.5510 C.3   148  PHE148      0.1771
     39  C         11.6700   27.1540   63.4020 C.2   148  PHE148      0.2620
     40  O         11.0100   26.2240   62.9430 O.2   148  PHE148     -0.2715
     41  CB        13.8380   27.0240   62.1730 C.3   148  PHE148      0.0574
     42  CG        13.8120   28.3680   61.4950 C.ar  148  PHE148     -0.0200
     43  CD1       14.7130   29.3580   61.8600 C.ar  148  PHE148     -0.0042
     44  CD2       12.8810   28.6490   60.5100 C.ar  148  PHE148     -0.0042
     45  CE1       14.6900   30.5970   61.2450 C.ar  148  PHE148     -0.0003
     46  CE2       12.8540   29.8860   59.8920 C.ar  148  PHE148     -0.0003
     47  CZ        13.7590   30.8600   60.2610 C.ar  148  PHE148     -0.0000
     48  N         11.1320   28.3060   63.7890 N.am  149  GLY149     -0.1954
     49  CA         9.7030   28.5560   63.7240 C.3   149  GLY149      0.1869
     50  C          9.0860   28.6440   65.1040 C.2   149  GLY149      0.2309
     51  O          7.9600   29.1160   65.2540 O.2   149  GLY149     -0.2863
     52  N          9.9810   30.4870   67.4560 N.3   151  CYS151     -0.1235
     53  CA        10.0340   31.8440   67.9820 C.3   151  CYS151      0.1677
     54  C          8.6170   32.3290   68.2510 C.2   151  CYS151      0.2270
     55  O          7.7090   32.0910   67.4560 O.2   151  CYS151     -0.2867
     56  CB        10.7500   32.7840   67.0130 C.3   151  CYS151      0.0956
     57  SG        12.5420   32.5480   66.9770 S.3   151  CYS151     -0.0801
     58  N         10.6110   33.2940   73.2280 N.3   166  HIS166     -0.1226
     59  CA        11.7600   32.6420   72.6210 C.3   166  HIS166      0.1752
     60  C         12.0630   33.3350   71.2940 C.2   166  HIS166      0.2596
     61  O         11.1380   33.6370   70.5370 O.2   166  HIS166     -0.2718
     62  CB        11.4900   31.1570   72.3960 C.3   166  HIS166      0.0759
     63  CG        12.6110   30.4440   71.7150 C.ar  166  HIS166      0.0818
     64  ND1       13.7420   30.0280   72.3840 N.ar  166  HIS166     -0.2268
     65  CD2       12.7990   30.1150   70.4160 C.ar  166  HIS166      0.1154
     66  CE1       14.5660   29.4500   71.5300 C.ar  166  HIS166      0.1986
     67  NE2       14.0200   29.4920   70.3290 N.ar  166  HIS166     -0.2212
     68  N         13.3400   33.5910   71.0060 N.am  167  CYS167     -0.1956
     69  CA        13.6900   34.3850   69.8260 C.3   167  CYS167      0.1843
     70  C         14.9320   33.9200   69.0600 C.2   167  CYS167      0.2625
     71  O         15.0950   34.2730   67.8920 O.2   167  CYS167     -0.2714
     72  CB        13.8740   35.8490   70.2300 C.3   167  CYS167      0.0997
     73  SG        15.3650   36.2000   71.1910 S.3   167  CYS167     -0.0797
     74  N         15.8020   33.1360   69.6870 N.am  168  ALA168     -0.1963
     75  CA        17.0400   32.7280   69.0200 C.3   168  ALA168      0.1728
     76  C         17.7120   31.5270   69.6840 C.2   168  ALA168      0.2617
     77  O         17.3010   31.0730   70.7520 O.2   168  ALA168     -0.2715
     78  CB        18.0110   33.8950   68.9600 C.3   168  ALA168      0.0334
     79  N         18.7540   31.0210   69.0320 N.am  169  GLY169     -0.1940
     80  CA        19.5120   29.9010   69.5510 C.3   169  GLY169      0.2014
     81  C         20.8240   29.7040   68.8150 C.2   169  GLY169      0.2640
     82  O         21.1790   30.4830   67.9290 O.2   169  GLY169     -0.2714
     83  N         21.5530   28.6640   69.2030 N.am  170  SER170     -0.1935
     84  CA        22.8170   28.3160   68.5680 C.3   170  SER170      0.2055
     85  C         23.0730   26.8350   68.7800 C.2   170  SER170      0.2643
     86  O         22.5560   26.2480   69.7270 O.2   170  SER170     -0.2714
     87  CB        23.9700   29.1430   69.1420 C.3   170  SER170      0.2130
     88  OG        24.2530   28.7590   70.4780 O.3   170  SER170     -0.2179
     89  N         23.8560   26.2250   67.8980 N.am  171  ASP171     -0.1971
     90  CA        24.1970   24.8180   68.0580 C.3   171  ASP171      0.1709
     91  C         25.1550   24.6520   69.2230 C.2   171  ASP171      0.2293
     92  O         25.1560   23.6300   69.9050 O.2   171  ASP171     -0.2864
     93  CB        24.8360   24.2560   66.7880 C.3   171  ASP171      0.1436
     94  CG        23.9360   24.3760   65.5800 C.2   171  ASP171      0.3671
     95  OD1       22.7130   24.5420   65.7630 O.co2 171  ASP171     -0.2456
     96  OD2       24.4550   24.3020   64.4460 O.co2 171  ASP171     -0.2456
     97  N         19.5940   28.5800   74.0150 N.3   196  GLU196     -0.1245
     98  CA        18.2120   28.9400   73.7380 C.3   196  GLU196      0.1567
     99  C         17.9760   30.2980   74.3760 C.2   196  GLU196      0.2260
    100  O         18.2070   30.4580   75.5770 O.2   196  GLU196     -0.2867
    101  CB        17.2470   27.9020   74.3080 C.3   196  GLU196      0.0388
    102  CG        17.5200   26.4590   73.8820 C.3   196  GLU196      0.1160
    103  CD        16.9420   26.1160   72.5200 C.2   196  GLU196      0.3649
    104  OE1       16.2380   26.9600   71.9320 O.co2 196  GLU196     -0.2457
    105  OE2       17.1830   24.9910   72.0330 O.co2 196  GLU196     -0.2457
    106  N         22.1130   39.6610   75.3780 N.3   207  LEU207     -0.1231
    107  CA        23.1420   39.5550   74.3510 C.3   207  LEU207      0.1678
    108  C         23.7670   40.9260   74.1050 C.2   207  LEU207      0.2434
    109  O         23.1220   41.9490   74.3330 O.2   207  LEU207     -0.2733
    110  CB        22.5630   39.0240   73.0380 C.3   207  LEU207      0.0284
    111  CG        22.1880   37.5480   72.9250 C.3   207  LEU207      0.0019
    112  CD1       21.5690   37.3030   71.5600 C.3   207  LEU207      0.0001
    113  CD2       23.3880   36.6350   73.1510 C.3   207  LEU207      0.0001
    114  N         25.0260   40.9610   73.6450 N.am  208  PRO208     -0.2729
    115  CA        25.5660   42.2430   73.1760 C.3   208  PRO208      0.1401
    116  C         24.8330   42.7570   71.9340 C.2   208  PRO208      0.2269
    117  O         24.3150   41.9600   71.1460 O.2   208  PRO208     -0.2865
    118  CB        27.0270   41.9180   72.8580 C.3   208  PRO208      0.0296
    119  CG        27.3360   40.7040   73.6590 C.3   208  PRO208      0.0237
    120  CD        26.0680   39.9250   73.7480 C.3   208  PRO208      0.0939
    121  N         20.1350   42.7690   67.2690 N.3   213  TYR213     -0.1227
    122  CA        20.6410   41.4140   67.4700 C.3   213  TYR213      0.1736
    123  C         20.1490   40.4590   66.3820 C.2   213  TYR213      0.2595
    124  O         20.8440   39.5130   66.0090 O.2   213  TYR213     -0.2718
    125  CB        20.2090   40.8850   68.8390 C.3   213  TYR213      0.0548
    126  CG        18.8150   40.3070   68.8250 C.ar  213  TYR213     -0.0200
    127  CD1       17.7030   41.1240   68.9690 C.ar  213  TYR213     -0.0009
    128  CD2       18.6100   38.9450   68.6420 C.ar  213  TYR213     -0.0009
    129  CE1       16.4260   40.5990   68.9410 C.ar  213  TYR213      0.0417
    130  CE2       17.3380   38.4110   68.6130 C.ar  213  TYR213      0.0417
    131  CZ        16.2510   39.2420   68.7630 C.ar  213  TYR213      0.1957
    132  OH        14.9830   38.7140   68.7360 O.3   213  TYR213     -0.2866
    133  N         18.9390   40.7030   65.8930 N.am  214  ASP214     -0.1974
    134  CA        18.2870   39.7810   64.9700 C.3   214  ASP214      0.1709
    135  C         18.7840   39.9780   63.5400 C.2   214  ASP214      0.2293
    136  O         18.5050   39.1590   62.6650 O.2   214  ASP214     -0.2864
    137  CB        16.7650   39.9400   65.0420 C.3   214  ASP214      0.1436
    138  CG        16.3120   41.3650   64.8040 C.2   214  ASP214      0.3671
    139  OD1       17.1490   42.2810   64.9360 O.co2 214  ASP214     -0.2456
    140  OD2       15.1180   41.5680   64.4950 O.co2 214  ASP214     -0.2456
    141  N         22.1730   41.0770   63.2400 N.3   216  GLU216     -0.1231
    142  CA        23.6170   40.9770   63.4380 C.3   216  GLU216      0.1699
    143  C         23.9170   39.7440   64.2800 C.2   216  GLU216      0.2593
    144  O         23.7410   39.7630   65.5000 O.2   216  GLU216     -0.2718
    145  CB        24.1620   42.2390   64.1090 C.3   216  GLU216      0.0402
    146  CG        24.3330   43.4010   63.1430 C.3   216  GLU216      0.1161
    147  CD        25.5120   43.2280   62.2010 C.2   216  GLU216      0.3649
    148  OE1       26.4440   42.4480   62.4990 O.co2 216  GLU216     -0.2457
    149  OE2       25.5120   43.8900   61.1390 O.co2 216  GLU216     -0.2457
    150  N         24.4150   38.6910   63.6380 N.am  217  THR217     -0.1939
    151  CA        24.6720   37.4360   64.3310 C.3   217  THR217      0.2028
    152  C         26.1540   37.2250   64.6000 C.2   217  THR217      0.2642
    153  O         26.9870   37.3100   63.6990 O.2   217  THR217     -0.2714
    154  CB        24.1460   36.2360   63.5190 C.3   217  THR217      0.1808
    155  OG1       24.8090   36.2200   62.2640 O.3   217  THR217     -0.2208
    156  CG2       22.6430   36.2930   63.3290 C.3   217  THR217      0.0379
    157  N         26.4560   36.9570   65.8670 N.am  218  THR218     -0.1950
    158  CA        27.8120   36.6930   66.3300 C.3   218  THR218      0.1897
    159  C         27.8430   35.3690   67.0790 C.2   218  THR218      0.2313
    160  O         26.8020   34.7560   67.3180 O.2   218  THR218     -0.2863
    161  CB        28.3270   37.8140   67.2550 C.3   218  THR218      0.1794
    162  OG1       27.4650   37.8960   68.3800 O.3   218  THR218     -0.2208
    163  CG2       28.4040   39.1500   66.5410 C.3   218  THR218      0.0378
@<TRIPOS>BOND
     1    17    18    1
     2    19    18    1
     3    19    20    2
     4    18    21    1
     5    21    22    1
     6     1     2    1
     7    46    47   ar
     8    46    44   ar
     9    10     9    2
    10     5     2    1
    11     5     6    1
    12    47    45   ar
    13     2     3    1
    14    44    42   ar
    15     9     8    1
    16   149   147   ar
    17    45    43   ar
    18    42    43   ar
    19    42    41    1
    20     8    11    1
    21     8     7    1
    22     3     4    2
    23    41    38    1
    24   147   148   ar
    25   147   146    1
    26   155   154    1
    27    11    12    1
    28   136   135    2
    29    14    12   ar
    30    14    16   ar
    31    40    39    2
    32   146   145    1
    33    12    13   ar
    34   141   142    1
    35   156   154    1
    36    39    38    1
    37    39    48   am
    38   142   145    1
    39   142   143    1
    40   154   151    1
    41   135   134    1
    42    38    37    1
    43   150   143   am
    44   150   151    1
    45   153   152    2
    46    49    48    1
    47    49    50    1
    48    16    15   ar
    49   143   144    2
    50    37    32   am
    51   151   152    1
    52    96    94   ar
    53   140   138   ar
    54    13    15   ar
    55   152   157   am
    56    36    34    1
    57   138   139   ar
    58   138   137    1
    59   134   137    1
    60   134   133    1
    61    35    34    1
    62    50    51    2
    63    32    33    2
    64    32    31    1
    65    94    95   ar
    66    94    93    1
    67    34    31    1
    68   157   158    1
    69   133   123   am
    70   124   123    2
    71    31    30    1
    72   158   159    1
    73   158   161    1
    74   123   122    1
    75   163   161    1
    76    93    90    1
    77    57    56    1
    78    56    53    1
    79   159   160    2
    80   161   162    1
    81   121   122    1
    82    55    54    2
    83    52    53    1
    84   122   125    1
    85    30    25   am
    86    71    70    2
    87    89    90    1
    88    89    85   am
    89    82    81    2
    90    53    54    1
    91    90    91    1
    92    26    25    2
    93    84    85    1
    94    84    87    1
    95    84    83    1
    96    25    24    1
    97   130   128   ar
    98   130   131   ar
    99   128   126   ar
   100   132   131    1
   101   131   129   ar
   102    85    86    2
   103    81    83   am
   104    81    80    1
   105   126   125    1
   106   126   127   ar
   107   129   127   ar
   108    78    75    1
   109    75    76    1
   110    75    74    1
   111    79    80    1
   112    79    76   am
   113    70    74   am
   114    70    69    1
   115    87    88    1
   116    91    92    2
   117    76    77    2
   118    69    72    1
   119    69    68    1
   120    24    27    1
   121    24    23    1
   122    28    27    1
   123    72    73    1
   124    27    29    1
   125    67    65   ar
   126    67    66   ar
   127    65    63   ar
   128    61    60    2
   129    68    60   am
   130   117   116    2
   131    60    59    1
   132    66    64   ar
   133   112   111    1
   134    63    64   ar
   135    63    62    1
   136   104   103   ar
   137   116   115    1
   138   105   103   ar
   139    62    59    1
   140   103   102    1
   141    59    58    1
   142   118   115    1
   143   118   119    1
   144   111   110    1
   145   111   113    1
   146   110   107    1
   147   115   114    1
   148   114   120    1
   149   114   108   am
   150   119   120    1
   151    98    97    1
   152    98   101    1
   153    98    99    1
   154   102   101    1
   155   108   109    2
   156   108   107    1
   157   107   106    1
   158    99   100    2
