@<TRIPOS>MOLECULE
tmp/5lakC01.pdb
 102 100 0 0 0
SMALL
GASTEIGER

@<TRIPOS>ATOM
      1  N         14.7530   39.3670   83.1120 N.3   110  LEU110     -0.1245
      2  CA        16.1490   38.9990   82.8950 C.3   110  LEU110      0.1561
      3  C         16.8980   38.7140   84.1940 C.2   110  LEU110      0.2260
      4  O         18.0310   38.2370   84.1620 O.2   110  LEU110     -0.2867
      5  CB        16.8810   40.0970   82.1180 C.3   110  LEU110      0.0270
      6  CG        16.5550   40.2660   80.6310 C.3   110  LEU110      0.0019
      7  CD1       17.5570   41.2130   79.9880 C.3   110  LEU110      0.0001
      8  CD2       16.5380   38.9320   79.8890 C.3   110  LEU110      0.0001
      9  N         18.3060   30.7600   82.9720 N.3   138  SER138     -0.1202
     10  CA        19.2670   31.6170   83.6540 C.3   138  SER138      0.2020
     11  C         19.4300   32.9290   82.8830 C.2   138  SER138      0.2618
     12  O         20.0530   32.9640   81.8210 O.2   138  SER138     -0.2717
     13  CB        20.6130   30.9020   83.7930 C.3   138  SER138      0.2103
     14  OG        21.4890   31.6240   84.6390 O.3   138  SER138     -0.2182
     15  N         18.8640   34.0000   83.4350 N.am  139  GLU139     -0.1979
     16  CA        18.9310   35.3440   82.8530 C.3   139  GLU139      0.1602
     17  C         18.6190   35.3710   81.3570 C.2   139  GLU139      0.2287
     18  O         19.4060   35.8800   80.5570 O.2   139  GLU139     -0.2864
     19  CB        20.3160   35.9510   83.0880 C.3   139  GLU139      0.0415
     20  CG        20.6970   36.0620   84.5520 C.3   139  GLU139      0.1163
     21  CD        21.1160   34.7290   85.1420 C.2   139  GLU139      0.3649
     22  OE1       21.8730   34.0010   84.4700 O.co2 139  GLU139     -0.2457
     23  OE2       20.6760   34.3990   86.2620 O.co2 139  GLU139     -0.2457
     24  N         18.3230   32.8930   79.3000 N.3   141  HIS141     -0.1241
     25  CA        18.8810   31.7640   78.5620 C.3   141  HIS141      0.1621
     26  C         18.3590   30.4700   79.1700 C.2   141  HIS141      0.2264
     27  O         18.5490   30.2250   80.3630 O.2   141  HIS141     -0.2867
     28  CB        20.4120   31.7960   78.5960 C.3   141  HIS141      0.0745
     29  CG        21.0110   32.9630   77.8750 C.ar  141  HIS141      0.0817
     30  ND1       21.6930   32.8320   76.6860 N.ar  141  HIS141     -0.2268
     31  CD2       21.0300   34.2840   78.1750 C.ar  141  HIS141      0.1154
     32  CE1       22.1060   34.0200   76.2820 C.ar  141  HIS141      0.1986
     33  NE2       21.7170   34.9180   77.1680 N.ar  141  HIS141     -0.2212
     34  N         19.4600   39.1400   76.6690 N.3   206  ASN206     -0.1240
     35  CA        20.7770   39.0200   77.2780 C.3   206  ASN206      0.1653
     36  C         21.8270   38.6760   76.2240 C.2   206  ASN206      0.2266
     37  O         22.3490   37.5630   76.1730 O.2   206  ASN206     -0.2867
     38  CB        20.7440   37.9770   78.3980 C.3   206  ASN206      0.1155
     39  CG        21.9710   38.0320   79.2850 C.2   206  ASN206      0.2627
     40  OD1       22.8870   38.8140   79.0460 O.2   206  ASN206     -0.2716
     41  ND2       21.9680   37.2360   80.3450 N.am  206  ASN206     -0.0877
     42  N         28.6850   33.5810   73.5560 N.3   221  VAL221     -0.1231
     43  CA        29.7120   33.4160   74.5700 C.3   221  VAL221      0.1692
     44  C         29.0980   33.2280   75.9520 C.2   221  VAL221      0.2592
     45  O         28.3520   34.0820   76.4340 O.2   221  VAL221     -0.2718
     46  CB        30.6550   34.6320   74.6040 C.3   221  VAL221      0.0266
     47  CG1       31.8570   34.3480   75.4930 C.3   221  VAL221      0.0020
     48  CG2       31.1100   34.9960   73.1950 C.3   221  VAL221      0.0020
     49  N         29.4120   32.0930   76.5710 N.am  222  TYR222     -0.1962
     50  CA        28.9880   31.7920   77.9330 C.3   222  TYR222      0.1771
     51  C         30.1920   31.8160   78.8600 C.2   222  TYR222      0.2619
     52  O         31.3200   31.6070   78.4230 O.2   222  TYR222     -0.2715
     53  CB        28.3040   30.4240   78.0080 C.3   222  TYR222      0.0574
     54  CG        26.8470   30.4110   77.6020 C.ar  222  TYR222     -0.0198
     55  CD1       26.2790   31.4750   76.9100 C.ar  222  TYR222     -0.0009
     56  CD2       26.0330   29.3310   77.9230 C.ar  222  TYR222     -0.0009
     57  CE1       24.9510   31.4580   76.5480 C.ar  222  TYR222      0.0417
     58  CE2       24.7060   29.3070   77.5640 C.ar  222  TYR222      0.0417
     59  CZ        24.1680   30.3720   76.8790 C.ar  222  TYR222      0.1957
     60  OH        22.8410   30.3510   76.5200 O.3   222  TYR222     -0.2866
     61  N         29.9560   32.0860   80.1360 N.am  223  GLN223     -0.1963
     62  CA        31.0110   31.9640   81.1250 C.3   223  GLN223      0.1733
     63  C         30.9940   30.5580   81.6970 C.2   223  GLN223      0.2616
     64  O         32.0290   30.0100   82.0800 O.2   223  GLN223     -0.2715
     65  CB        30.8430   32.9960   82.2360 C.3   223  GLN223      0.0408
     66  CG        32.0240   33.0550   83.1910 C.3   223  GLN223      0.0908
     67  CD        31.9480   34.2370   84.1370 C.2   223  GLN223      0.2608
     68  OE1       31.0150   35.0390   84.0720 O.2   223  GLN223     -0.2717
     69  NE2       32.9450   34.3690   85.0020 N.am  223  GLN223     -0.0878
     70  N         29.8090   29.9610   81.7100 N.am  224  HIS224     -0.1960
     71  CA        29.6100   28.6710   82.3410 C.3   224  HIS224      0.1772
     72  C         28.3010   28.0670   81.8620 C.2   224  HIS224      0.2462
     73  O         27.4680   28.7710   81.2940 O.2   224  HIS224     -0.2730
     74  CB        29.5900   28.8350   83.8580 C.3   224  HIS224      0.0785
     75  CG        28.6700   29.9180   84.3270 C.ar  224  HIS224      0.0821
     76  ND1       27.2980   29.7910   84.3000 N.ar  224  HIS224     -0.2267
     77  CD2       28.9230   31.1630   84.7980 C.ar  224  HIS224      0.1154
     78  CE1       26.7460   30.9020   84.7560 C.ar  224  HIS224      0.1986
     79  NE2       27.7110   31.7510   85.0630 N.ar  224  HIS224     -0.2212
     80  N         28.1170   26.7560   82.0800 N.am  225  PRO225     -0.2716
     81  CA        26.8270   26.1330   81.7760 C.3   225  PRO225      0.1536
     82  C         25.7050   26.7430   82.6000 C.2   225  PRO225      0.2598
     83  O         25.9690   27.3850   83.6160 O.2   225  PRO225     -0.2715
     84  CB        27.0440   24.6620   82.1440 C.3   225  PRO225      0.0310
     85  CG        28.5100   24.4640   82.0960 C.3   225  PRO225      0.0237
     86  CD        29.1150   25.7650   82.5200 C.3   225  PRO225      0.0939
     87  N         24.4700   26.5500   82.1500 N.am  226  LEU226     -0.1978
     88  CA        23.3020   27.0400   82.8650 C.3   226  LEU226      0.1596
     89  C         23.3340   26.5420   84.2990 C.2   226  LEU226      0.2287
     90  O         23.5060   25.3490   84.5470 O.2   226  LEU226     -0.2864
     91  CB        22.0290   26.5670   82.1710 C.3   226  LEU226      0.0297
     92  CG        21.8940   27.0020   80.7130 C.3   226  LEU226      0.0022
     93  CD1       20.6920   26.3300   80.0630 C.3   226  LEU226      0.0001
     94  CD2       21.7860   28.5130   80.6160 C.3   226  LEU226      0.0001
     95  N         30.9760   32.4660   87.9400 N.3   258  ASN258     -0.1240
     96  CA        30.4420   33.7830   88.2740 C.3   258  ASN258      0.1653
     97  C         29.6940   33.7420   89.5970 C.2   258  ASN258      0.2266
     98  O         28.5670   34.2350   89.7020 O.2   258  ASN258     -0.2867
     99  CB        29.5120   34.3170   87.1830 C.3   258  ASN258      0.1155
    100  CG        29.1980   35.7940   87.3680 C.2   258  ASN258      0.2627
    101  OD1       30.0420   36.5590   87.8280 O.2   258  ASN258     -0.2716
    102  ND2       27.9660   36.1870   87.0670 N.am  258  ASN258     -0.0877
@<TRIPOS>BOND
     1    48    46    1
     2    42    43    1
     3    43    46    1
     4    43    44    1
     5    46    47    1
     6    44    45    2
     7    44    49   am
     8    37    36    2
     9    36    35    1
    10    32    30   ar
    11    32    33   ar
    12    60    59    1
    13    57    59   ar
    14    57    55   ar
    15    49    50    1
    16    34    35    1
    17    30    29   ar
    18    59    58   ar
    19    55    54   ar
    20    33    31   ar
    21    35    38    1
    22    58    56   ar
    23    54    56   ar
    24    54    53    1
    25    29    31   ar
    26    29    28    1
    27    50    53    1
    28    50    51    1
    29    38    39    1
    30    52    51    2
    31    25    28    1
    32    25    26    1
    33    25    24    1
    34    51    61   am
    35    40    39    2
    36    26    27    2
    37    39    41   am
    38     8     6    1
    39     7     6    1
    40    93    92    1
    41    61    62    1
    42    18    17    2
    43    94    92    1
    44     6     5    1
    45    92    91    1
    46    62    63    1
    47    62    65    1
    48    73    72    2
    49    17    16    1
    50    63    70   am
    51    63    64    2
    52    70    71    1
    53    81    80    1
    54    81    84    1
    55    81    82    1
    56    12    11    2
    57    72    80   am
    58    72    71    1
    59    80    86    1
    60    85    84    1
    61    85    86    1
    62     5     2    1
    63    87    82   am
    64    87    88    1
    65    91    88    1
    66    65    66    1
    67    71    74    1
    68    82    83    2
    69    16    19    1
    70    16    15    1
    71    88    89    1
    72    11    15   am
    73    11    10    1
    74     2     1    1
    75     2     3    1
    76     9    10    1
    77    19    20    1
    78    66    67    1
    79    10    13    1
    80    13    14    1
    81    74    75    1
    82    68    67    2
    83    67    69   am
    84     4     3    2
    85    89    90    2
    86    76    75   ar
    87    76    78   ar
    88    75    77   ar
    89    22    21   ar
    90    20    21    1
    91    78    79   ar
    92    77    79   ar
    93    21    23   ar
    94   102   100   am
    95    99   100    1
    96    99    96    1
    97   100   101    2
    98    95    96    1
    99    96    97    1
   100    97    98    2
