@<TRIPOS>MOLECULE
tmp/5lavA00.pdb
 150 143 0 0 0
SMALL
GASTEIGER

@<TRIPOS>ATOM
      1  N          1.7830    6.0870   -9.7600 N.3     1  ILE1       -0.1245
      2  CA         2.5040    6.3000   -8.4700 C.3     1  ILE1        0.1561
      3  C          2.8390    4.9330   -7.8570 C.2     1  ILE1        0.2260
      4  O          1.9250    4.1610   -7.5570 O.2     1  ILE1       -0.2867
      5  CB         1.6550    7.0850   -7.4330 C.3     1  ILE1        0.0252
      6  CG1        1.0830    8.3970   -8.0080 C.3     1  ILE1        0.0019
      7  CG2        2.4870    7.3570   -6.1830 C.3     1  ILE1        0.0019
      8  CD1        2.0190    9.5880   -7.9680 C.3     1  ILE1        0.0001
      9  N          5.1050    5.8810   -0.6140 N.3     6  GLN6       -0.1245
     10  CA         4.5380    6.0070    0.7480 C.3     6  GLN6        0.1566
     11  C          5.5490    5.7930    1.8830 C.2     6  GLN6        0.2260
     12  O          5.3840    6.3500    2.9560 O.2     6  GLN6       -0.2867
     13  CB         3.3760    5.0200    0.9530 C.3     6  GLN6        0.0367
     14  CG         2.1620    5.2520    0.0660 C.3     6  GLN6        0.0905
     15  CD         1.3740    6.4660    0.4620 C.2     6  GLN6        0.2608
     16  OE1        1.8010    7.5950    0.2280 O.2     6  GLN6       -0.2717
     17  NE2        0.2100    6.2490    1.0650 N.am    6  GLN6       -0.0878
     18  N          0.8190   12.4210    4.1370 N.3    36  LEU36      -0.1231
     19  CA        -0.4090   12.3880    3.3430 C.3    36  LEU36       0.1693
     20  C         -1.6540   12.1930    4.2100 C.2    36  LEU36       0.2592
     21  O         -2.6910   12.8320    3.9640 O.2    36  LEU36      -0.2718
     22  CB        -0.3280   11.3130    2.2530 C.3    36  LEU36       0.0284
     23  CG         0.5190   11.7690    1.0600 C.3    36  LEU36       0.0019
     24  CD1        1.0430   10.5670    0.2720 C.3    36  LEU36       0.0001
     25  CD2       -0.2930   12.7260    0.1770 C.3    36  LEU36       0.0001
     26  N         -1.5620   11.3400    5.2290 N.am   37  PHE37      -0.1976
     27  CA        -2.6640   11.1830    6.1780 C.3    37  PHE37       0.1639
     28  C         -2.9960   12.4550    6.9520 C.2    37  PHE37       0.2290
     29  O         -4.1880   12.8020    7.1020 O.2    37  PHE37      -0.2864
     30  CB        -2.4100   10.0740    7.1970 C.3    37  PHE37       0.0560
     31  CG        -3.4070   10.0820    8.3190 C.ar   37  PHE37      -0.0200
     32  CD1       -4.6750    9.5470    8.1330 C.ar   37  PHE37      -0.0042
     33  CD2       -3.1050   10.6900    9.5380 C.ar   37  PHE37      -0.0042
     34  CE1       -5.6210    9.5710    9.1630 C.ar   37  PHE37      -0.0003
     35  CE2       -4.0450   10.7360   10.5650 C.ar   37  PHE37      -0.0003
     36  CZ        -5.3090   10.1680   10.3770 C.ar   37  PHE37      -0.0000
     37  N         -2.1600   15.5930    6.1990 N.3    39  LEU39      -0.1231
     38  CA        -2.7120   16.5730    5.2350 C.3    39  LEU39       0.1693
     39  C         -4.1980   16.3160    4.9200 C.2    39  LEU39       0.2592
     40  O         -5.0180   17.2510    4.9160 O.2    39  LEU39      -0.2718
     41  CB        -1.9050   16.6050    3.9410 C.3    39  LEU39       0.0284
     42  CG        -0.5720   17.3550    4.0550 C.3    39  LEU39       0.0019
     43  CD1        0.2890   17.0300    2.8380 C.3    39  LEU39       0.0001
     44  CD2       -0.7620   18.8590    4.1950 C.3    39  LEU39       0.0001
     45  N         -4.5300   15.0520    4.6630 N.am   40  GLY40      -0.1957
     46  CA        -5.9260   14.6340    4.4420 C.3    40  GLY40       0.1869
     47  C         -6.8400   14.9700    5.6080 C.2    40  GLY40       0.2309
     48  O         -7.9620   15.4700    5.4050 O.2    40  GLY40      -0.2863
     49  N         -7.2870   18.8430    5.6380 N.3    43  ILE43      -0.1231
     50  CA        -8.3080   19.1340    4.6170 C.3    43  ILE43       0.1692
     51  C         -9.7650   18.8290    5.0400 C.2    43  ILE43       0.2591
     52  O        -10.6390   19.6870    4.8950 O.2    43  ILE43      -0.2718
     53  CB        -7.9880   18.4000    3.2910 C.3    43  ILE43       0.0266
     54  CG1       -6.7540   19.0380    2.6480 C.3    43  ILE43       0.0019
     55  CG2       -9.1980   18.4410    2.3320 C.3    43  ILE43       0.0020
     56  CD1       -6.0810   18.1980    1.5970 C.3    43  ILE43       0.0001
     57  N        -10.0250   17.6170    5.5280 N.am   44  MET44      -0.1979
     58  CA       -11.3940   17.2360    5.9360 C.3    44  MET44       0.1605
     59  C        -11.8460   17.9490    7.1970 C.2    44  MET44       0.2287
     60  O        -13.0380   18.2110    7.3520 O.2    44  MET44      -0.2864
     61  CB       -11.5280   15.7230    6.1370 C.3    44  MET44       0.0413
     62  CG       -11.3580   14.9200    4.8650 C.3    44  MET44       0.0598
     63  SD       -12.5690   15.3580    3.5940 S.3    44  MET44      -0.1393
     64  CE       -14.0590   14.6460    4.2820 C.3    44  MET44       0.0692
     65  N        -12.6100   20.2800    1.2430 N.3    49  TYR49      -0.1241
     66  CA       -13.0010   19.3010    0.2310 C.3    49  TYR49       0.1605
     67  C        -14.4220   18.7750    0.4800 C.2    49  TYR49       0.2264
     68  O        -14.8610   18.6750    1.6250 O.2    49  TYR49      -0.2867
     69  CB       -12.0260   18.1220    0.2670 C.3    49  TYR49       0.0534
     70  CG       -12.3450   17.0070   -0.7110 C.ar   49  TYR49      -0.0201
     71  CD1      -11.9610   17.0970   -2.0490 C.ar   49  TYR49      -0.0009
     72  CD2      -13.0330   15.8640   -0.2980 C.ar   49  TYR49      -0.0009
     73  CE1      -12.2540   16.0740   -2.9560 C.ar   49  TYR49       0.0417
     74  CE2      -13.3360   14.8360   -1.1980 C.ar   49  TYR49       0.0417
     75  CZ       -12.9420   14.9460   -2.5250 C.ar   49  TYR49       0.1957
     76  OH       -13.2350   13.9350   -3.4110 O.3    49  TYR49      -0.2866
     77  N        -10.0200   20.6020   -3.9370 N.3    57  VAL57      -0.1245
     78  CA        -9.6660   21.1720   -2.6360 C.3    57  VAL57       0.1561
     79  C         -9.5100   22.6940   -2.7860 C.2    57  VAL57       0.2260
     80  O         -8.7490   23.1480   -3.6320 O.2    57  VAL57      -0.2867
     81  CB        -8.3860   20.5580   -2.0760 C.3    57  VAL57       0.0252
     82  CG1       -7.9210   21.3070   -0.8500 C.3    57  VAL57       0.0019
     83  CG2       -8.6080   19.0820   -1.7590 C.3    57  VAL57       0.0019
     84  N         -2.5870   26.0260    3.8030 N.3    64  LEU64      -0.1245
     85  CA        -2.3470   25.0370    2.7400 C.3    64  LEU64       0.1561
     86  C         -2.1540   25.6820    1.3580 C.2    64  LEU64       0.2260
     87  O         -1.3350   25.2160    0.5720 O.2    64  LEU64      -0.2867
     88  CB        -3.4840   24.0100    2.7010 C.3    64  LEU64       0.0270
     89  CG        -3.3670   22.8730    1.6870 C.3    64  LEU64       0.0019
     90  CD1       -2.1060   22.0750    1.9530 C.3    64  LEU64       0.0001
     91  CD2       -4.6040   21.9780    1.7210 C.3    64  LEU64       0.0001
     92  N          1.2650   25.3280   -0.8600 N.3    68  PHE68      -0.1241
     93  CA         1.1750   24.7450   -2.2090 C.3    68  PHE68       0.1605
     94  C          1.3120   25.7680   -3.3500 C.2    68  PHE68       0.2264
     95  O          1.6440   25.3910   -4.4780 O.2    68  PHE68      -0.2867
     96  CB        -0.1330   23.9440   -2.3400 C.3    68  PHE68       0.0534
     97  CG        -0.0940   22.5600   -1.7130 C.ar   68  PHE68      -0.0203
     98  CD1        0.9450   22.1360   -0.8590 C.ar   68  PHE68      -0.0042
     99  CD2       -1.1290   21.6670   -1.9740 C.ar   68  PHE68      -0.0042
    100  CE1        0.9380   20.8520   -0.3040 C.ar   68  PHE68      -0.0003
    101  CE2       -1.1410   20.3970   -1.4210 C.ar   68  PHE68      -0.0003
    102  CZ        -0.1090   19.9840   -0.5870 C.ar   68  PHE68      -0.0000
    103  N         -6.8140   22.8820   -5.9340 N.3    73  PHE73      -0.1241
    104  CA        -6.2960   21.7950   -6.7640 C.3    73  PHE73       0.1605
    105  C         -7.2460   20.6100   -6.7750 C.2    73  PHE73       0.2264
    106  O         -8.0560   20.4570   -5.8620 O.2    73  PHE73      -0.2867
    107  CB        -4.9090   21.3650   -6.2820 C.3    73  PHE73       0.0534
    108  CG        -4.8880   20.8450   -4.8770 C.ar   73  PHE73      -0.0203
    109  CD1       -4.7120   21.7060   -3.7930 C.ar   73  PHE73      -0.0042
    110  CD2       -5.0560   19.4950   -4.6290 C.ar   73  PHE73      -0.0042
    111  CE1       -4.6980   21.2120   -2.4920 C.ar   73  PHE73      -0.0003
    112  CE2       -5.0430   19.0050   -3.3280 C.ar   73  PHE73      -0.0003
    113  CZ        -4.8570   19.8560   -2.2660 C.ar   73  PHE73      -0.0000
    114  N         -7.9840   16.6790   -6.3590 N.3    75  VAL75      -0.1245
    115  CA        -7.4430   15.4970   -5.6420 C.3    75  VAL75       0.1561
    116  C         -7.0580   14.3210   -6.5580 C.2    75  VAL75       0.2260
    117  O         -6.3760   13.3990   -6.1110 O.2    75  VAL75      -0.2867
    118  CB        -8.4210   14.9580   -4.5500 C.3    75  VAL75       0.0252
    119  CG1       -8.7260   16.0350   -3.5200 C.3    75  VAL75       0.0019
    120  CG2       -9.7040   14.4240   -5.1730 C.3    75  VAL75       0.0019
    121  N         -2.5400   13.2740   -8.6750 N.3    78  HIS78      -0.1241
    122  CA        -1.6430   12.7220   -7.6480 C.3    78  HIS78       0.1621
    123  C         -0.1900   13.1820   -7.7710 C.2    78  HIS78       0.2264
    124  O          0.4270   13.5630   -6.7760 O.2    78  HIS78      -0.2867
    125  CB        -1.6820   11.1920   -7.6870 C.3    78  HIS78       0.0745
    126  CG        -2.7610   10.5870   -6.8430 C.ar   78  HIS78       0.0817
    127  ND1       -4.0270   11.1230   -6.7540 N.ar   78  HIS78      -0.2268
    128  CD2       -2.7670    9.4770   -6.0660 C.ar   78  HIS78       0.1154
    129  CE1       -4.7620   10.3770   -5.9480 C.ar   78  HIS78       0.1986
    130  NE2       -4.0210    9.3720   -5.5180 N.ar   78  HIS78      -0.2212
    131  N          0.2210   16.7330   -6.6840 N.3    81  ILE81      -0.1231
    132  CA         0.1530   16.8400   -5.2170 C.3    81  ILE81       0.1692
    133  C          1.5050   16.4990   -4.5800 C.2    81  ILE81       0.2592
    134  O          1.9790   17.2350   -3.7180 O.2    81  ILE81      -0.2718
    135  CB        -1.0050   15.9880   -4.6210 C.3    81  ILE81       0.0266
    136  CG1       -2.3510   16.6140   -5.0020 C.3    81  ILE81       0.0019
    137  CG2       -0.8710   15.8740   -3.1020 C.3    81  ILE81       0.0020
    138  CD1       -3.5270   15.6510   -4.9880 C.3    81  ILE81       0.0001
    139  N          2.1560   15.4350   -5.0610 N.am   82  TYR82      -0.1976
    140  CA         3.4780   15.0690   -4.5480 C.3    82  TYR82       0.1639
    141  C          4.4790   16.1840   -4.7970 C.2    82  TYR82       0.2290
    142  O          5.2880   16.4820   -3.9160 O.2    82  TYR82      -0.2864
    143  CB         3.9840   13.7540   -5.1550 C.3    82  TYR82       0.0560
    144  CG         3.4350   12.5220   -4.4780 C.ar   82  TYR82      -0.0198
    145  CD1        3.8540   12.1620   -3.1940 C.ar   82  TYR82      -0.0009
    146  CD2        2.5010   11.7020   -5.1140 C.ar   82  TYR82      -0.0009
    147  CE1        3.3360   11.0290   -2.5590 C.ar   82  TYR82       0.0417
    148  CE2        1.9990   10.5490   -4.4910 C.ar   82  TYR82       0.0417
    149  CZ         2.4200   10.2290   -3.2090 C.ar   82  TYR82       0.1957
    150  OH         1.9350    9.1010   -2.5840 O.3    82  TYR82      -0.2866
@<TRIPOS>BOND
     1     1     2    1
     2   121   122    1
     3     2     3    1
     4     2     5    1
     5     6     8    1
     6     6     5    1
     7     3     4    2
     8   123   122    1
     9   123   124    2
    10   125   122    1
    11   125   126    1
    12     5     7    1
    13   126   127   ar
    14   126   128   ar
    15   105   104    1
    16   105   106    2
    17   104   107    1
    18   104   103    1
    19   127   129   ar
    20   131   132    1
    21   116   117    2
    22   116   115    1
    23   114   115    1
    24   107   108    1
    25   128   130   ar
    26   129   130   ar
    27   115   118    1
    28   132   135    1
    29   132   133    1
    30   120   118    1
    31   143   140    1
    32   143   144    1
    33   146   148   ar
    34   146   144   ar
    35   139   133   am
    36   139   140    1
    37   136   138    1
    38   136   135    1
    39   108   110   ar
    40   108   109   ar
    41   141   140    1
    42   141   142    2
    43   110   112   ar
    44   135   137    1
    45   133   134    2
    46   118   119    1
    47   148   149   ar
    48   144   145   ar
    49    95    94    2
    50    77    78    1
    51   109   111   ar
    52    80    79    2
    53    76    75    1
    54    94    93    1
    55   112   113   ar
    56   149   150    1
    57   149   147   ar
    58   145   147   ar
    59    73    75   ar
    60    73    71   ar
    61    79    78    1
    62    78    81    1
    63    75    74   ar
    64   111   113   ar
    65    96    93    1
    66    96    97    1
    67    93    92    1
    68    81    83    1
    69    81    82    1
    70    71    70   ar
    71    99    97   ar
    72    99   101   ar
    73    97    98   ar
    74   101   102   ar
    75    74    72   ar
    76    98   100   ar
    77    70    72   ar
    78    70    69    1
    79     9    10    1
    80   102   100   ar
    81    14    15    1
    82    14    13    1
    83    25    23    1
    84    16    15    2
    85    66    69    1
    86    66    67    1
    87    66    65    1
    88    24    23    1
    89    15    17   am
    90    67    68    2
    91    87    86    2
    92    10    13    1
    93    10    11    1
    94    23    22    1
    95    86    85    1
    96    56    54    1
    97    89    91    1
    98    89    90    1
    99    89    88    1
   100    11    12    2
   101    22    19    1
   102    55    53    1
   103    54    53    1
   104    88    85    1
   105    85    84    1
   106    43    42    1
   107    53    50    1
   108    19    18    1
   109    19    20    1
   110    63    64    1
   111    63    62    1
   112    41    42    1
   113    41    38    1
   114    21    20    2
   115    42    44    1
   116    20    26   am
   117    46    45    1
   118    46    47    1
   119    50    51    1
   120    50    49    1
   121    45    39   am
   122    62    61    1
   123    52    51    2
   124    40    39    2
   125    39    38    1
   126    51    57   am
   127    26    27    1
   128    38    37    1
   129    48    47    2
   130    57    58    1
   131    58    61    1
   132    58    59    1
   133    27    28    1
   134    27    30    1
   135    28    29    2
   136    59    60    2
   137    30    31    1
   138    32    31   ar
   139    32    34   ar
   140    31    33   ar
   141    34    36   ar
   142    33    35   ar
   143    36    35   ar
