@<TRIPOS>MOLECULE
tmp/5lawA00.pdb
 158 151 0 0 0
SMALL
GASTEIGER

@<TRIPOS>ATOM
      1  N          0.2760    6.1500   -9.0840 N.3     2  ILE2       -0.1245
      2  CA         1.1890    6.3210   -7.9560 C.3     2  ILE2        0.1561
      3  C          1.6880    4.9520   -7.4550 C.2     2  ILE2        0.2260
      4  O          0.8810    4.1390   -7.0150 O.2     2  ILE2       -0.2867
      5  CB         0.4880    7.0340   -6.7790 C.3     2  ILE2        0.0252
      6  CG1       -0.3700    8.2320   -7.2510 C.3     2  ILE2        0.0019
      7  CG2        1.5170    7.4760   -5.7400 C.3     2  ILE2        0.0019
      8  CD1        0.3760    9.2980   -8.0350 C.3     2  ILE2        0.0001
      9  N         -0.6130   11.9480    4.2730 N.3    37  LEU37      -0.1231
     10  CA        -1.8700   11.8030    3.5470 C.3    37  LEU37       0.1693
     11  C         -3.0530   11.4860    4.4640 C.2    37  LEU37       0.2592
     12  O         -4.1470   12.0430    4.2830 O.2    37  LEU37      -0.2718
     13  CB        -1.7630   10.7180    2.4850 C.3    37  LEU37       0.0284
     14  CG        -0.9560   11.0870    1.2710 C.3    37  LEU37       0.0019
     15  CD1       -0.6410    9.7500    0.5980 C.3    37  LEU37       0.0001
     16  CD2       -1.7200   12.0510    0.3730 C.3    37  LEU37       0.0001
     17  N         -2.8470   10.6160    5.4550 N.am   38  PHE38      -0.1976
     18  CA        -3.9010   10.3240    6.4140 C.3    38  PHE38       0.1639
     19  C         -4.2880   11.5920    7.2020 C.2    38  PHE38       0.2290
     20  O         -5.4810   11.9160    7.3170 O.2    38  PHE38      -0.2864
     21  CB        -3.4940    9.2070    7.3860 C.3    38  PHE38       0.0560
     22  CG        -4.4420    9.0530    8.5410 C.ar   38  PHE38      -0.0200
     23  CD1       -5.6470    8.3980    8.3840 C.ar   38  PHE38      -0.0042
     24  CD2       -4.1410    9.6100    9.7800 C.ar   38  PHE38      -0.0042
     25  CE1       -6.5300    8.2520    9.4510 C.ar   38  PHE38      -0.0003
     26  CE2       -5.0190    9.4900   10.8490 C.ar   38  PHE38      -0.0003
     27  CZ        -6.2180    8.8110   10.6860 C.ar   38  PHE38      -0.0000
     28  N         -3.6960   14.8500    6.6340 N.3    40  LEU40      -0.1231
     29  CA        -4.3030   15.8960    5.8120 C.3    40  LEU40       0.1693
     30  C         -5.7160   15.5090    5.4130 C.2    40  LEU40       0.2592
     31  O         -6.5920   16.3780    5.4290 O.2    40  LEU40      -0.2718
     32  CB        -3.4780   16.2210    4.5670 C.3    40  LEU40       0.0284
     33  CG        -2.1480   16.9130    4.8150 C.3    40  LEU40       0.0019
     34  CD1       -1.3770   16.9800    3.5090 C.3    40  LEU40       0.0001
     35  CD2       -2.3700   18.3190    5.3670 C.3    40  LEU40       0.0001
     36  N         -5.9490   14.2220    5.1300 N.am   41  GLY41      -0.1957
     37  CA        -7.3040   13.7400    4.8960 C.3    41  GLY41       0.1869
     38  C         -8.2190   14.0250    6.0780 C.2    41  GLY41       0.2309
     39  O         -9.3390   14.5010    5.9120 O.2    41  GLY41      -0.2863
     40  N         -8.9970   17.7680    6.3930 N.3    44  ILE44      -0.1231
     41  CA       -10.0360   18.0630    5.3990 C.3    44  ILE44       0.1692
     42  C        -11.4410   17.5860    5.7970 C.2    44  ILE44       0.2591
     43  O        -12.3930   18.3790    5.7330 O.2    44  ILE44      -0.2718
     44  CB        -9.6390   17.5130    4.0240 C.3    44  ILE44       0.0266
     45  CG1       -8.4480   18.3160    3.5020 C.3    44  ILE44       0.0019
     46  CG2      -10.8450   17.5350    3.0680 C.3    44  ILE44       0.0020
     47  CD1       -7.6860   17.6260    2.3810 C.3    44  ILE44       0.0001
     48  N        -11.5680   16.3230    6.2130 N.am   45  MET45      -0.1979
     49  CA       -12.8700   15.7570    6.5890 C.3    45  MET45       0.1605
     50  C        -13.4370   16.3970    7.8410 C.2    45  MET45       0.2287
     51  O        -14.6240   16.7210    7.8810 O.2    45  MET45      -0.2864
     52  CB       -12.7890   14.2450    6.8260 C.3    45  MET45       0.0413
     53  CG       -12.8990   13.4060    5.5680 C.3    45  MET45       0.0598
     54  SD       -14.2520   13.9170    4.4940 S.3    45  MET45      -0.1393
     55  CE       -15.7090   13.4440    5.4190 C.3    45  MET45       0.0692
     56  N        -14.3880   19.1930    2.1340 N.3    50  TYR50      -0.1241
     57  CA       -14.5220   18.2760    0.9950 C.3    50  TYR50       0.1605
     58  C        -15.9710   18.1450    0.5820 C.2    50  TYR50       0.2264
     59  O        -16.8180   17.8240    1.4060 O.2    50  TYR50      -0.2867
     60  CB       -13.9760   16.9060    1.3910 C.3    50  TYR50       0.0534
     61  CG       -14.0480   15.8040    0.3430 C.ar   50  TYR50      -0.0201
     62  CD1      -13.7300   16.0510   -0.9900 C.ar   50  TYR50      -0.0009
     63  CD2      -14.3570   14.4990    0.7080 C.ar   50  TYR50      -0.0009
     64  CE1      -13.7580   15.0410   -1.9360 C.ar   50  TYR50       0.0417
     65  CE2      -14.3870   13.4780   -0.2340 C.ar   50  TYR50       0.0417
     66  CZ       -14.0800   13.7540   -1.5560 C.ar   50  TYR50       0.1957
     67  OH       -14.0910   12.7600   -2.5190 O.3    50  TYR50      -0.2866
     68  N        -12.0790   19.5330   -3.0330 N.3    58  VAL58      -0.1245
     69  CA       -11.7830   20.1750   -1.7740 C.3    58  VAL58       0.1561
     70  C        -11.7410   21.6870   -2.0140 C.2    58  VAL58       0.2260
     71  O        -11.0350   22.1650   -2.9110 O.2    58  VAL58      -0.2867
     72  CB       -10.4280   19.7090   -1.2180 C.3    58  VAL58       0.0252
     73  CG1       -9.9610   20.5450   -0.0330 C.3    58  VAL58       0.0019
     74  CG2      -10.4980   18.2380   -0.8420 C.3    58  VAL58       0.0019
     75  N         -5.0590   25.5440    4.6430 N.3    65  LEU65      -0.1245
     76  CA        -4.7470   24.5470    3.6200 C.3    65  LEU65       0.1561
     77  C         -4.5480   25.2170    2.2530 C.2    65  LEU65       0.2260
     78  O         -3.6460   24.8250    1.5090 O.2    65  LEU65      -0.2867
     79  CB        -5.8130   23.4330    3.5550 C.3    65  LEU65       0.0270
     80  CG        -5.5450   22.3690    2.4850 C.3    65  LEU65       0.0019
     81  CD1       -4.2200   21.6830    2.7780 C.3    65  LEU65       0.0001
     82  CD2       -6.7160   21.3890    2.4610 C.3    65  LEU65       0.0001
     83  N         -1.0990   24.9570   -0.0400 N.3    69  PHE69      -0.1241
     84  CA        -1.1300   24.4340   -1.4080 C.3    69  PHE69       0.1605
     85  C         -1.1070   25.4750   -2.5150 C.2    69  PHE69       0.2264
     86  O         -0.8290   25.1150   -3.6660 O.2    69  PHE69      -0.2867
     87  CB        -2.3610   23.5340   -1.5650 C.3    69  PHE69       0.0534
     88  CG        -2.2150   22.1470   -0.9520 C.ar   69  PHE69      -0.0203
     89  CD1       -1.1390   21.7710   -0.1270 C.ar   69  PHE69      -0.0042
     90  CD2       -3.2140   21.2280   -1.1610 C.ar   69  PHE69      -0.0042
     91  CE1       -1.0640   20.4890    0.4150 C.ar   69  PHE69      -0.0003
     92  CE2       -3.1400   19.9480   -0.6220 C.ar   69  PHE69      -0.0003
     93  CZ        -2.0840   19.5910    0.1910 C.ar   69  PHE69      -0.0000
     94  N         -9.0560   22.0470   -5.2360 N.3    74  PHE74      -0.1241
     95  CA        -8.4460   21.0130   -6.0530 C.3    74  PHE74       0.1605
     96  C         -9.2880   19.7440   -5.9920 C.2    74  PHE74       0.2264
     97  O        -10.0960   19.5550   -5.0780 O.2    74  PHE74      -0.2867
     98  CB        -7.0070   20.7290   -5.6050 C.3    74  PHE74       0.0534
     99  CG        -6.9170   20.2310   -4.1970 C.ar   74  PHE74      -0.0203
    100  CD1       -6.9080   21.1230   -3.1220 C.ar   74  PHE74      -0.0042
    101  CD2       -6.9140   18.8700   -3.9280 C.ar   74  PHE74      -0.0042
    102  CE1       -6.8310   20.6770   -1.8230 C.ar   74  PHE74      -0.0003
    103  CE2       -6.8430   18.4140   -2.6190 C.ar   74  PHE74      -0.0003
    104  CZ        -6.8140   19.3160   -1.5610 C.ar   74  PHE74      -0.0000
    105  N         -9.6450   15.7730   -5.5000 N.3    76  VAL76      -0.1231
    106  CA        -9.0160   14.6850   -4.7620 C.3    76  VAL76       0.1692
    107  C         -8.5900   13.5120   -5.6730 C.2    76  VAL76       0.2591
    108  O         -7.9090   12.6020   -5.2150 O.2    76  VAL76      -0.2718
    109  CB        -9.9300   14.1570   -3.6310 C.3    76  VAL76       0.0266
    110  CG1      -10.3300   15.2860   -2.6920 C.3    76  VAL76       0.0020
    111  CG2      -11.1350   13.4530   -4.2160 C.3    76  VAL76       0.0020
    112  N         -9.0160   13.5420   -6.9340 N.am   77  LYS77      -0.1980
    113  CA        -8.6320   12.5430   -7.9560 C.3    77  LYS77       0.1596
    114  C         -7.2850   12.8270   -8.6470 C.2    77  LYS77       0.2287
    115  O         -6.7260   11.9270   -9.2800 O.2    77  LYS77      -0.2864
    116  CB        -9.7150   12.4510   -9.0390 C.3    77  LYS77       0.0298
    117  CG       -11.1230   12.1030   -8.5470 C.3    77  LYS77       0.0038
    118  CD       -11.1720   10.8640   -7.6570 C.3    77  LYS77       0.0206
    119  CE       -10.6610    9.6130   -8.3720 C.3    77  LYS77       0.1093
    120  NZ       -10.7340    8.3820   -7.5310 N.3    77  LYS77      -0.1314
    121  N         -4.0120   12.9520   -8.2450 N.3    79  HIS79      -0.1241
    122  CA        -3.0420   12.4820   -7.2510 C.3    79  HIS79       0.1621
    123  C         -1.6460   13.0490   -7.3810 C.2    79  HIS79       0.2264
    124  O         -1.0770   13.4820   -6.3830 O.2    79  HIS79      -0.2867
    125  CB        -2.9760   10.9740   -7.2520 C.3    79  HIS79       0.0745
    126  CG        -4.2940   10.3220   -6.9710 C.ar   79  HIS79       0.0817
    127  ND1       -4.6880    9.1930   -7.5850 N.ar   79  HIS79      -0.2268
    128  CD2       -5.3580   10.7350   -6.1790 C.ar   79  HIS79       0.1154
    129  CE1       -5.9160    8.8620   -7.1350 C.ar   79  HIS79       0.1986
    130  NE2       -6.3140    9.8080   -6.2740 N.ar   79  HIS79      -0.2212
    131  N         -1.5550   16.5740   -6.0610 N.3    82  ILE82      -0.1231
    132  CA        -1.5860   16.5650   -4.6120 C.3    82  ILE82       0.1692
    133  C         -0.2030   16.2950   -4.0290 C.2    82  ILE82       0.2592
    134  O          0.2420   17.0370   -3.1470 O.2    82  ILE82      -0.2718
    135  CB        -2.6510   15.5930   -4.0400 C.3    82  ILE82       0.0266
    136  CG1       -4.0520   16.1350   -4.3680 C.3    82  ILE82       0.0019
    137  CG2       -2.4820   15.4140   -2.5360 C.3    82  ILE82       0.0020
    138  CD1       -5.1420   15.0760   -4.3140 C.3    82  ILE82       0.0001
    139  N          0.4740   15.2650   -4.5490 N.am   83  TYR83      -0.1976
    140  CA         1.8320   14.9570   -4.1140 C.3    83  TYR83       0.1639
    141  C          2.7720   16.1500   -4.2870 C.2    83  TYR83       0.2290
    142  O          3.5600   16.4560   -3.3870 O.2    83  TYR83      -0.2864
    143  CB         2.3810   13.6980   -4.7850 C.3    83  TYR83       0.0560
    144  CG         1.8700   12.4400   -4.1480 C.ar   83  TYR83      -0.0198
    145  CD1        2.2630   12.0820   -2.8670 C.ar   83  TYR83      -0.0009
    146  CD2        0.9470   11.6390   -4.7980 C.ar   83  TYR83      -0.0009
    147  CE1        1.7650   10.9240   -2.2740 C.ar   83  TYR83       0.0417
    148  CE2        0.4580   10.4840   -4.2180 C.ar   83  TYR83       0.0417
    149  CZ         0.8680   10.1390   -2.9480 C.ar   83  TYR83       0.1957
    150  OH         0.3720    8.9820   -2.3890 O.3    83  TYR83      -0.2866
    151  N          2.0540   18.8760   -1.7380 N.3    86  ILE86      -0.1245
    152  CA         2.5520   18.4320   -0.4430 C.3    86  ILE86       0.1561
    153  C          4.0870   18.5120   -0.3710 C.2    86  ILE86       0.2260
    154  O          4.6220   19.0130    0.6290 O.2    86  ILE86      -0.2867
    155  CB         2.0460   17.0010   -0.1010 C.3    86  ILE86       0.0252
    156  CG1        0.5240   16.9990    0.1300 C.3    86  ILE86       0.0019
    157  CG2        2.7160   16.4720    1.1600 C.3    86  ILE86       0.0019
    158  CD1       -0.1260   15.6180    0.0990 C.3    86  ILE86       0.0001
@<TRIPOS>BOND
     1   115   114    2
     2     1     2    1
     3   116   117    1
     4   116   113    1
     5   114   113    1
     6   117   118    1
     7   119   118    1
     8   119   120    1
     9   121   122    1
    10     8     6    1
    11     2     3    1
    12     2     5    1
    13   113   112    1
    14   127   129   ar
    15   127   126   ar
    16     3     4    2
    17   123   122    1
    18   123   124    2
    19   125   122    1
    20   125   126    1
    21     6     5    1
    22   129   130   ar
    23   126   128   ar
    24   112   107   am
    25     5     7    1
    26   130   128   ar
    27   131   132    1
    28    95    96    1
    29    95    98    1
    30    95    94    1
    31    96    97    2
    32   107   108    2
    33   107   106    1
    34    98    99    1
    35   105   106    1
    36   146   148   ar
    37   146   144   ar
    38   143   144    1
    39   143   140    1
    40   106   109    1
    41   132   135    1
    42   132   133    1
    43   139   140    1
    44   139   133   am
    45   136   138    1
    46   136   135    1
    47   141   140    1
    48   141   142    2
    49   148   149   ar
    50   111   109    1
    51    99   101   ar
    52    99   100   ar
    53   144   145   ar
    54   135   137    1
    55   133   134    2
    56   101   103   ar
    57    86    85    2
    58   109   110    1
    59   100   102   ar
    60    68    69    1
    61   149   150    1
    62   149   147   ar
    63    71    70    2
    64   145   147   ar
    65   103   104   ar
    66    67    66    1
    67    85    84    1
    68    70    69    1
    69    64    66   ar
    70    64    62   ar
    71   102   104   ar
    72    69    72    1
    73   151   152    1
    74    87    84    1
    75    87    88    1
    76    66    65   ar
    77    84    83    1
    78    72    74    1
    79    72    73    1
    80    90    88   ar
    81    90    92   ar
    82    62    61   ar
    83    88    89   ar
    84    92    93   ar
    85   152   153    1
    86   152   155    1
    87   153   154    2
    88    65    63   ar
    89    89    91   ar
    90   155   156    1
    91   155   157    1
    92   158   156    1
    93    93    91   ar
    94    61    63   ar
    95    61    60    1
    96    16    14    1
    97    58    57    1
    98    58    59    2
    99    15    14    1
   100    57    60    1
   101    57    56    1
   102    14    13    1
   103    78    77    2
   104    77    76    1
   105    47    45    1
   106    82    80    1
   107    80    81    1
   108    80    79    1
   109    13    10    1
   110    46    44    1
   111    45    44    1
   112    34    33    1
   113    10     9    1
   114    10    11    1
   115    79    76    1
   116    76    75    1
   117    44    41    1
   118    12    11    2
   119    11    17   am
   120    54    55    1
   121    54    53    1
   122    32    33    1
   123    32    29    1
   124    33    35    1
   125    37    36    1
   126    37    38    1
   127    36    30   am
   128    41    42    1
   129    41    40    1
   130    30    31    2
   131    30    29    1
   132    17    18    1
   133    53    52    1
   134    43    42    2
   135    42    48   am
   136    29    28    1
   137    39    38    2
   138    48    49    1
   139    18    19    1
   140    18    21    1
   141    49    52    1
   142    49    50    1
   143    19    20    2
   144    21    22    1
   145    50    51    2
   146    23    22   ar
   147    23    25   ar
   148    22    24   ar
   149    25    27   ar
   150    24    26   ar
   151    27    26   ar
