@<TRIPOS>MOLECULE
tmp/5layB00.pdb
 160 154 0 0 0
SMALL
GASTEIGER

@<TRIPOS>ATOM
      1  N         41.7050   -8.8370    3.7710 N.3     2  ILE2       -0.1245
      2  CA        40.8980   -9.7520    2.9630 C.3     2  ILE2        0.1561
      3  C         41.3290   -9.5930    1.4970 C.2     2  ILE2        0.2260
      4  O         41.3350   -8.4730    0.9860 O.2     2  ILE2       -0.2867
      5  CB        39.3900   -9.4420    3.0930 C.3     2  ILE2        0.0252
      6  CG1       38.9410   -9.4810    4.5640 C.3     2  ILE2        0.0019
      7  CG2       38.5570  -10.4180    2.2700 C.3     2  ILE2        0.0019
      8  CD1       39.1600  -10.8080    5.2610 C.3     2  ILE2        0.0001
      9  N         28.9150   -6.9390    3.0510 N.3    37  LEU37      -0.1231
     10  CA        29.5750   -6.1710    4.1200 C.3    37  LEU37       0.1693
     11  C         29.0050   -4.7620    4.2730 C.2    37  LEU37       0.2592
     12  O         28.8370   -4.2900    5.4000 O.2    37  LEU37      -0.2718
     13  CB        31.0900   -6.0790    3.8930 C.3    37  LEU37       0.0284
     14  CG        31.9740   -7.1980    4.4480 C.3    37  LEU37       0.0019
     15  CD1       32.0050   -7.1320    5.9660 C.3    37  LEU37       0.0001
     16  CD2       31.5380   -8.5770    3.9760 C.3    37  LEU37       0.0001
     17  N         28.7100   -4.0980    3.1520 N.am   38  PHE38      -0.1976
     18  CA        28.1630   -2.7370    3.1840 C.3    38  PHE38       0.1639
     19  C         26.7890   -2.7240    3.8290 C.2    38  PHE38       0.2290
     20  O         26.5380   -1.9560    4.7520 O.2    38  PHE38      -0.2864
     21  CB        28.0760   -2.1190    1.7760 C.3    38  PHE38       0.0560
     22  CG        27.4800   -0.7360    1.7630 C.ar   38  PHE38      -0.0200
     23  CD1       28.2840    0.3820    1.9290 C.ar   38  PHE38      -0.0042
     24  CD2       26.1060   -0.5560    1.6270 C.ar   38  PHE38      -0.0042
     25  CE1       27.7360    1.6590    1.9410 C.ar   38  PHE38      -0.0003
     26  CE2       25.5500    0.7150    1.6400 C.ar   38  PHE38      -0.0003
     27  CZ        26.3670    1.8270    1.7930 C.ar   38  PHE38      -0.0000
     28  N         25.3740   -4.9970    5.7160 N.3    40  LEU40      -0.1231
     29  CA        25.5020   -5.3540    7.1390 C.3    40  LEU40       0.1693
     30  C         25.9830   -4.1550    7.9510 C.2    40  LEU40       0.2592
     31  O         25.5600   -3.9800    9.0960 O.2    40  LEU40      -0.2718
     32  CB        26.4240   -6.5630    7.3550 C.3    40  LEU40       0.0284
     33  CG        25.7830   -7.9490    7.1740 C.3    40  LEU40       0.0019
     34  CD1       26.8500   -9.0350    7.1550 C.3    40  LEU40       0.0001
     35  CD2       24.7510   -8.2410    8.2540 C.3    40  LEU40       0.0001
     36  N         26.8500   -3.3320    7.3550 N.am   41  GLY41      -0.1957
     37  CA        27.2300   -2.0340    7.9370 C.3    41  GLY41       0.1869
     38  C         26.0470   -1.1050    8.1920 C.2    41  GLY41       0.2309
     39  O         25.9620   -0.4670    9.2370 O.2    41  GLY41      -0.2863
     40  N         23.9740   -2.5870   11.2040 N.3    44  ILE44      -0.1231
     41  CA        24.6260   -2.3100   12.4970 C.3    44  ILE44       0.1692
     42  C         24.4420   -0.8450   12.9210 C.2    44  ILE44       0.2591
     43  O         24.2320   -0.5620   14.0990 O.2    44  ILE44      -0.2718
     44  CB        26.1380   -2.6880   12.4660 C.3    44  ILE44       0.0266
     45  CG1       26.3190   -4.2060   12.3240 C.3    44  ILE44       0.0019
     46  CG2       26.8650   -2.2310   13.7280 C.3    44  ILE44       0.0020
     47  CD1       27.7160   -4.6150   11.9130 C.3    44  ILE44       0.0001
     48  N         24.5010    0.0680   11.9540 N.am   45  MET45      -0.1979
     49  CA        24.3260    1.5030   12.2080 C.3    45  MET45       0.1605
     50  C         22.8840    1.9200   12.4910 C.2    45  MET45       0.2287
     51  O         22.6550    2.7590   13.3700 O.2    45  MET45      -0.2864
     52  CB        24.8960    2.3360   11.0560 C.3    45  MET45       0.0413
     53  CG        26.4140    2.3920   11.0590 C.3    45  MET45       0.0598
     54  SD        27.0830    3.5810    9.8890 S.3    45  MET45      -0.1393
     55  CE        26.8410    2.6860    8.3550 C.3    45  MET45       0.0692
     56  N         26.0730   -1.2410   19.0270 N.3    50  TYR50      -0.1241
     57  CA        27.4040   -0.8510   19.5160 C.3    50  TYR50       0.1605
     58  C         27.2390    0.2430   20.5680 C.2    50  TYR50       0.2264
     59  O         26.2780    1.0150   20.4950 O.2    50  TYR50      -0.2867
     60  CB        28.2910   -0.3310   18.3710 C.3    50  TYR50       0.0534
     61  CG        27.6890    0.8220   17.5900 C.ar   50  TYR50      -0.0201
     62  CD1       27.8960    2.1440   17.9910 C.ar   50  TYR50      -0.0009
     63  CD2       26.9140    0.5970   16.4570 C.ar   50  TYR50      -0.0009
     64  CE1       27.3440    3.2060   17.2910 C.ar   50  TYR50       0.0417
     65  CE2       26.3600    1.6550   15.7500 C.ar   50  TYR50       0.0417
     66  CZ        26.5770    2.9570   16.1750 C.ar   50  TYR50       0.1957
     67  OH        26.0470    4.0200   15.4850 O.3    50  TYR50      -0.2866
     68  N         32.7920    2.4030   19.4250 N.3    55  GLN55      -0.1231
     69  CA        32.1960    2.0050   18.1460 C.3    55  GLN55       0.1698
     70  C         32.9350    0.8570   17.4400 C.2    55  GLN55       0.2592
     71  O         32.4820    0.4030   16.3830 O.2    55  GLN55      -0.2718
     72  CB        32.0990    3.2130   17.2030 C.3    55  GLN55       0.0381
     73  CG        31.2620    4.3650   17.7410 C.3    55  GLN55       0.0905
     74  CD        30.9590    5.4380   16.6990 C.2    55  GLN55       0.2608
     75  OE1       31.6410    5.5500   15.6720 O.2    55  GLN55      -0.2717
     76  NE2       29.9370    6.2470   16.9700 N.am   55  GLN55      -0.0878
     77  N         34.0580    0.3980   18.0000 N.am   56  HIS56      -0.1976
     78  CA        34.8050   -0.7320   17.4250 C.3    56  HIS56       0.1656
     79  C         34.2760   -2.0950   17.8070 C.2    56  HIS56       0.2291
     80  O         34.5980   -3.0720   17.1330 O.2    56  HIS56      -0.2864
     81  CB        36.2920   -0.6450   17.7660 C.3    56  HIS56       0.0771
     82  CG        36.9920    0.5600   17.1670 C.ar   56  HIS56       0.0820
     83  ND1       37.9240    1.2640   17.8380 N.ar   56  HIS56      -0.2267
     84  CD2       36.8590    1.1710   15.9240 C.ar   56  HIS56       0.1154
     85  CE1       38.3700    2.2650   17.0600 C.ar   56  HIS56       0.1986
     86  NE2       37.7160    2.2080   15.8930 N.ar   56  HIS56      -0.2212
     87  N         30.9710   -4.4460   18.1700 N.3    58  VAL58      -0.1245
     88  CA        29.5570   -4.6350   17.8480 C.3    58  VAL58       0.1561
     89  C         28.9590   -5.5760   18.8950 C.2    58  VAL58       0.2260
     90  O         29.5020   -6.6610   19.1250 O.2    58  VAL58      -0.2867
     91  CB        29.3730   -5.2190   16.4230 C.3    58  VAL58       0.0252
     92  CG1       27.9240   -5.6240   16.1680 C.3    58  VAL58       0.0019
     93  CG2       29.8430   -4.2200   15.3740 C.3    58  VAL58       0.0019
     94  N         21.2330  -10.8450   14.3520 N.3    65  LEU65      -0.1245
     95  CA        22.6300  -10.9170   13.9070 C.3    65  LEU65       0.1561
     96  C         23.4890  -11.8450   14.7780 C.2    65  LEU65       0.2260
     97  O         24.3510  -12.5550   14.2640 O.2    65  LEU65      -0.2867
     98  CB        23.2420   -9.5120   13.8520 C.3    65  LEU65       0.0270
     99  CG        24.6560   -9.3410   13.2880 C.3    65  LEU65       0.0019
    100  CD1       24.7310   -9.7720   11.8290 C.3    65  LEU65       0.0001
    101  CD2       25.1010   -7.8970   13.4430 C.3    65  LEU65       0.0001
    102  N         25.3820  -15.1000   13.4100 N.3    69  PHE69      -0.1241
    103  CA        26.8470  -15.1500   13.5970 C.3    69  PHE69       0.1605
    104  C         27.2970  -16.1590   14.6640 C.2    69  PHE69       0.2264
    105  O         28.4450  -16.6120   14.6440 O.2    69  PHE69      -0.2867
    106  CB        27.3840  -13.7570   13.9710 C.3    69  PHE69       0.0534
    107  CG        27.5410  -12.8020   12.8060 C.ar   69  PHE69      -0.0203
    108  CD1       26.8960  -12.9990   11.5780 C.ar   69  PHE69      -0.0042
    109  CD2       28.3380  -11.6740   12.9570 C.ar   69  PHE69      -0.0042
    110  CE1       27.0640  -12.1020   10.5350 C.ar   69  PHE69      -0.0003
    111  CE2       28.5040  -10.7720   11.9200 C.ar   69  PHE69      -0.0003
    112  CZ        27.8680  -10.9890   10.7080 C.ar   69  PHE69      -0.0000
    113  N         31.7380   -8.9750   18.9190 N.3    74  PHE74      -0.1241
    114  CA        32.9810   -9.0750   18.1570 C.3    74  PHE74       0.1605
    115  C         33.5200   -7.6860   17.8420 C.2    74  PHE74       0.2264
    116  O         32.7530   -6.7230   17.7680 O.2    74  PHE74      -0.2867
    117  CB        32.7510   -9.8410   16.8520 C.3    74  PHE74       0.0534
    118  CG        31.7490   -9.1950   15.9420 C.ar   74  PHE74      -0.0203
    119  CD1       30.3950   -9.4860   16.0530 C.ar   74  PHE74      -0.0042
    120  CD2       32.1590   -8.2840   14.9790 C.ar   74  PHE74      -0.0042
    121  CE1       29.4700   -8.8750   15.2180 C.ar   74  PHE74      -0.0003
    122  CE2       31.2460   -7.6740   14.1470 C.ar   74  PHE74      -0.0003
    123  CZ        29.8980   -7.9660   14.2620 C.ar   74  PHE74      -0.0000
    124  N         35.2560   -4.9090   15.2770 N.3    76  VAL76      -0.1245
    125  CA        35.2370   -4.5500   13.8470 C.3    76  VAL76       0.1561
    126  C         36.6060   -4.7100   13.1570 C.2    76  VAL76       0.2260
    127  O         36.6810   -4.7210   11.9270 O.2    76  VAL76      -0.2867
    128  CB        34.7320   -3.1000   13.6110 C.3    76  VAL76       0.0252
    129  CG1       33.3670   -2.8800   14.2570 C.3    76  VAL76       0.0019
    130  CG2       35.7490   -2.0760   14.1040 C.3    76  VAL76       0.0019
    131  N         38.5940   -8.8370   10.7510 N.3    79  HIS79      -0.1241
    132  CA        38.0090   -8.9530    9.4020 C.3    79  HIS79       0.1621
    133  C         37.8280  -10.3720    8.9180 C.2    79  HIS79       0.2264
    134  O         36.7910  -10.7070    8.3420 O.2    79  HIS79      -0.2867
    135  CB        38.8570   -8.2010    8.3830 C.3    79  HIS79       0.0745
    136  CG        38.9590   -6.7170    8.6410 C.ar   79  HIS79       0.0817
    137  ND1       40.1200   -6.0450    8.5330 N.ar   79  HIS79      -0.2268
    138  CD2       37.9970   -5.7820    9.0130 C.ar   79  HIS79       0.1154
    139  CE1       39.9120   -4.7460    8.8160 C.ar   79  HIS79       0.1986
    140  NE2       38.6140   -4.5870    9.1110 N.ar   79  HIS79      -0.2212
    141  N         34.9400  -11.9620   10.7670 N.3    82  ILE82      -0.1231
    142  CA        33.6740  -11.4290   10.2340 C.3    82  ILE82       0.1692
    143  C         33.2630  -12.1240    8.9280 C.2    82  ILE82       0.2592
    144  O         32.0860  -12.4250    8.7370 O.2    82  ILE82      -0.2718
    145  CB        33.7260   -9.8880   10.0400 C.3    82  ILE82       0.0266
    146  CG1       33.7270   -9.1780   11.3970 C.3    82  ILE82       0.0019
    147  CG2       32.5270   -9.3800    9.2420 C.3    82  ILE82       0.0020
    148  CD1       34.1950   -7.7440   11.3250 C.3    82  ILE82       0.0001
    149  N         34.2240  -12.3810    8.0430 N.am   83  TYR83      -0.1976
    150  CA        33.9430  -13.1370    6.8110 C.3    83  TYR83       0.1639
    151  C         33.4440  -14.5570    7.0980 C.2    83  TYR83       0.2290
    152  O         32.4870  -15.0070    6.4790 O.2    83  TYR83      -0.2864
    153  CB        35.1580  -13.1660    5.8690 C.3    83  TYR83       0.0560
    154  CG        35.1260  -12.0590    4.8380 C.ar   83  TYR83      -0.0198
    155  CD1       35.1910  -10.7170    5.2270 C.ar   83  TYR83      -0.0009
    156  CD2       35.0080  -12.3450    3.4760 C.ar   83  TYR83      -0.0009
    157  CE1       35.1480   -9.6910    4.2910 C.ar   83  TYR83       0.0417
    158  CE2       34.9680  -11.3280    2.5290 C.ar   83  TYR83       0.0417
    159  CZ        35.0400  -10.0020    2.9390 C.ar   83  TYR83       0.1957
    160  OH        34.9980   -8.9890    2.0150 O.3    83  TYR83      -0.2866
@<TRIPOS>BOND
     1     4     3    2
     2     3     2    1
     3    24    26   ar
     4    24    22   ar
     5    26    27   ar
     6    22    21    1
     7    22    23   ar
     8    21    18    1
     9    27    25   ar
    10    23    25   ar
    11   160   159    1
    12     7     5    1
    13   158   159   ar
    14   158   156   ar
    15   159   157   ar
    16     2     5    1
    17     2     1    1
    18     9    10    1
    19     5     6    1
    20    17    18    1
    21    17    11   am
    22    18    19    1
    23   156   154   ar
    24    19    20    2
    25    13    10    1
    26    13    14    1
    27    16    14    1
    28    10    11    1
    29    11    12    2
    30   157   155   ar
    31    14    15    1
    32     6     8    1
    33   154   155   ar
    34   154   153    1
    35    28    29    1
    36   153   150    1
    37   152   151    2
    38   150   151    1
    39   150   149    1
    40    29    32    1
    41    29    30    1
    42    34    33    1
    43    33    32    1
    44    33    35    1
    45    36    37    1
    46    36    30   am
    47    37    38    1
    48    30    31    2
    49   149   143   am
    50    38    39    2
    51   134   133    2
    52    55    54    1
    53   135   136    1
    54   135   132    1
    55   137   136   ar
    56   137   139   ar
    57   136   138   ar
    58   144   143    2
    59   139   140   ar
    60   133   132    1
    61   143   142    1
    62   138   140   ar
    63   147   145    1
    64   132   131    1
    65    54    53    1
    66   145   142    1
    67   145   146    1
    68   142   141    1
    69   110   112   ar
    70   110   108   ar
    71   112   111   ar
    72    52    53    1
    73    52    49    1
    74    40    41    1
    75   148   146    1
    76   108   107   ar
    77   100    99    1
    78    47    45    1
    79   111   109   ar
    80   127   126    2
    81    48    49    1
    82    48    42   am
    83    49    50    1
    84    45    44    1
    85    44    41    1
    86    44    46    1
    87    50    51    2
    88    41    42    1
    89   107   109   ar
    90   107   106    1
    91    42    43    2
    92   126   125    1
    93    99   101    1
    94    99    98    1
    95   102   103    1
    96   103   106    1
    97   103   104    1
    98   128   125    1
    99   128   130    1
   100   128   129    1
   101   125   124    1
   102    98    95    1
   103    95    94    1
   104    95    96    1
   105   122   123   ar
   106   122   120   ar
   107   123   121   ar
   108    97    96    2
   109   105   104    2
   110   120   118   ar
   111   121   119   ar
   112    93    91    1
   113    67    66    1
   114    75    74    2
   115    65    66   ar
   116    65    63   ar
   117    86    84   ar
   118    86    85   ar
   119    84    82   ar
   120   118   119   ar
   121   118   117    1
   122    92    91    1
   123    66    64   ar
   124    71    70    2
   125    91    88    1
   126    63    61   ar
   127    74    76   am
   128    74    73    1
   129   117   114    1
   130    85    83   ar
   131    80    79    2
   132    82    81    1
   133    82    83   ar
   134    72    73    1
   135    72    69    1
   136    64    62   ar
   137    78    81    1
   138    78    79    1
   139    78    77    1
   140    70    77   am
   141    70    69    1
   142    61    62   ar
   143    61    60    1
   144   116   115    2
   145   115   114    1
   146    88    87    1
   147    88    89    1
   148    69    68    1
   149   114   113    1
   150    60    57    1
   151    89    90    2
   152    56    57    1
   153    57    58    1
   154    59    58    2
