@<TRIPOS>MOLECULE
tmp/5lazA00.pdb
 160 154 0 0 0
SMALL
GASTEIGER

@<TRIPOS>ATOM
      1  N         -0.4900   11.7540    4.5830 N.3    37  LEU37      -0.1231
      2  CA        -1.7710   11.6360    3.8310 C.3    37  LEU37       0.1693
      3  C         -2.9500   11.3140    4.7430 C.2    37  LEU37       0.2592
      4  O         -4.0560   11.8350    4.5470 O.2    37  LEU37      -0.2718
      5  CB        -1.6610   10.5940    2.7350 C.3    37  LEU37       0.0284
      6  CG        -0.7590   10.9590    1.5790 C.3    37  LEU37       0.0019
      7  CD1       -0.3520    9.6270    0.8860 C.3    37  LEU37       0.0001
      8  CD2       -1.4890   11.9380    0.7160 C.3    37  LEU37       0.0001
      9  N         -2.7220   10.5200    5.7670 N.am   38  PHE38      -0.1976
     10  CA        -3.7730   10.1980    6.7060 C.3    38  PHE38       0.1639
     11  C         -4.1830   11.4480    7.4670 C.2    38  PHE38       0.2290
     12  O         -5.3720   11.7330    7.5820 O.2    38  PHE38      -0.2864
     13  CB        -3.3480    9.1330    7.6950 C.3    38  PHE38       0.0560
     14  CG        -4.3050    8.9710    8.8240 C.ar   38  PHE38      -0.0200
     15  CD1       -5.4970    8.3170    8.6200 C.ar   38  PHE38      -0.0042
     16  CD2       -4.0280    9.5220   10.0830 C.ar   38  PHE38      -0.0042
     17  CE1       -6.4040    8.1640    9.6490 C.ar   38  PHE38      -0.0003
     18  CE2       -4.9260    9.3690   11.1250 C.ar   38  PHE38      -0.0003
     19  CZ        -6.1220    8.6820   10.9080 C.ar   38  PHE38      -0.0000
     20  N         -3.6240   14.6900    6.8410 N.3    40  LEU40      -0.1231
     21  CA        -4.2570   15.7180    5.9850 C.3    40  LEU40       0.1693
     22  C         -5.6770   15.3000    5.6240 C.2    40  LEU40       0.2592
     23  O         -6.5750   16.1330    5.5890 O.2    40  LEU40      -0.2718
     24  CB        -3.4340   15.9920    4.7350 C.3    40  LEU40       0.0284
     25  CG        -2.1590   16.8040    4.9800 C.3    40  LEU40       0.0019
     26  CD1       -1.3490   16.9290    3.7080 C.3    40  LEU40       0.0001
     27  CD2       -2.4640   18.2220    5.4760 C.3    40  LEU40       0.0001
     28  N         -5.8820   14.0450    5.3020 N.am   41  GLY41      -0.1957
     29  CA        -7.2400   13.5480    5.0660 C.3    41  GLY41       0.1869
     30  C         -8.1280   13.7650    6.2480 C.2    41  GLY41       0.2309
     31  O         -9.3100   14.1180    6.0990 O.2    41  GLY41      -0.2863
     32  N         -9.0070   17.5060    6.5760 N.3    44  ILE44      -0.1231
     33  CA       -10.0520   17.7900    5.6020 C.3    44  ILE44       0.1692
     34  C        -11.4180   17.2920    6.0280 C.2    44  ILE44       0.2591
     35  O        -12.4080   18.0410    5.9400 O.2    44  ILE44      -0.2718
     36  CB        -9.6660   17.1700    4.2230 C.3    44  ILE44       0.0266
     37  CG1       -8.4920   17.9470    3.6190 C.3    44  ILE44       0.0019
     38  CG2      -10.8810   17.1610    3.2840 C.3    44  ILE44       0.0020
     39  CD1       -7.7660   17.2370    2.4500 C.3    44  ILE44       0.0001
     40  N        -11.4990   16.0510    6.4940 N.am   45  MET45      -0.1979
     41  CA       -12.8030   15.4530    6.8290 C.3    45  MET45       0.1605
     42  C        -13.4210   16.1070    8.0500 C.2    45  MET45       0.2287
     43  O        -14.5830   16.5460    8.0130 O.2    45  MET45      -0.2864
     44  CB       -12.6840   13.9350    7.0400 C.3    45  MET45       0.0413
     45  CG       -12.5300   13.1730    5.7330 C.3    45  MET45       0.0598
     46  SD       -13.9130   13.4660    4.6130 S.3    45  MET45      -0.1393
     47  CE       -15.2780   12.9110    5.6430 C.3    45  MET45       0.0692
     48  N        -14.4030   18.8460    2.3600 N.3    50  TYR50      -0.1241
     49  CA       -14.6040   17.9190    1.2130 C.3    50  TYR50       0.1605
     50  C        -16.0640   17.7440    0.8400 C.2    50  TYR50       0.2264
     51  O        -16.8880   17.3020    1.6550 O.2    50  TYR50      -0.2867
     52  CB       -13.9790   16.5540    1.5600 C.3    50  TYR50       0.0534
     53  CG       -14.1290   15.4410    0.5490 C.ar   50  TYR50      -0.0201
     54  CD1      -13.8910   15.6630   -0.8130 C.ar   50  TYR50      -0.0009
     55  CD2      -14.4080   14.1360    0.9620 C.ar   50  TYR50      -0.0009
     56  CE1      -13.9860   14.6280   -1.7260 C.ar   50  TYR50       0.0417
     57  CE2      -14.5040   13.1000    0.0420 C.ar   50  TYR50       0.0417
     58  CZ       -14.2880   13.3570   -1.3030 C.ar   50  TYR50       0.1957
     59  OH       -14.3660   12.3430   -2.2450 O.3    50  TYR50      -0.2866
     60  N        -16.2960   15.5460   -6.0470 N.3    56  HIS56      -0.1241
     61  CA       -15.1840   15.0560   -5.2320 C.3    56  HIS56       0.1621
     62  C        -14.1270   16.1180   -5.0040 C.2    56  HIS56       0.2264
     63  O        -12.9260   15.8510   -5.1060 O.2    56  HIS56      -0.2867
     64  CB       -14.5610   13.7810   -5.8260 C.3    56  HIS56       0.0745
     65  CG       -15.4380   12.5670   -5.7120 C.ar   56  HIS56       0.0817
     66  ND1      -15.3080   11.6730   -4.7050 N.ar   56  HIS56      -0.2268
     67  CD2      -16.4730   12.1140   -6.5160 C.ar   56  HIS56       0.1154
     68  CE1      -16.2250   10.6890   -4.8760 C.ar   56  HIS56       0.1986
     69  NE2      -16.9430   10.9750   -5.9710 N.ar   56  HIS56      -0.2212
     70  N        -12.3530   19.2000   -2.7850 N.3    58  VAL58      -0.1245
     71  CA       -12.0070   19.8320   -1.5160 C.3    58  VAL58       0.1561
     72  C        -11.9470   21.3420   -1.7780 C.2    58  VAL58       0.2260
     73  O        -11.2800   21.7780   -2.6980 O.2    58  VAL58      -0.2867
     74  CB       -10.6650   19.3400   -0.9560 C.3    58  VAL58       0.0252
     75  CG1      -10.1740   20.2130    0.1940 C.3    58  VAL58       0.0019
     76  CG2      -10.7610   17.8510   -0.4870 C.3    58  VAL58       0.0019
     77  N         -5.1660   25.3040    4.6630 N.3    65  LEU65      -0.1245
     78  CA        -4.8490   24.3130    3.6490 C.3    65  LEU65       0.1561
     79  C         -4.7010   24.9720    2.2480 C.2    65  LEU65       0.2260
     80  O         -3.8460   24.6130    1.4580 O.2    65  LEU65      -0.2867
     81  CB        -5.8780   23.2210    3.6140 C.3    65  LEU65       0.0270
     82  CG        -5.6200   22.1330    2.5710 C.3    65  LEU65       0.0019
     83  CD1       -4.2720   21.4500    2.8450 C.3    65  LEU65       0.0001
     84  CD2       -6.7910   21.1420    2.5960 C.3    65  LEU65       0.0001
     85  N         -1.3440   24.7660   -0.1480 N.3    69  PHE69      -0.1241
     86  CA        -1.4060   24.2870   -1.5170 C.3    69  PHE69       0.1605
     87  C         -1.4270   25.3100   -2.6260 C.2    69  PHE69       0.2264
     88  O         -1.1940   24.9520   -3.7910 O.2    69  PHE69      -0.2867
     89  CB        -2.6040   23.3390   -1.6350 C.3    69  PHE69       0.0534
     90  CG        -2.4220   21.9930   -1.0160 C.ar   69  PHE69      -0.0203
     91  CD1       -1.2680   21.5930   -0.3160 C.ar   69  PHE69      -0.0042
     92  CD2       -3.4320   21.0710   -1.1570 C.ar   69  PHE69      -0.0042
     93  CE1       -1.2050   20.3470    0.2290 C.ar   69  PHE69      -0.0003
     94  CE2       -3.3480   19.7840   -0.6310 C.ar   69  PHE69      -0.0003
     95  CZ        -2.2300   19.4240    0.0490 C.ar   69  PHE69      -0.0000
     96  N         -9.4110   21.7310   -5.0760 N.3    74  PHE74      -0.1241
     97  CA        -8.7970   20.6800   -5.8650 C.3    74  PHE74       0.1605
     98  C         -9.6610   19.4090   -5.8280 C.2    74  PHE74       0.2264
     99  O        -10.4280   19.1440   -4.9020 O.2    74  PHE74      -0.2867
    100  CB        -7.3490   20.4190   -5.4390 C.3    74  PHE74       0.0534
    101  CG        -7.2130   19.9230   -4.0380 C.ar   74  PHE74      -0.0203
    102  CD1       -7.0880   20.7880   -2.9660 C.ar   74  PHE74      -0.0042
    103  CD2       -7.2510   18.5660   -3.7850 C.ar   74  PHE74      -0.0042
    104  CE1       -6.9580   20.2960   -1.6640 C.ar   74  PHE74      -0.0003
    105  CE2       -7.1570   18.0720   -2.5200 C.ar   74  PHE74      -0.0003
    106  CZ        -6.9940   18.9060   -1.4370 C.ar   74  PHE74      -0.0000
    107  N        -10.0550   15.5630   -5.2740 N.3    76  VAL76      -0.1231
    108  CA        -9.3510   14.5370   -4.5020 C.3    76  VAL76       0.1692
    109  C         -8.9040   13.3300   -5.3300 C.2    76  VAL76       0.2591
    110  O         -8.1780   12.4750   -4.7920 O.2    76  VAL76      -0.2718
    111  CB       -10.1550   13.9980   -3.3000 C.3    76  VAL76       0.0266
    112  CG1      -10.5070   15.1470   -2.3560 C.3    76  VAL76       0.0020
    113  CG2      -11.3920   13.2290   -3.8080 C.3    76  VAL76       0.0020
    114  N         -9.3630   13.2500   -6.5850 N.am   77  LYS77      -0.1980
    115  CA        -8.9900   12.1600   -7.5190 C.3    77  LYS77       0.1596
    116  C         -7.6040   12.3800   -8.1190 C.2    77  LYS77       0.2287
    117  O         -7.0560   11.4560   -8.7000 O.2    77  LYS77      -0.2864
    118  CB        -9.9830   12.0480   -8.6900 C.3    77  LYS77       0.0298
    119  CG       -11.4390   11.8170   -8.2830 C.3    77  LYS77       0.0038
    120  CD       -12.3440   11.5420   -9.4550 C.3    77  LYS77       0.0206
    121  CE       -13.7790   11.2440   -9.0250 C.3    77  LYS77       0.1093
    122  NZ       -14.6300   10.7690  -10.1720 N.3    77  LYS77      -0.1314
    123  N         -4.3920   12.4370   -7.5360 N.3    79  HIS79      -0.1241
    124  CA        -3.3530   12.0510   -6.5650 C.3    79  HIS79       0.1621
    125  C         -1.9670   12.5640   -6.9350 C.2    79  HIS79       0.2264
    126  O         -1.2500   13.0340   -6.0860 O.2    79  HIS79      -0.2867
    127  CB        -3.3210   10.5390   -6.3920 C.3    79  HIS79       0.0745
    128  CG        -4.3920    9.9980   -5.4830 C.ar   79  HIS79       0.0817
    129  ND1       -4.3140    8.7650   -4.9540 N.ar   79  HIS79      -0.2268
    130  CD2       -5.5790   10.5550   -5.0150 C.ar   79  HIS79       0.1154
    131  CE1       -5.3840    8.5510   -4.1560 C.ar   79  HIS79       0.1986
    132  NE2       -6.1820    9.6170   -4.2300 N.ar   79  HIS79      -0.2212
    133  N         -1.8530   16.1580   -5.9360 N.3    82  ILE82      -0.1231
    134  CA        -1.8630   16.2710   -4.5070 C.3    82  ILE82       0.1692
    135  C         -0.4730   15.9630   -3.9120 C.2    82  ILE82       0.2592
    136  O          0.0420   16.6960   -3.0430 O.2    82  ILE82      -0.2718
    137  CB        -2.9720   15.3780   -3.8900 C.3    82  ILE82       0.0266
    138  CG1       -4.3400   15.9650   -4.2490 C.3    82  ILE82       0.0019
    139  CG2       -2.8230   15.3260   -2.3780 C.3    82  ILE82       0.0020
    140  CD1       -5.5270   14.9990   -4.1470 C.3    82  ILE82       0.0001
    141  N          0.1660   14.9190   -4.4400 N.am   83  TYR83      -0.1976
    142  CA         1.5400   14.6100   -4.0070 C.3    83  TYR83       0.1639
    143  C          2.4710   15.7990   -4.2490 C.2    83  TYR83       0.2290
    144  O          3.2640   16.1310   -3.3800 O.2    83  TYR83      -0.2864
    145  CB         2.1120   13.3650   -4.6930 C.3    83  TYR83       0.0560
    146  CG         1.7300   12.0610   -4.0320 C.ar   83  TYR83      -0.0198
    147  CD1        2.0840   11.8220   -2.7230 C.ar   83  TYR83      -0.0009
    148  CD2        1.0130   11.0790   -4.7210 C.ar   83  TYR83      -0.0009
    149  CE1        1.7540   10.6260   -2.1110 C.ar   83  TYR83       0.0417
    150  CE2        0.6790    9.8750   -4.0960 C.ar   83  TYR83       0.0417
    151  CZ         1.0550    9.6960   -2.7840 C.ar   83  TYR83       0.1957
    152  OH         0.7330    8.5210   -2.1310 O.3    83  TYR83      -0.2866
    153  N          1.8700   18.5710   -1.7420 N.3    86  ILE86      -0.1245
    154  CA         2.3760   18.1790   -0.4520 C.3    86  ILE86       0.1561
    155  C          3.9080   18.2370   -0.4740 C.2    86  ILE86       0.2260
    156  O          4.5240   18.7450    0.4870 O.2    86  ILE86      -0.2867
    157  CB         1.8830   16.7650   -0.0390 C.3    86  ILE86       0.0252
    158  CG1        0.3950   16.7570    0.2430 C.3    86  ILE86       0.0019
    159  CG2        2.6120   16.2890    1.2270 C.3    86  ILE86       0.0019
    160  CD1       -0.1940   15.3550    0.2870 C.3    86  ILE86       0.0001
@<TRIPOS>BOND
     1   122   121    1
     2   120   121    1
     3   120   119    1
     4   117   116    2
     5   118   119    1
     6   118   115    1
     7   116   115    1
     8   123   124    1
     9   115   114    1
    10   125   124    1
    11   125   126    2
    12   114   109   am
    13   124   127    1
    14    67    69   ar
    15    67    65   ar
    16   127   128    1
    17    60    61    1
    18    69    68   ar
    19   133   134    1
    20    97    98    1
    21    97   100    1
    22    97    96    1
    23    98    99    2
    24    64    65    1
    25    64    61    1
    26    65    66   ar
    27   128   130   ar
    28   128   129   ar
    29   100   101    1
    30   109   110    2
    31   109   108    1
    32   107   108    1
    33    61    62    1
    34    63    62    2
    35   130   132   ar
    36   129   131   ar
    37    68    66   ar
    38   148   150   ar
    39   148   146   ar
    40   145   146    1
    41   145   142    1
    42   134   135    1
    43   134   137    1
    44   108   111    1
    45   141   142    1
    46   141   135   am
    47   138   140    1
    48   138   137    1
    49   143   142    1
    50   143   144    2
    51   132   131   ar
    52   150   151   ar
    53   101   103   ar
    54   101   102   ar
    55   146   147   ar
    56   135   136    2
    57   137   139    1
    58   113   111    1
    59    88    87    2
    60   103   105   ar
    61   111   112    1
    62   102   104   ar
    63    70    71    1
    64   151   152    1
    65   151   149   ar
    66   147   149   ar
    67    73    72    2
    68    87    86    1
    69   105   106   ar
    70    59    58    1
    71    72    71    1
    72   153   154    1
    73    56    58   ar
    74    56    54   ar
    75   104   106   ar
    76    89    86    1
    77    89    90    1
    78    86    85    1
    79    71    74    1
    80    58    57   ar
    81    92    90   ar
    82    92    94   ar
    83    90    91   ar
    84    74    76    1
    85    74    75    1
    86    54    53   ar
    87    94    95   ar
    88   155   154    1
    89   155   156    2
    90   154   157    1
    91    91    93   ar
    92   157   158    1
    93   157   159    1
    94    57    55   ar
    95    95    93   ar
    96   158   160    1
    97    53    55   ar
    98    53    52    1
    99     8     6    1
   100    50    49    1
   101    50    51    2
   102     7     6    1
   103    49    52    1
   104    49    48    1
   105    80    79    2
   106     6     5    1
   107    79    78    1
   108    39    37    1
   109    82    84    1
   110    82    83    1
   111    82    81    1
   112     5     2    1
   113    38    36    1
   114    81    78    1
   115    37    36    1
   116    78    77    1
   117    26    25    1
   118     2     1    1
   119     2     3    1
   120    36    33    1
   121     4     3    2
   122    46    47    1
   123    46    45    1
   124    24    25    1
   125    24    21    1
   126     3     9   am
   127    25    27    1
   128    29    28    1
   129    29    30    1
   130    28    22   am
   131    23    22    2
   132    33    34    1
   133    33    32    1
   134    22    21    1
   135    45    44    1
   136     9    10    1
   137    35    34    2
   138    21    20    1
   139    34    40   am
   140    31    30    2
   141    40    41    1
   142    10    11    1
   143    10    13    1
   144    41    44    1
   145    41    42    1
   146    11    12    2
   147    13    14    1
   148    43    42    2
   149    15    14   ar
   150    15    17   ar
   151    14    16   ar
   152    17    19   ar
   153    16    18   ar
   154    19    18   ar
