@<TRIPOS>MOLECULE
tmp/5lb1B00.pdb
 124 119 0 0 0
SMALL
GASTEIGER

@<TRIPOS>ATOM
      1  N        -30.2160   28.1150  -10.9520 N.3   157  MET157     -0.1230
      2  CA       -29.3820   28.5060  -12.0650 C.3   157  MET157      0.1702
      3  C        -28.8070   29.8970  -11.7740 C.2   157  MET157      0.2592
      4  O        -29.4300   30.6980  -11.0890 O.2   157  MET157     -0.2718
      5  CB       -30.2080   28.5540  -13.3670 C.3   157  MET157      0.0401
      6  CG       -31.1640   27.3850  -13.6230 C.3   157  MET157      0.0596
      7  SD       -30.3800   25.8970  -14.2580 S.3   157  MET157     -0.1393
      8  CE       -31.7890   24.8800  -14.7110 C.3   157  MET157      0.0692
      9  N        -27.6080   30.1890  -12.2760 N.am  158  ASP158     -0.1974
     10  CA       -27.0540   31.5280  -12.0670 C.3   158  ASP158      0.1709
     11  C        -26.2670   32.0190  -13.2710 C.2   158  ASP158      0.2293
     12  O        -26.0240   31.2520  -14.2160 O.2   158  ASP158     -0.2864
     13  CB       -26.2700   31.6180  -10.7390 C.3   158  ASP158      0.1436
     14  CG       -24.9270   30.8740  -10.7580 C.2   158  ASP158      0.3671
     15  OD1      -24.2370   30.8590  -11.8000 O.co2 158  ASP158     -0.2456
     16  OD2      -24.5490   30.3270   -9.6950 O.co2 158  ASP158     -0.2456
     17  N        -23.4220   30.2620  -15.9180 N.3   161  THR161     -0.1203
     18  CA       -23.6440   29.4520  -17.1150 C.3   161  THR161      0.1994
     19  C        -23.1970   30.1810  -18.3900 C.2   161  THR161      0.2617
     20  O        -22.6770   29.5550  -19.3090 O.2   161  THR161     -0.2717
     21  CB       -25.1150   29.0270  -17.2470 C.3   161  THR161      0.1784
     22  OG1      -25.4220   28.0820  -16.2150 O.3   161  THR161     -0.2211
     23  CG2      -25.3760   28.3900  -18.5980 C.3   161  THR161      0.0376
     24  N        -23.3880   31.4980  -18.4180 N.am  162  TYR162     -0.1975
     25  CA       -23.0420   32.3630  -19.5660 C.3   162  TYR162      0.1639
     26  C        -21.8230   33.2490  -19.2730 C.2   162  TYR162      0.2290
     27  O        -21.6390   34.2890  -19.9150 O.2   162  TYR162     -0.2864
     28  CB       -24.2600   33.2270  -19.9480 C.3   162  TYR162      0.0560
     29  CG       -25.4730   32.3660  -20.1260 C.ar  162  TYR162     -0.0198
     30  CD1      -25.6270   31.5640  -21.2720 C.ar  162  TYR162     -0.0009
     31  CD2      -26.4210   32.2640  -19.1270 C.ar  162  TYR162     -0.0009
     32  CE1      -26.7210   30.7320  -21.4250 C.ar  162  TYR162      0.0417
     33  CE2      -27.5200   31.4380  -19.2690 C.ar  162  TYR162      0.0417
     34  CZ       -27.6650   30.6660  -20.4050 C.ar  162  TYR162      0.1957
     35  OH       -28.7960   29.8680  -20.5000 O.3   162  TYR162     -0.2866
     36  N        -27.1280   37.4880  -11.2010 N.3   164  TYR164     -0.1241
     37  CA       -28.3930   36.9480  -10.6780 C.3   164  TYR164      0.1605
     38  C        -28.3150   35.4420  -10.4020 C.2   164  TYR164      0.2264
     39  O        -27.4910   34.7390  -10.9780 O.2   164  TYR164     -0.2867
     40  CB       -29.5270   37.1970  -11.6840 C.3   164  TYR164      0.0534
     41  CG       -29.2370   36.6080  -13.0630 C.ar  164  TYR164     -0.0201
     42  CD1      -29.4770   35.2660  -13.3220 C.ar  164  TYR164     -0.0009
     43  CD2      -28.6920   37.3910  -14.0960 C.ar  164  TYR164     -0.0009
     44  CE1      -29.2040   34.7070  -14.5580 C.ar  164  TYR164      0.0417
     45  CE2      -28.4130   36.8340  -15.3480 C.ar  164  TYR164      0.0417
     46  CZ       -28.6740   35.4910  -15.5700 C.ar  164  TYR164      0.1957
     47  OH       -28.4130   34.8980  -16.7890 O.3   164  TYR164     -0.2866
     48  N        -31.4060   32.2740  -10.1410 N.3   166  THR166     -0.1218
     49  CA       -32.8080   32.0060  -10.4420 C.3   166  THR166      0.1862
     50  C        -33.1780   30.6050   -9.9440 C.2   166  THR166      0.2287
     51  O        -32.5700   29.6280  -10.3680 O.2   166  THR166     -0.2866
     52  CB       -33.0340   32.0170  -11.9640 C.3   166  THR166      0.1770
     53  OG1      -32.5660   33.2580  -12.5150 O.3   166  THR166     -0.2211
     54  CG2      -34.5010   31.8200  -12.3020 C.3   166  THR166      0.0375
     55  N        -35.4500   27.4900  -10.2130 N.3   168  VAL168     -0.1245
     56  CA       -36.0990   26.8470  -11.3390 C.3   168  VAL168      0.1561
     57  C        -36.6570   25.4580  -10.9320 C.2   168  VAL168      0.2260
     58  O        -35.9600   24.6550  -10.2910 O.2   168  VAL168     -0.2867
     59  CB       -35.0760   26.6950  -12.4900 C.3   168  VAL168      0.0252
     60  CG1      -35.6530   25.8560  -13.6240 C.3   168  VAL168      0.0019
     61  CG2      -34.6560   28.0800  -12.9770 C.3   168  VAL168      0.0019
     62  N        -25.3320   23.4710  -20.5420 N.3   178  GLY178     -0.1225
     63  CA       -26.3270   24.0160  -19.6050 C.3   178  GLY178      0.1811
     64  C        -27.6640   24.4040  -20.2000 C.2   178  GLY178      0.2280
     65  O        -28.3760   25.2200  -19.6000 O.2   178  GLY178     -0.2866
     66  N        -31.3890   23.4580  -20.6800 N.3   180  PHE180     -0.1241
     67  CA       -32.4810   22.6900  -20.0840 C.3   180  PHE180      0.1605
     68  C        -33.8350   23.0230  -20.7030 C.2   180  PHE180      0.2264
     69  O        -34.0430   24.1220  -21.2160 O.2   180  PHE180     -0.2867
     70  CB       -32.6340   23.0170  -18.5720 C.3   180  PHE180      0.0534
     71  CG       -31.4610   22.6180  -17.7230 C.ar  180  PHE180     -0.0203
     72  CD1      -30.2870   23.3480  -17.7620 C.ar  180  PHE180     -0.0042
     73  CD2      -31.5400   21.5470  -16.8460 C.ar  180  PHE180     -0.0042
     74  CE1      -29.2030   23.0030  -16.9720 C.ar  180  PHE180     -0.0003
     75  CE2      -30.4500   21.1950  -16.0630 C.ar  180  PHE180     -0.0003
     76  CZ       -29.2880   21.9170  -16.1290 C.ar  180  PHE180     -0.0000
     77  N        -37.3230   23.5770  -18.9360 N.3   182  HIS182     -0.1241
     78  CA       -37.6880   23.8580  -17.5370 C.3   182  HIS182      0.1621
     79  C        -38.9200   24.7350  -17.3870 C.2   182  HIS182      0.2264
     80  O        -39.3400   25.3920  -18.3330 O.2   182  HIS182     -0.2867
     81  CB       -36.5200   24.5080  -16.7880 C.3   182  HIS182      0.0745
     82  CG       -36.1950   25.8880  -17.2860 C.ar  182  HIS182      0.0817
     83  ND1      -36.7670   27.0150  -16.7510 N.ar  182  HIS182     -0.2268
     84  CD2      -35.4310   26.3080  -18.3200 C.ar  182  HIS182      0.1154
     85  CE1      -36.3280   28.0840  -17.3980 C.ar  182  HIS182      0.1986
     86  NE2      -35.5270   27.6840  -18.3680 N.ar  182  HIS182     -0.2212
     87  N        -42.5900   33.0330  -15.3750 N.3   186  TRP186     -0.1241
     88  CA       -42.4030   34.4270  -15.7790 C.3   186  TRP186      0.1605
     89  C        -42.6040   34.6820  -17.2530 C.2   186  TRP186      0.2264
     90  O        -42.8760   35.8240  -17.6520 O.2   186  TRP186     -0.2867
     91  CB       -41.0250   34.9540  -15.3450 C.3   186  TRP186      0.0550
     92  CG       -39.8720   34.0220  -15.6230 C.ar  186  TRP186      0.0003
     93  CD1      -39.1150   33.9740  -16.7220 C.ar  186  TRP186      0.0946
     94  CD2      -39.3930   33.0030  -14.7380 C.ar  186  TRP186      0.0152
     95  NE1      -38.1710   32.9670  -16.5990 N.ar  186  TRP186     -0.2442
     96  CE2      -38.3320   32.3580  -15.3820 C.ar  186  TRP186      0.0810
     97  CE3      -39.7840   32.5670  -13.4570 C.ar  186  TRP186      0.0012
     98  CZ2      -37.6110   31.3110  -14.7800 C.ar  186  TRP186      0.0191
     99  CZ3      -39.0760   31.5260  -12.8560 C.ar  186  TRP186      0.0001
    100  CH2      -38.0060   30.9060  -13.5270 C.ar  186  TRP186      0.0015
    101  N        -32.0160   33.0570  -22.2790 N.3   198  HIS198     -0.1241
    102  CA       -30.5850   33.0370  -22.6000 C.3   198  HIS198      0.1621
    103  C        -30.1790   31.7940  -23.4180 C.2   198  HIS198      0.2264
    104  O        -29.0170   31.6320  -23.7280 O.2   198  HIS198     -0.2867
    105  CB       -29.7120   33.1160  -21.3300 C.3   198  HIS198      0.0745
    106  CG       -29.6180   34.4780  -20.7220 C.ar  198  HIS198      0.0817
    107  ND1      -29.9440   34.7280  -19.4030 N.ar  198  HIS198     -0.2268
    108  CD2      -29.1900   35.6550  -21.2330 C.ar  198  HIS198      0.1154
    109  CE1      -29.7590   36.0100  -19.1430 C.ar  198  HIS198      0.1986
    110  NE2      -29.3010   36.5940  -20.2370 N.ar  198  HIS198     -0.2212
    111  N        -32.1080   28.4640  -22.8590 N.3   200  CYS200     -0.1235
    112  CA       -32.9270   27.3360  -22.3930 C.3   200  CYS200      0.1677
    113  C        -34.3370   27.3670  -23.0030 C.2   200  CYS200      0.2270
    114  O        -34.8090   28.4250  -23.4970 O.2   200  CYS200     -0.2867
    115  CB       -32.9790   27.3210  -20.8410 C.3   200  CYS200      0.0956
    116  SG       -31.3960   26.8630  -20.1410 S.3   200  CYS200     -0.0801
    117  N        -37.9370   27.4170  -22.2740 N.3   202  ASN202     -0.1240
    118  CA       -38.9580   27.7590  -21.2720 C.3   202  ASN202      0.1653
    119  C        -40.2830   27.1400  -21.6730 C.2   202  ASN202      0.2266
    120  O        -40.7400   27.3510  -22.8130 O.2   202  ASN202     -0.2867
    121  CB       -39.2100   29.2730  -21.2390 C.3   202  ASN202      0.1155
    122  CG       -38.0580   30.0780  -20.6610 C.2   202  ASN202      0.2627
    123  OD1      -36.9410   29.5980  -20.4190 O.2   202  ASN202     -0.2716
    124  ND2      -38.3300   31.3260  -20.4410 N.am  202  ASN202     -0.0877
@<TRIPOS>BOND
     1   104   103    2
     2   114   113    2
     3   103   102    1
     4   113   112    1
     5   111   112    1
     6   120   119    2
     7   102   101    1
     8   102   105    1
     9   112   115    1
    10   117   118    1
    11   119   118    1
    12    32    30   ar
    13    32    34   ar
    14   105   106    1
    15    30    29   ar
    16   118   121    1
    17   121   122    1
    18   108   106   ar
    19   108   110   ar
    20    69    68    2
    21   115   116    1
    22   106   107   ar
    23    68    67    1
    24    66    67    1
    25   122   124   am
    26   122   123    2
    27    62    63    1
    28    35    34    1
    29    34    33   ar
    30   110   109   ar
    31    64    63    1
    32    64    65    2
    33    29    28    1
    34    29    31   ar
    35    67    70    1
    36    28    25    1
    37    27    26    2
    38    25    26    1
    39    25    24    1
    40   107   109   ar
    41    20    19    2
    42    33    31   ar
    43    77    78    1
    44    23    21    1
    45    70    71    1
    46    24    19   am
    47    19    18    1
    48    86    84   ar
    49    86    85   ar
    50    80    79    2
    51    84    82   ar
    52    72    71   ar
    53    72    74   ar
    54    71    73   ar
    55    90    89    2
    56    78    79    1
    57    78    81    1
    58    85    83   ar
    59    82    81    1
    60    82    83   ar
    61    89    88    1
    62    21    18    1
    63    21    22    1
    64    18    17    1
    65    74    76   ar
    66    73    75   ar
    67    47    46    1
    68    93    95   ar
    69    93    92   ar
    70    95    96   ar
    71    76    75   ar
    72    88    87    1
    73    88    91    1
    74    92    91    1
    75    92    94   ar
    76    46    45   ar
    77    46    44   ar
    78    96    98   ar
    79    96    94   ar
    80    45    43   ar
    81    98   100   ar
    82    94    97   ar
    83     8     7    1
    84    44    42   ar
    85     7     6    1
    86    12    11    2
    87    43    41   ar
    88    60    59    1
    89     6     5    1
    90   100    99   ar
    91    97    99   ar
    92     5     2    1
    93    42    41   ar
    94    11    10    1
    95    41    40    1
    96    61    59    1
    97    53    52    1
    98    59    56    1
    99    54    52    1
   100     9    10    1
   101     9     3   am
   102    10    13    1
   103     2     3    1
   104     2     1    1
   105    52    49    1
   106    15    14   ar
   107     3     4    2
   108    40    37    1
   109    56    57    1
   110    56    55    1
   111    36    37    1
   112    39    38    2
   113    57    58    2
   114    14    13    1
   115    14    16   ar
   116    37    38    1
   117    49    48    1
   118    49    50    1
   119    51    50    2
