@<TRIPOS>MOLECULE
tmp/5lb3B00.pdb
 116 112 0 0 0
SMALL
GASTEIGER

@<TRIPOS>ATOM
      1  N         36.8140   -3.7550  -13.2970 N.3    11  LEU11      -0.1245
      2  CA        37.2180   -2.4130  -13.7020 C.3    11  LEU11       0.1561
      3  C         35.9950   -1.5760  -14.0560 C.2    11  LEU11       0.2260
      4  O         35.9320   -0.3850  -13.7490 O.2    11  LEU11      -0.2867
      5  CB        38.1850   -2.4690  -14.8870 C.3    11  LEU11       0.0270
      6  CG        38.6740   -1.1210  -15.4240 C.3    11  LEU11       0.0019
      7  CD1       39.4790   -0.3710  -14.3630 C.3    11  LEU11       0.0001
      8  CD2       39.4930   -1.3050  -16.6930 C.3    11  LEU11       0.0001
      9  N         35.0510    2.1920  -14.9230 N.3    17  PHE17      -0.1241
     10  CA        35.9660    2.5420  -16.0050 C.3    17  PHE17       0.1605
     11  C         35.8550    1.5600  -17.1630 C.2    17  PHE17       0.2264
     12  O         35.7530    0.3500  -16.9580 O.2    17  PHE17      -0.2867
     13  CB        37.4110    2.5860  -15.4980 C.3    17  PHE17       0.0534
     14  CG        37.6590    3.6400  -14.4560 C.ar   17  PHE17      -0.0203
     15  CD1       37.0590    4.8840  -14.5520 C.ar   17  PHE17      -0.0042
     16  CD2       38.4920    3.3820  -13.3750 C.ar   17  PHE17      -0.0042
     17  CE1       37.2840    5.8520  -13.5980 C.ar   17  PHE17      -0.0003
     18  CE2       38.7230    4.3480  -12.4120 C.ar   17  PHE17      -0.0003
     19  CZ        38.1200    5.5850  -12.5220 C.ar   17  PHE17      -0.0000
     20  N         38.1900    1.4470  -19.5230 N.3    19  SER19      -0.1202
     21  CA        39.5530    1.2060  -19.9870 C.3    19  SER19       0.2020
     22  C         40.5970    1.5990  -18.9420 C.2    19  SER19       0.2619
     23  O         40.2970    2.3230  -17.9950 O.2    19  SER19      -0.2717
     24  CB        39.8140    1.9870  -21.2720 C.3    19  SER19       0.2103
     25  OG        39.7310    3.3810  -21.0260 O.3    19  SER19      -0.2182
     26  N         41.8240    1.1240  -19.1310 N.am   20  PHE20      -0.1961
     27  CA        42.9570    1.6120  -18.3500 C.3    20  PHE20       0.1771
     28  C         43.4500    2.9190  -18.9610 C.2    20  PHE20       0.2619
     29  O         43.3460    3.1110  -20.1740 O.2    20  PHE20      -0.2715
     30  CB        44.0830    0.5760  -18.3100 C.3    20  PHE20       0.0574
     31  CG        43.7860   -0.6110  -17.4400 C.ar   20  PHE20      -0.0200
     32  CD1       44.0120   -0.5560  -16.0740 C.ar   20  PHE20      -0.0042
     33  CD2       43.2870   -1.7810  -17.9870 C.ar   20  PHE20      -0.0042
     34  CE1       43.7440   -1.6470  -15.2680 C.ar   20  PHE20      -0.0003
     35  CE2       43.0180   -2.8760  -17.1880 C.ar   20  PHE20      -0.0003
     36  CZ        43.2470   -2.8080  -15.8250 C.ar   20  PHE20      -0.0000
     37  N         43.9680    3.8200  -18.1290 N.am   21  LYS21      -0.1977
     38  CA        44.4480    5.1130  -18.6130 C.3    21  LYS21       0.1596
     39  C         45.5240    4.9370  -19.6740 C.2    21  LYS21       0.2287
     40  O         45.4950    5.5830  -20.7240 O.2    21  LYS21      -0.2864
     41  CB        44.9990    5.9580  -17.4620 C.3    21  LYS21       0.0298
     42  CG        43.9500    6.7120  -16.6660 C.3    21  LYS21       0.0038
     43  CD        44.6070    7.6610  -15.6720 C.3    21  LYS21       0.0206
     44  CE        43.6030    8.6410  -15.0980 C.3    21  LYS21       0.1093
     45  NZ        44.2700    9.8220  -14.4880 N.3    21  LYS21      -0.1314
     46  N         49.4890    1.1970  -17.1180 N.3    25  GLN25      -0.1245
     47  CA        48.6290    0.9880  -15.9620 C.3    25  GLN25       0.1566
     48  C         47.9940   -0.3920  -16.0240 C.2    25  GLN25       0.2260
     49  O         47.8870   -1.0760  -15.0070 O.2    25  GLN25      -0.2867
     50  CB        47.5430    2.0610  -15.8640 C.3    25  GLN25       0.0367
     51  CG        46.6630    1.8920  -14.6290 C.3    25  GLN25       0.0905
     52  CD        45.4430    2.7920  -14.6280 C.2    25  GLN25       0.2608
     53  OE1       44.7090    2.8650  -15.6150 O.2    25  GLN25      -0.2717
     54  NE2       45.2140    3.4750  -13.5090 N.am   25  GLN25      -0.0878
     55  N         52.2490   11.6950  -10.4810 N.3    45  THR45      -0.1203
     56  CA        51.0450   11.9890   -9.7130 C.3    45  THR45       0.1994
     57  C         49.8630   12.1960  -10.6590 C.2    45  THR45       0.2618
     58  O         49.9730   12.9180  -11.6490 O.2    45  THR45      -0.2717
     59  CB        51.2300   13.2350   -8.8280 C.3    45  THR45       0.1784
     60  OG1       52.2850   13.0020   -7.8870 O.3    45  THR45      -0.2211
     61  CG2       49.9520   13.5440   -8.0650 C.3    45  THR45       0.0376
     62  N         48.7500   11.5330  -10.3640 N.am   46  GLY46      -0.1942
     63  CA        47.5600   11.6260  -11.1890 C.3    46  GLY46       0.2014
     64  C         47.4700   10.5630  -12.2690 C.2    46  GLY46       0.2639
     65  O         46.4860   10.5100  -13.0040 O.2    46  GLY46      -0.2714
     66  N         48.4830    9.7080  -12.3700 N.am   47  ALA47      -0.1963
     67  CA        48.5020    8.6840  -13.4140 C.3    47  ALA47       0.1728
     68  C         47.6840    7.4470  -13.0500 C.2    47  ALA47       0.2617
     69  O         47.5910    6.5090  -13.8420 O.2    47  ALA47      -0.2715
     70  CB        49.9310    8.2820  -13.7360 C.3    47  ALA47       0.0334
     71  N         47.0970    7.4410  -11.8570 N.am   48  GLY48      -0.1940
     72  CA        46.2390    6.3460  -11.4440 C.3    48  GLY48       0.2014
     73  C         46.9780    5.1520  -10.8650 C.2    48  GLY48       0.2639
     74  O         46.6920    4.0040  -11.2030 O.2    48  GLY48      -0.2714
     75  N         47.9330    5.4160   -9.9840 N.am   49  LYS49      -0.1963
     76  CA        48.6700    4.3370   -9.3370 C.3    49  LYS49       0.1728
     77  C         47.7730    3.5100   -8.4160 C.2    49  LYS49       0.2617
     78  O         47.9600    2.3000   -8.2990 O.2    49  LYS49      -0.2715
     79  CB        49.8640    4.9010   -8.5510 C.3    49  LYS49       0.0311
     80  CG        51.0120    5.3850   -9.4350 C.3    49  LYS49       0.0038
     81  CD        52.2330    5.8170   -8.6220 C.3    49  LYS49       0.0206
     82  CE        51.9730    7.1050   -7.8560 C.3    49  LYS49       0.1093
     83  NZ        51.7010    8.2700   -8.7530 N.3    49  LYS49      -0.1314
     84  N         46.8020    4.1540   -7.7670 N.am   50  SER50      -0.1936
     85  CA        45.9800    3.4790   -6.7560 C.3    50  SER50       0.2055
     86  C         45.2500    2.2690   -7.3200 C.2    50  SER50       0.2642
     87  O         45.1340    1.2370   -6.6600 O.2    50  SER50      -0.2714
     88  CB        44.9600    4.4410   -6.1480 C.3    50  SER50       0.2130
     89  OG        45.5940    5.5430   -5.5230 O.3    50  SER50      -0.2179
     90  N         44.7580    2.4060   -8.5450 N.am   51  LEU51      -0.1977
     91  CA        44.0390    1.3250   -9.2070 C.3    51  LEU51       0.1596
     92  C         44.9030    0.0700   -9.3320 C.2    51  LEU51       0.2287
     93  O         44.3940   -1.0530   -9.2810 O.2    51  LEU51      -0.2864
     94  CB        43.5660    1.7780  -10.5940 C.3    51  LEU51       0.0297
     95  CG        42.5930    0.8600  -11.3360 C.3    51  LEU51       0.0022
     96  CD1       41.2130    0.9130  -10.6950 C.3    51  LEU51       0.0001
     97  CD2       42.5240    1.2350  -12.8110 C.3    51  LEU51       0.0001
     98  N         41.1470    8.5680    0.3080 N.3    77  GLN77      -0.1245
     99  CA        41.1740    7.3220   -0.4490 C.3    77  GLN77       0.1566
    100  C         40.1310    6.3500    0.0880 C.2    77  GLN77       0.2260
    101  O         39.5260    5.5900   -0.6700 O.2    77  GLN77      -0.2867
    102  CB        42.5670    6.6890   -0.4090 C.3    77  GLN77       0.0367
    103  CG        43.5280    7.2660   -1.4350 C.3    77  GLN77       0.0905
    104  CD        43.0060    7.1360   -2.8560 C.2    77  GLN77       0.2608
    105  OE1       42.4990    6.0840   -3.2510 O.2    77  GLN77      -0.2717
    106  NE2       43.1180    8.2110   -3.6300 N.am   77  GLN77      -0.0878
    107  N         36.6220    7.6350   -1.1550 N.3    80  HIS80      -0.1241
    108  CA        36.3630    7.2750   -2.5430 C.3    80  HIS80       0.1621
    109  C         36.0000    5.8000   -2.6850 C.2    80  HIS80       0.2264
    110  O         35.1180    5.4430   -3.4650 O.2    80  HIS80      -0.2867
    111  CB        37.5790    7.6020   -3.4120 C.3    80  HIS80       0.0745
    112  CG        37.4840    7.0720   -4.8090 C.ar   80  HIS80       0.0817
    113  ND1       36.3240    7.1330   -5.5520 N.ar   80  HIS80      -0.2268
    114  CD2       38.4040    6.4690   -5.5980 C.ar   80  HIS80       0.1154
    115  CE1       36.5340    6.5920   -6.7380 C.ar   80  HIS80       0.1986
    116  NE2       37.7880    6.1820   -6.7940 N.ar   80  HIS80      -0.2212
@<TRIPOS>BOND
     1    24    25    1
     2    24    21    1
     3    40    39    2
     4    29    28    2
     5    21    20    1
     6    21    22    1
     7    39    38    1
     8    26    22   am
     9    26    27    1
    10    28    27    1
    11    28    37   am
    12    22    23    2
    13    38    37    1
    14    38    41    1
    15    27    30    1
    16    30    31    1
    17    33    31   ar
    18    33    35   ar
    19    41    42    1
    20    31    32   ar
    21    35    36   ar
    22    11    12    2
    23    11    10    1
    24    46    47    1
    25     8     6    1
    26    42    43    1
    27    32    34   ar
    28    48    47    1
    29    48    49    2
    30    10    13    1
    31    10     9    1
    32    47    50    1
    33    50    51    1
    34    36    34   ar
    35    43    44    1
    36    53    52    2
    37    13    14    1
    38     6     5    1
    39     6     7    1
    40    44    45    1
    41     5     2    1
    42    51    52    1
    43    52    54   am
    44    15    14   ar
    45    15    17   ar
    46    14    16   ar
    47     3     4    2
    48     3     2    1
    49    69    68    2
    50    70    67    1
    51     2     1    1
    52    17    19   ar
    53    67    68    1
    54    67    66    1
    55    16    18   ar
    56    68    71   am
    57    65    64    2
    58    97    95    1
    59    19    18   ar
    60    66    64   am
    61    64    63    1
    62    71    72    1
    63    58    57    2
    64    72    73    1
    65    95    96    1
    66    95    94    1
    67    74    73    2
    68    63    62    1
    69    73    75   am
    70    57    62   am
    71    57    56    1
    72    94    91    1
    73    55    56    1
    74    75    76    1
    75    56    59    1
    76    80    81    1
    77    80    79    1
    78    76    79    1
    79    76    77    1
    80    92    93    2
    81    92    91    1
    82    91    90    1
    83    59    61    1
    84    59    60    1
    85    83    82    1
    86    81    82    1
    87    90    86   am
    88    77    78    2
    89    77    84   am
    90    84    85    1
    91    86    85    1
    92    86    87    2
    93   116   115   ar
    94   116   114   ar
    95    85    88    1
    96   115   113   ar
    97    88    89    1
    98   114   112   ar
    99   113   112   ar
   100   112   111    1
   101   106   104   am
   102   110   109    2
   103   111   108    1
   104   105   104    2
   105   104   103    1
   106   109   108    1
   107   108   107    1
   108   103   102    1
   109   101   100    2
   110    99   102    1
   111    99   100    1
   112    99    98    1
