@<TRIPOS>MOLECULE
tmp/5lb9A00.pdb
 221 214 0 0 0
SMALL
GASTEIGER

@<TRIPOS>ATOM
      1  N         -6.3640  105.4020   41.2280 N.3    47  ASN47      -0.1226
      2  CA        -7.1630  104.8520   40.1480 C.3    47  ASN47       0.1770
      3  C         -7.8360  105.9690   39.3590 C.2    47  ASN47       0.2439
      4  O         -8.0620  107.0660   39.8780 O.2    47  ASN47      -0.2733
      5  CB        -8.2220  103.8890   40.6980 C.3    47  ASN47       0.1168
      6  CG        -7.6080  102.6430   41.3520 C.2    47  ASN47       0.2627
      7  OD1       -6.5670  102.1400   40.9280 O.2    47  ASN47      -0.2716
      8  ND2       -8.2570  102.1540   42.3950 N.am   47  ASN47      -0.0877
      9  N         -8.1660  105.7120   38.0880 N.am   48  PRO48      -0.2718
     10  CA        -8.8440  106.7400   37.2740 C.3    48  PRO48       0.1535
     11  C        -10.1270  107.2710   37.8800 C.2    48  PRO48       0.2599
     12  O        -10.4010  108.4750   37.7920 O.2    48  PRO48      -0.2715
     13  CB        -9.1180  106.0010   35.9580 C.3    48  PRO48       0.0310
     14  CG        -8.0580  104.9800   35.8720 C.3    48  PRO48       0.0237
     15  CD        -7.8050  104.5280   37.2880 C.3    48  PRO48       0.0939
     16  N        -10.9370  106.4050   38.4860 N.am   49  SER49      -0.1950
     17  CA       -12.1710  106.8740   39.1090 C.3    49  SER49       0.1924
     18  C        -11.8930  107.8560   40.2330 C.2    49  SER49       0.2314
     19  O        -12.6870  108.7790   40.4470 O.2    49  SER49      -0.2863
     20  CB       -12.9870  105.6920   39.6300 C.3    49  SER49       0.2116
     21  OG       -12.1830  104.8080   40.3930 O.3    49  SER49      -0.2180
     22  N        -11.1340   95.7920   43.5280 N.3   150  VAL150     -0.1231
     23  CA       -11.7450   96.1930   42.2650 C.3   150  VAL150      0.1692
     24  C        -11.2780   95.3310   41.0900 C.2   150  VAL150      0.2592
     25  O        -12.0160   94.4460   40.6340 O.2   150  VAL150     -0.2718
     26  CB       -11.4840   97.6850   42.0210 C.3   150  VAL150      0.0266
     27  CG1      -12.0950   98.1300   40.7190 C.3   150  VAL150      0.0020
     28  CG2      -12.0840   98.4890   43.1640 C.3   150  VAL150      0.0020
     29  N        -10.0660   95.5860   40.5850 N.am  151  ASN151     -0.1974
     30  CA        -9.6600   95.0220   39.2970 C.3   151  ASN151      0.1688
     31  C         -9.6880   93.4940   39.2510 C.2   151  ASN151      0.2292
     32  O        -10.1210   92.9480   38.2210 O.2   151  ASN151     -0.2864
     33  CB        -8.2790   95.5740   38.9120 C.3   151  ASN151      0.1181
     34  CG        -8.3280   97.0440   38.4940 C.2   151  ASN151      0.2629
     35  OD1       -9.3890   97.5680   38.1830 O.2   151  ASN151     -0.2716
     36  ND2       -7.1760   97.6950   38.4560 N.am  151  ASN151     -0.0877
     37  N        -13.4110   92.6150   38.9070 N.3   154  VAL154     -0.1245
     38  CA       -13.9290   93.0000   37.5980 C.3   154  VAL154      0.1561
     39  C        -13.6480   91.9000   36.5800 C.2   154  VAL154      0.2260
     40  O        -14.5520   91.4190   35.8870 O.2   154  VAL154     -0.2867
     41  CB       -13.3190   94.3460   37.1640 C.3   154  VAL154      0.0252
     42  CG1      -13.6040   94.6340   35.7000 C.3   154  VAL154      0.0019
     43  CG2      -13.8270   95.4700   38.0640 C.3   154  VAL154      0.0019
     44  N         -7.1470   96.4070   25.3880 N.3   176  GLY176     -0.1225
     45  CA        -6.3790   96.8500   26.5380 C.3   176  GLY176      0.1811
     46  C         -5.6880   95.7030   27.2450 C.2   176  GLY176      0.2280
     47  O         -5.8350   95.5540   28.4600 O.2   176  GLY176     -0.2866
     48  N         -2.6790   95.0270   28.0470 N.3   178  THR178     -0.1203
     49  CA        -1.6470   95.3360   29.0260 C.3   178  THR178      0.1994
     50  C         -2.1890   96.0720   30.2480 C.2   178  THR178      0.2619
     51  O         -1.4080   96.3880   31.1560 O.2   178  THR178     -0.2717
     52  CB        -0.5060   96.1450   28.3770 C.3   178  THR178      0.1784
     53  OG1       -0.9590   97.4610   28.0120 O.3   178  THR178     -0.2211
     54  CG2        0.0390   95.4020   27.1590 C.3   178  THR178      0.0376
     55  N         -3.5040   96.2850   30.3320 N.am  179  SER179     -0.1937
     56  CA        -4.0790   96.9190   31.5080 C.3   179  SER179      0.2055
     57  C         -4.0820   95.9480   32.6890 C.2   179  SER179      0.2643
     58  O         -3.9330   94.7260   32.5370 O.2   179  SER179     -0.2714
     59  CB        -5.5140   97.3810   31.2370 C.3   179  SER179      0.2130
     60  OG        -6.4150   96.2840   31.1000 O.3   179  SER179     -0.2179
     61  N         -4.2850   96.5120   33.8830 N.am  180  ALA180     -0.1963
     62  CA        -4.3540   95.6990   35.0890 C.3   180  ALA180      0.1728
     63  C         -5.4740   94.6750   34.9940 C.2   180  ALA180      0.2616
     64  O         -5.2670   93.4910   35.2820 O.2   180  ALA180     -0.2715
     65  CB        -4.5370   96.5900   36.3160 C.3   180  ALA180      0.0334
     66  N         -6.6680   95.1080   34.5780 N.am  181  VAL181     -0.1977
     67  CA        -7.8050   94.1950   34.4290 C.3   181  VAL181      0.1596
     68  C         -7.5140   93.1390   33.3670 C.2   181  VAL181      0.2287
     69  O         -7.8290   91.9530   33.5470 O.2   181  VAL181     -0.2864
     70  CB        -9.0890   94.9860   34.1040 C.3   181  VAL181      0.0276
     71  CG1      -10.2350   94.0450   33.6820 C.3   181  VAL181      0.0022
     72  CG2       -9.5160   95.8180   35.2990 C.3   181  VAL181      0.0022
     73  N         -1.8120   97.6120   21.9320 N.3   201  ARG201     -0.1245
     74  CA        -1.1230   98.6110   21.1290 C.3   201  ARG201      0.1563
     75  C          0.2980   98.1390   20.8120 C.2   201  ARG201      0.2260
     76  O          0.9450   97.4850   21.6350 O.2   201  ARG201     -0.2867
     77  CB        -1.0910   99.9530   21.8810 C.3   201  ARG201      0.0307
     78  CG        -2.4540  100.6560   21.8840 C.3   201  ARG201      0.0489
     79  CD        -2.4230  102.1260   22.2900 C.3   201  ARG201      0.2205
     80  NE        -1.9390  102.3640   23.6480 N.pl3 201  ARG201     -0.0865
     81  CZ        -2.0110  103.5440   24.2670 C.cat 201  ARG201      0.5346
     82  NH1       -2.5520  104.5940   23.6600 N.pl3 201  ARG201      0.1354
     83  NH2       -1.5380  103.6830   25.4950 N.pl3 201  ARG201      0.1354
     84  N          4.3550   98.5780   20.1820 N.3   203  ARG203     -0.1245
     85  CA         5.3370   99.2600   21.0120 C.3   203  ARG203      0.1563
     86  C          6.7250   98.8420   20.5560 C.2   203  ARG203      0.2260
     87  O          6.8880   97.8380   19.8530 O.2   203  ARG203     -0.2867
     88  CB         5.1310   98.9250   22.4930 C.3   203  ARG203      0.0307
     89  CG         5.0110   97.4220   22.7430 C.3   203  ARG203      0.0489
     90  CD         4.1860   97.1420   23.9590 C.3   203  ARG203      0.2205
     91  NE         2.7930   97.4940   23.7640 N.pl3 203  ARG203     -0.0865
     92  CZ         1.9980   97.9760   24.7120 C.cat 203  ARG203      0.5346
     93  NH1        0.7440   98.2650   24.4140 N.pl3 203  ARG203      0.1354
     94  NH2        2.4480   98.1840   25.9460 N.pl3 203  ARG203      0.1354
     95  N         -3.0740   96.1160   17.4220 N.3   224  GLU224     -0.1245
     96  CA        -4.2380   96.8270   16.8820 C.3   224  GLU224      0.1567
     97  C         -4.2190   96.8430   15.3560 C.2   224  GLU224      0.2260
     98  O         -5.2830   96.7950   14.7250 O.2   224  GLU224     -0.2867
     99  CB        -4.3190   98.2590   17.4420 C.3   224  GLU224      0.0388
    100  CG        -4.7530   98.3340   18.9240 C.3   224  GLU224      0.1160
    101  CD        -6.2240   97.9080   19.1950 C.2   224  GLU224      0.3649
    102  OE1       -6.9340   97.5160   18.2360 O.co2 224  GLU224     -0.2457
    103  OE2       -6.6710   97.9630   20.3810 O.co2 224  GLU224     -0.2457
    104  N        -12.5480   97.9400   26.7710 N.3   253  CYS253     -0.1221
    105  CA       -12.2250   99.1230   27.5640 C.3   253  CYS253      0.1808
    106  C        -11.6210  100.2380   26.7160 C.2   253  CYS253      0.2601
    107  O        -11.0810  101.2020   27.2790 O.2   253  CYS253     -0.2717
    108  CB       -11.2550   98.7860   28.7050 C.3   253  CYS253      0.0970
    109  SG        -9.6460   98.1590   28.1340 S.3   253  CYS253     -0.0800
    110  N        -11.6930  100.1570   25.3830 N.am  254  VAL254     -0.1979
    111  CA       -11.0420  101.1260   24.5110 C.3   254  VAL254      0.1595
    112  C        -12.0550  101.9410   23.7120 C.2   254  VAL254      0.2287
    113  O        -11.9570  103.1660   23.6420 O.2   254  VAL254     -0.2864
    114  CB       -10.0200  100.4540   23.5670 C.3   254  VAL254      0.0276
    115  CG1       -9.4270  101.4830   22.5800 C.3   254  VAL254      0.0022
    116  CG2       -8.8780   99.8070   24.3780 C.3   254  VAL254      0.0022
    117  N        -16.4710   97.9890   29.7630 N.3   275  TYR275     -0.1227
    118  CA       -16.2080   98.3600   31.1430 C.3   275  TYR275      0.1736
    119  C        -15.2970   99.5700   31.2730 C.2   275  TYR275      0.2596
    120  O        -15.0690  100.0220   32.3940 O.2   275  TYR275     -0.2718
    121  CB       -15.6090   97.1760   31.9160 C.3   275  TYR275      0.0548
    122  CG       -14.1870   96.7910   31.5650 C.ar  275  TYR275     -0.0200
    123  CD1      -13.9010   95.9850   30.4620 C.ar  275  TYR275     -0.0009
    124  CD2      -13.1320   97.2070   32.3650 C.ar  275  TYR275     -0.0009
    125  CE1      -12.5950   95.6050   30.1740 C.ar  275  TYR275      0.0417
    126  CE2      -11.8450   96.8440   32.0870 C.ar  275  TYR275      0.0417
    127  CZ       -11.5690   96.0510   30.9940 C.ar  275  TYR275      0.1957
    128  OH       -10.2590   95.6980   30.7510 O.3   275  TYR275     -0.2866
    129  N        -14.7810  100.1090   30.1720 N.am  276  GLY276     -0.1942
    130  CA       -13.9780  101.3180   30.1980 C.3   276  GLY276      0.2014
    131  C        -14.0290  101.9610   28.8260 C.2   276  GLY276      0.2639
    132  O        -14.6170  101.4250   27.8810 O.2   276  GLY276     -0.2714
    133  N        -13.3850  103.1140   28.7230 N.am  277  GLY277     -0.1939
    134  CA       -13.3270  103.8450   27.4770 C.3   277  GLY277      0.2014
    135  C        -12.1190  104.7520   27.4000 C.2   277  GLY277      0.2639
    136  O        -12.2520  105.9730   27.2830 O.2   277  GLY277     -0.2714
    137  N        -10.9270  104.1470   27.4420 N.am  278  MET278     -0.1963
    138  CA        -9.6820  104.9080   27.5470 C.3   278  MET278      0.1736
    139  C         -9.3900  105.7160   26.2880 C.2   278  MET278      0.2617
    140  O         -8.6770  106.7230   26.3570 O.2   278  MET278     -0.2715
    141  CB        -8.5160  103.9590   27.8340 C.3   278  MET278      0.0427
    142  CG        -8.6770  103.1330   29.1060 C.3   278  MET278      0.0599
    143  SD        -8.6440  104.1290   30.6130 S.3   278  MET278     -0.1393
    144  CE        -6.9410  104.6890   30.6330 C.3   278  MET278      0.0692
    145  N         -9.9030  105.2840   25.1330 N.am  279  SER279     -0.1936
    146  CA        -9.7260  106.0500   23.9040 C.3   279  SER279      0.2055
    147  C        -10.5710  107.3180   23.8910 C.2   279  SER279      0.2643
    148  O        -10.2720  108.2350   23.1180 O.2   279  SER279     -0.2714
    149  CB       -10.0730  105.1800   22.6870 C.3   279  SER279      0.2130
    150  OG        -9.9890  105.8850   21.4610 O.3   279  SER279     -0.2179
    151  N        -11.6060  107.3940   24.7310 N.am  280  PHE280     -0.1973
    152  CA       -12.5730  108.4900   24.7550 C.3   280  PHE280      0.1639
    153  C        -13.4320  108.5350   23.4950 C.2   280  PHE280      0.2290
    154  O        -14.1860  109.4970   23.2950 O.2   280  PHE280     -0.2864
    155  CB       -11.8850  109.8440   24.9630 C.3   280  PHE280      0.0560
    156  CG       -11.0630  109.9150   26.2220 C.ar  280  PHE280     -0.0200
    157  CD1      -11.6780  109.9580   27.4640 C.ar  280  PHE280     -0.0042
    158  CD2       -9.6770  109.9350   26.1670 C.ar  280  PHE280     -0.0042
    159  CE1      -10.9290  110.0190   28.6250 C.ar  280  PHE280     -0.0003
    160  CE2       -8.9210  109.9970   27.3270 C.ar  280  PHE280     -0.0003
    161  CZ        -9.5490  110.0380   28.5560 C.ar  280  PHE280     -0.0000
    162  N        -20.7650   97.0840   31.9080 N.3   300  PHE300     -0.1227
    163  CA       -20.3670   96.4890   33.1760 C.3   300  PHE300      0.1736
    164  C        -19.8630   97.5620   34.1250 C.2   300  PHE300      0.2595
    165  O        -18.9510   98.3050   33.7660 O.2   300  PHE300     -0.2718
    166  CB       -19.2710   95.4420   32.9640 C.3   300  PHE300      0.0547
    167  CG       -18.8260   94.7850   34.2330 C.ar  300  PHE300     -0.0202
    168  CD1      -19.5230   93.7080   34.7510 C.ar  300  PHE300     -0.0042
    169  CD2      -17.7160   95.2610   34.9310 C.ar  300  PHE300     -0.0042
    170  CE1      -19.1330   93.1090   35.9310 C.ar  300  PHE300     -0.0003
    171  CE2      -17.3160   94.6590   36.1230 C.ar  300  PHE300     -0.0003
    172  CZ       -18.0230   93.5750   36.6160 C.ar  300  PHE300     -0.0000
    173  N        -20.4080   97.5940   35.3450 N.am  301  TRP301     -0.1962
    174  CA       -19.9670   98.5110   36.3980 C.3   301  TRP301      0.1771
    175  C        -20.0110   97.7680   37.7320 C.2   301  TRP301      0.2619
    176  O        -21.0940   97.5460   38.2880 O.2   301  TRP301     -0.2715
    177  CB       -20.8470   99.7650   36.4200 C.3   301  TRP301      0.0590
    178  CG       -20.3560  100.8920   37.3160 C.ar  301  TRP301      0.0006
    179  CD1      -19.0920  101.0640   37.7770 C.ar  301  TRP301      0.0946
    180  CD2      -21.1260  101.9990   37.8360 C.ar  301  TRP301      0.0152
    181  NE1      -19.0150  102.1960   38.5610 N.ar  301  TRP301     -0.2442
    182  CE2      -20.2470  102.7890   38.6120 C.ar  301  TRP301      0.0810
    183  CE3      -22.4660  102.3970   37.7180 C.ar  301  TRP301      0.0012
    184  CZ2      -20.6610  103.9570   39.2720 C.ar  301  TRP301      0.0191
    185  CZ3      -22.8800  103.5560   38.3770 C.ar  301  TRP301      0.0001
    186  CH2      -21.9770  104.3210   39.1480 C.ar  301  TRP301      0.0015
    187  N        -18.8340   97.4280   38.2770 N.am  302  VAL302     -0.1977
    188  CA       -18.7800   96.5150   39.4220 C.3   302  VAL302      0.1596
    189  C        -19.5090   97.1030   40.6230 C.2   302  VAL302      0.2287
    190  O        -20.1670   96.3730   41.3750 O.2   302  VAL302     -0.2864
    191  CB       -17.3190   96.1530   39.7690 C.3   302  VAL302      0.0276
    192  CG1      -16.5720   97.3180   40.4480 C.3   302  VAL302      0.0022
    193  CG2      -17.2760   94.9160   40.6350 C.3   302  VAL302      0.0022
    194  N          0.9390  108.5170   36.1380 N.3   356  SER356     -0.1202
    195  CA         0.1500  107.3040   35.9650 C.3   356  SER356      0.2020
    196  C          0.3980  106.6490   34.6150 C.2   356  SER356      0.2618
    197  O          0.1170  105.4550   34.4570 O.2   356  SER356     -0.2717
    198  CB        -1.3420  107.6130   36.1360 C.3   356  SER356      0.2103
    199  OG        -1.7330  107.5260   37.5030 O.3   356  SER356     -0.2182
    200  N          0.9140  107.3980   33.6390 N.am  357  LYS357     -0.1979
    201  CA         1.2710  106.8020   32.3560 C.3   357  LYS357      0.1596
    202  C          2.4440  105.8410   32.4960 C.2   357  LYS357      0.2287
    203  O          2.5860  104.9170   31.6870 O.2   357  LYS357     -0.2864
    204  CB         1.6020  107.8990   31.3450 C.3   357  LYS357      0.0298
    205  CG         0.8360  107.7810   30.0440 C.3   357  LYS357      0.0038
    206  CD         0.8500  109.0930   29.2680 C.3   357  LYS357      0.0206
    207  CE        -0.2240  109.1280   28.1790 C.3   357  LYS357      0.1093
    208  NZ        -1.6060  108.9670   28.7320 N.3   357  LYS357     -0.1314
    209  N          2.6850  103.7060   34.7730 N.3   359  GLY359     -0.1210
    210  CA         2.1930  102.4990   35.4000 C.3   359  GLY359      0.1956
    211  C          1.3900  102.7890   36.6490 C.2   359  GLY359      0.2611
    212  O          1.3180  103.9370   37.0960 O.2   359  GLY359     -0.2717
    213  N          0.7750  101.7500   37.2120 N.am  360  LYS360     -0.1979
    214  CA        -0.0400  101.9080   38.4070 C.3   360  LYS360      0.1596
    215  C          0.8030  102.4850   39.5380 C.2   360  LYS360      0.2287
    216  O          1.9060  102.0040   39.8160 O.2   360  LYS360     -0.2864
    217  CB        -0.6380  100.5560   38.8130 C.3   360  LYS360      0.0298
    218  CG        -1.5330  100.5780   40.0600 C.3   360  LYS360      0.0038
    219  CD        -2.8100  101.4030   39.8670 C.3   360  LYS360      0.0206
    220  CE        -3.6680  100.8780   38.7130 C.3   360  LYS360      0.1093
    221  NZ        -4.8780  101.7050   38.4770 N.3   360  LYS360     -0.1314
@<TRIPOS>BOND
     1    98    97    2
     2    97    96    1
     3    96    95    1
     4    96    99    1
     5    99   100    1
     6   102   101   ar
     7   100   101    1
     8   101   103   ar
     9    87    86    2
    10    84    85    1
    11    86    85    1
    12    75    74    1
    13    75    76    2
    14    85    88    1
    15    74    77    1
    16    74    73    1
    17   150   149    1
    18    77    78    1
    19    78    79    1
    20    79    80    1
    21    88    89    1
    22   115   114    1
    23   149   146    1
    24    89    90    1
    25   148   147    2
    26   154   153    2
    27   153   152    1
    28   114   116    1
    29   114   111    1
    30   113   112    2
    31    80    81    2
    32    82    81    1
    33   112   111    1
    34    91    90    1
    35    91    92    2
    36   147   146    1
    37   147   151   am
    38   146   145    1
    39    81    83    1
    40    93    92    1
    41   111   110    1
    42    92    94    1
    43   151   152    1
    44   152   155    1
    45   155   156    1
    46   145   139   am
    47   110   106   am
    48    44    45    1
    49   158   156   ar
    50   158   160   ar
    51   156   157   ar
    52   139   140    2
    53   139   138    1
    54    45    46    1
    55   106   107    2
    56   106   105    1
    57   104   105    1
    58    54    52    1
    59    46    47    2
    60   136   135    2
    61   160   161   ar
    62   135   137   am
    63   135   134    1
    64   137   138    1
    65   157   159   ar
    66   134   133    1
    67   138   141    1
    68   105   108    1
    69   141   142    1
    70   132   131    2
    71    53    52    1
    72    48    49    1
    73   109   108    1
    74   207   208    1
    75   207   206    1
    76    52    49    1
    77   161   159   ar
    78   133   131   am
    79   131   130    1
    80    49    50    1
    81   142   143    1
    82   206   205    1
    83   117   118    1
    84   205   204    1
    85   129   130    1
    86   129   119   am
    87   125   123   ar
    88   125   127   ar
    89    50    55   am
    90    50    51    2
    91    55    56    1
    92   123   122   ar
    93   143   144    1
    94   128   127    1
    95   127   126   ar
    96    60    59    1
    97   118   119    1
    98   118   121    1
    99    59    56    1
   100   119   120    2
   101   204   201    1
   102    56    57    1
   103   122   121    1
   104   122   124   ar
   105   203   202    2
   106   162   163    1
   107   126   124   ar
   108   201   202    1
   109   201   200    1
   110    58    57    2
   111    57    61   am
   112   166   163    1
   113   166   167    1
   114   163   164    1
   115    68    69    2
   116    68    67    1
   117   200   196   am
   118    71    70    1
   119   165   164    2
   120    61    62    1
   121    70    67    1
   122    70    72    1
   123   164   173   am
   124   167   168   ar
   125   167   169   ar
   126    67    66    1
   127   197   196    2
   128    66    63   am
   129   196   195    1
   130   168   170   ar
   131   209   210    1
   132   169   171   ar
   133    63    62    1
   134    63    64    2
   135    62    65    1
   136   173   174    1
   137   210   211    1
   138    42    41    1
   139    14    13    1
   140    14    15    1
   141    40    39    2
   142   170   172   ar
   143    13    10    1
   144   195   198    1
   145   195   194    1
   146   171   172   ar
   147   198   199    1
   148   174   177    1
   149   174   175    1
   150   177   178    1
   151    39    38    1
   152   211   212    2
   153   211   213   am
   154    41    38    1
   155    41    43    1
   156   213   214    1
   157    10    11    1
   158    10     9    1
   159    15     9    1
   160   178   179   ar
   161   178   180   ar
   162    38    37    1
   163   183   180   ar
   164   183   185   ar
   165   175   187   am
   166   175   176    2
   167   179   181   ar
   168    12    11    2
   169   180   182   ar
   170    11    16   am
   171     9     3   am
   172    35    34    2
   173    32    31    2
   174   187   188    1
   175   185   186   ar
   176   214   217    1
   177   214   215    1
   178    36    34   am
   179   221   220    1
   180    16    17    1
   181    34    33    1
   182   181   182   ar
   183   182   184   ar
   184   220   219    1
   185   217   218    1
   186    33    30    1
   187    17    20    1
   188    17    18    1
   189   186   184   ar
   190    31    30    1
   191    30    29    1
   192     3     4    2
   193     3     2    1
   194   188   191    1
   195   188   189    1
   196   215   216    2
   197    20    21    1
   198   191   192    1
   199   191   193    1
   200   219   218    1
   201     2     5    1
   202     2     1    1
   203    18    19    2
   204    29    24   am
   205   189   190    2
   206    25    24    2
   207     5     6    1
   208    27    26    1
   209     7     6    2
   210    24    23    1
   211     6     8   am
   212    26    23    1
   213    26    28    1
   214    23    22    1
