@<TRIPOS>MOLECULE
tmp/5lbaA01.pdb
 103 98 0 0 0
SMALL
GASTEIGER

@<TRIPOS>ATOM
      1  N         13.8380  -62.1140    8.1210 N.3    43  PRO43      -0.2102
      2  CA        15.1710  -62.3830    8.6980 C.3    43  PRO43       0.1504
      3  C         15.3530  -61.8710   10.1180 C.2    43  PRO43       0.2576
      4  O         14.6110  -60.9860   10.5610 O.2    43  PRO43      -0.2718
      5  CB        16.1270  -61.6530    7.7390 C.3    43  PRO43       0.0282
      6  CG        15.3840  -61.5210    6.4470 C.3    43  PRO43       0.0208
      7  CD        13.9150  -61.5140    6.7740 C.3    43  PRO43       0.0893
      8  N         16.3220  -62.4360   10.8240 N.am   44  THR44      -0.1953
      9  CA        16.7040  -61.9440   12.1570 C.3    44  THR44       0.1897
     10  C         17.2060  -60.5020   12.0620 C.2    44  THR44       0.2313
     11  O         18.0480  -60.2270   11.2480 O.2    44  THR44      -0.2863
     12  CB        17.8440  -62.7940   12.7290 C.3    44  THR44       0.1794
     13  OG1       17.4550  -64.1800   12.7270 O.3    44  THR44      -0.2208
     14  CG2       18.2250  -62.3400   14.1590 C.3    44  THR44       0.0378
     15  N         12.4550  -66.7030   11.7720 N.3   183  ALA183     -0.1231
     16  CA        13.3340  -66.4290   10.6340 C.3   183  ALA183      0.1694
     17  C         13.6030  -67.6180    9.7020 C.2   183  ALA183      0.2593
     18  O         13.9890  -67.3940    8.5740 O.2   183  ALA183     -0.2718
     19  CB        14.6360  -65.8220   11.1050 C.3   183  ALA183      0.0304
     20  N         13.3670  -68.8640   10.1230 N.am  184  THR184     -0.1939
     21  CA        13.6170  -70.0530    9.2600 C.3   184  THR184      0.2028
     22  C         12.5070  -70.1150    8.2110 C.2   184  THR184      0.2642
     23  O         11.3290  -70.0820    8.5650 O.2   184  THR184     -0.2714
     24  CB        13.5970  -71.3560   10.0750 C.3   184  THR184      0.1808
     25  OG1       14.5980  -71.3300   11.1000 O.3   184  THR184     -0.2208
     26  CG2       13.8200  -72.5970    9.1850 C.3   184  THR184      0.0379
     27  N         12.8640  -70.3230    6.9450 N.am  185  ALA185     -0.1963
     28  CA        12.0030  -69.9480    5.7960 C.3   185  ALA185      0.1728
     29  C         11.7820  -71.1030    4.8110 C.2   185  ALA185      0.2616
     30  O         11.3180  -70.8980    3.6830 O.2   185  ALA185     -0.2715
     31  CB        12.5590  -68.6930    5.0740 C.3   185  ALA185      0.0334
     32  N         12.0570  -72.3240    5.2540 N.am  186  THR186     -0.1951
     33  CA        11.8680  -73.5030    4.4290 C.3   186  THR186      0.1897
     34  C         10.3760  -73.8870    4.4350 C.2   186  THR186      0.2313
     35  O          9.7210  -73.7220    5.4520 O.2   186  THR186     -0.2863
     36  CB        12.7230  -74.6800    4.9470 C.3   186  THR186      0.1794
     37  OG1       12.2610  -75.0960    6.2360 O.3   186  THR186     -0.2208
     38  CG2       14.2100  -74.2810    5.0240 C.3   186  THR186      0.0378
     39  N         13.3580  -64.3390   -1.1200 N.3   210  CYS210     -0.1235
     40  CA        14.8050  -64.5060   -0.9840 C.3   210  CYS210      0.1677
     41  C         15.5800  -64.2170   -2.3060 C.2   210  CYS210      0.2270
     42  O         16.7930  -64.2240   -2.2920 O.2   210  CYS210     -0.2867
     43  CB        15.1480  -65.8870   -0.3510 C.3   210  CYS210      0.0956
     44  SG        15.0360  -65.9910    1.4940 S.3   210  CYS210     -0.0801
     45  N         21.4150  -73.0090    3.7190 N.3   323  ALA323     -0.1245
     46  CA        21.1050  -71.8270    4.5290 C.3   323  ALA323      0.1562
     47  C         22.3750  -71.0910    4.8780 C.2   323  ALA323      0.2260
     48  O         22.3650  -69.8660    4.9850 O.2   323  ALA323     -0.2867
     49  CB        20.3360  -72.1840    5.7970 C.3   323  ALA323      0.0290
     50  N         23.5670  -69.2160    1.6110 N.3   326  TYR326     -0.1227
     51  CA        22.6620  -68.0970    1.3190 C.3   326  TYR326      0.1736
     52  C         22.9380  -66.9140    2.2430 C.2   326  TYR326      0.2595
     53  O         23.0520  -65.8090    1.7570 O.2   326  TYR326     -0.2718
     54  CB        21.1970  -68.5220    1.3980 C.3   326  TYR326      0.0548
     55  CG        20.2110  -67.3790    1.2940 C.ar  326  TYR326     -0.0200
     56  CD1       19.7730  -66.9160    0.0590 C.ar  326  TYR326     -0.0009
     57  CD2       19.7150  -66.7520    2.4480 C.ar  326  TYR326     -0.0009
     58  CE1       18.8710  -65.8630   -0.0250 C.ar  326  TYR326      0.0417
     59  CE2       18.8260  -65.6910    2.3680 C.ar  326  TYR326      0.0417
     60  CZ        18.4000  -65.2530    1.1350 C.ar  326  TYR326      0.1957
     61  OH        17.4910  -64.2230    1.0720 O.3   326  TYR326     -0.2866
     62  N         23.0440  -67.1520    3.5490 N.am  327  GLN327     -0.1979
     63  CA        23.5100  -66.1440    4.5080 C.3   327  GLN327      0.1601
     64  C         24.8420  -65.4770    4.1590 C.2   327  GLN327      0.2287
     65  O         24.9570  -64.2520    4.2000 O.2   327  GLN327     -0.2864
     66  CB        23.7340  -66.7770    5.8770 C.3   327  GLN327      0.0394
     67  CG        22.6580  -66.5390    6.9090 C.3   327  GLN327      0.0908
     68  CD        21.5800  -67.6230    6.9410 C.2   327  GLN327      0.2608
     69  OE1       21.5670  -68.4730    7.8370 O.2   327  GLN327     -0.2717
     70  NE2       20.6800  -67.6050    5.9580 N.am  327  GLN327     -0.0878
     71  N         25.8870  -61.4350    2.1500 N.3   331  ARG331     -0.1245
     72  CA        26.6000  -60.2280    2.6120 C.3   331  ARG331      0.1563
     73  C         27.1030  -59.3570    1.4220 C.2   331  ARG331      0.2260
     74  O         27.5060  -58.2140    1.6290 O.2   331  ARG331     -0.2867
     75  CB        27.7640  -60.5930    3.5430 C.3   331  ARG331      0.0307
     76  CG        27.3650  -61.3720    4.7980 C.3   331  ARG331      0.0489
     77  CD        28.5530  -61.5080    5.7440 C.3   331  ARG331      0.2205
     78  NE        28.6240  -62.8100    6.4400 N.pl3 331  ARG331     -0.0865
     79  CZ        28.2100  -63.0770    7.6880 C.cat 331  ARG331      0.5346
     80  NH1       27.6610  -62.1380    8.4560 N.pl3 331  ARG331      0.1354
     81  NH2       28.3410  -64.3090    8.1810 N.pl3 331  ARG331      0.1354
     82  N         24.6960  -55.1550   -0.6150 N.3   334  ARG334     -0.1245
     83  CA        23.6620  -54.5050    0.2020 C.3   334  ARG334      0.1563
     84  C         23.2180  -53.1150   -0.3200 C.2   334  ARG334      0.2260
     85  O         22.0380  -52.7600   -0.2080 O.2   334  ARG334     -0.2867
     86  CB        24.1230  -54.4050    1.6660 C.3   334  ARG334      0.0307
     87  CG        24.2900  -55.7420    2.3890 C.3   334  ARG334      0.0489
     88  CD        22.9910  -56.5670    2.4870 C.3   334  ARG334      0.2205
     89  NE        23.1840  -57.8610    3.1580 N.pl3 334  ARG334     -0.0865
     90  CZ        23.2620  -58.0530    4.4810 C.cat 334  ARG334      0.5346
     91  NH1       23.4510  -59.2830    4.9580 N.pl3 334  ARG334      0.1354
     92  NH2       23.1650  -57.0380    5.3400 N.pl3 334  ARG334      0.1354
     93  N         13.6520  -72.2750   -0.3960 N.3   402  PHE402     -0.1241
     94  CA        12.8300  -71.4520    0.5260 C.3   402  PHE402      0.1605
     95  C         11.3310  -71.3230    0.1180 C.2   402  PHE402      0.2264
     96  O         10.6040  -70.4800    0.6520 O.2   402  PHE402     -0.2867
     97  CB        13.4640  -70.0560    0.6580 C.3   402  PHE402      0.0534
     98  CG        14.8590  -70.0870    1.2020 C.ar  402  PHE402     -0.0203
     99  CD1       15.0920  -70.4090    2.5480 C.ar  402  PHE402     -0.0042
    100  CD2       15.9440  -69.8060    0.3850 C.ar  402  PHE402     -0.0042
    101  CE1       16.3770  -70.4600    3.0570 C.ar  402  PHE402     -0.0003
    102  CE2       17.2330  -69.8460    0.8990 C.ar  402  PHE402     -0.0003
    103  CZ        17.4500  -70.1810    2.2390 C.ar  402  PHE402     -0.0000
@<TRIPOS>BOND
     1    41    42    2
     2    41    40    1
     3    39    40    1
     4    40    43    1
     5    82    83    1
     6    93    94    1
     7    43    44    1
     8    84    85    2
     9    84    83    1
    10    58    56   ar
    11    58    60   ar
    12    56    55   ar
    13    95    94    1
    14    95    96    2
    15    83    86    1
    16   100   102   ar
    17   100    98   ar
    18    94    97    1
    19    97    98    1
    20   102   103   ar
    21    61    60    1
    22    60    59   ar
    23    98    99   ar
    24    55    54    1
    25    55    57   ar
    26    51    54    1
    27    51    50    1
    28    51    52    1
    29    73    74    2
    30    73    72    1
    31    86    87    1
    32    53    52    2
    33    71    72    1
    34   103   101   ar
    35    52    62   am
    36    59    57   ar
    37    87    88    1
    38    88    89    1
    39    99   101   ar
    40    72    75    1
    41    89    90    2
    42    75    76    1
    43    62    63    1
    44    30    29    2
    45    45    46    1
    46    64    65    2
    47    64    63    1
    48    33    34    1
    49    33    36    1
    50    33    32    1
    51    34    35    2
    52    90    91    1
    53    90    92    1
    54    63    66    1
    55    46    47    1
    56    46    49    1
    57    76    77    1
    58    29    32   am
    59    29    28    1
    60    47    48    2
    61    36    38    1
    62    36    37    1
    63    31    28    1
    64    77    78    1
    65    28    27    1
    66    66    67    1
    67    70    68   am
    68    78    79    2
    69     6     7    1
    70     6     5    1
    71     7     1    1
    72    67    68    1
    73    68    69    2
    74    27    22   am
    75    79    81    1
    76    79    80    1
    77     5     2    1
    78     1     2    1
    79    22    23    2
    80    22    21    1
    81    18    17    2
    82     2     3    1
    83    26    24    1
    84    21    24    1
    85    21    20    1
    86    17    20   am
    87    17    16    1
    88    24    25    1
    89     3     4    2
    90     3     8   am
    91    16    19    1
    92    16    15    1
    93     8     9    1
    94    11    10    2
    95    10     9    1
    96     9    12    1
    97    13    12    1
    98    12    14    1
