@<TRIPOS>MOLECULE
tmp/5lboB01.pdb
 223 217 0 0 0
SMALL
GASTEIGER

@<TRIPOS>ATOM
      1  N         -5.9370  113.9520  306.2050 N.3    71  TYR71      -0.1227
      2  CA        -6.9650  114.9430  306.4070 C.3    71  TYR71       0.1736
      3  C         -6.6820  115.7990  307.6340 C.2    71  TYR71       0.2595
      4  O         -6.5380  116.9920  307.4930 O.2    71  TYR71      -0.2718
      5  CB        -8.3380  114.3050  306.5160 C.3    71  TYR71       0.0548
      6  CG        -9.4320  115.3120  306.6840 C.ar   71  TYR71      -0.0200
      7  CD1       -9.7760  115.7670  307.9340 C.ar   71  TYR71      -0.0009
      8  CD2      -10.1500  115.7910  305.5660 C.ar   71  TYR71      -0.0009
      9  CE1      -10.7960  116.6940  308.1130 C.ar   71  TYR71       0.0417
     10  CE2      -11.1720  116.7400  305.7210 C.ar   71  TYR71       0.0417
     11  CZ       -11.4760  117.2110  306.9980 C.ar   71  TYR71       0.1957
     12  OH       -12.4850  118.1230  307.2260 O.3    71  TYR71      -0.2866
     13  N         -6.5730  115.1910  308.8160 N.am   72  HIS72      -0.1975
     14  CA        -6.3620  115.9190  310.0550 C.3    72  HIS72       0.1656
     15  C         -4.9220  116.4050  310.2780 C.2    72  HIS72       0.2291
     16  O         -4.2480  116.0430  311.2390 O.2    72  HIS72      -0.2864
     17  CB        -6.8360  115.1050  311.2070 C.3    72  HIS72       0.0771
     18  CG        -8.3080  114.9440  311.2090 C.ar   72  HIS72       0.0820
     19  ND1       -8.9350  113.7600  310.8920 N.ar   72  HIS72      -0.2267
     20  CD2       -9.2890  115.8290  311.5040 C.ar   72  HIS72       0.1154
     21  CE1      -10.2430  113.9190  311.0090 C.ar   72  HIS72       0.1986
     22  NE2      -10.4810  115.1620  311.4000 N.ar   72  HIS72      -0.2212
     23  N         -7.3930  120.2150  316.3710 N.3   113  ASP113     -0.1239
     24  CA        -7.0530  118.8380  315.9910 C.3   113  ASP113      0.1674
     25  C         -5.5290  118.5590  316.1460 C.2   113  ASP113      0.2266
     26  O         -5.0040  117.6350  315.5260 O.2   113  ASP113     -0.2867
     27  CB        -7.4820  118.5750  314.5250 C.3   113  ASP113      0.1410
     28  CG        -8.9250  118.1840  314.3750 C.2   113  ASP113      0.3668
     29  OD1       -9.5640  117.6170  315.3070 O.co2 113  ASP113     -0.2456
     30  OD2       -9.4170  118.4100  313.2480 O.co2 113  ASP113     -0.2456
     31  N         -3.2630  114.9390  315.9440 N.3   116  HIS116     -0.1241
     32  CA        -4.2870  113.9600  315.6290 C.3   116  HIS116      0.1621
     33  C         -3.5290  112.7960  314.9620 C.2   116  HIS116      0.2264
     34  O         -2.7550  113.0320  314.0300 O.2   116  HIS116     -0.2867
     35  CB        -5.2980  114.5560  314.6680 C.3   116  HIS116      0.0745
     36  CG        -6.5910  113.8190  314.5940 C.ar  116  HIS116      0.0817
     37  ND1       -6.6930  112.5420  314.1070 N.ar  116  HIS116     -0.2268
     38  CD2       -7.8570  114.2190  314.8600 C.ar  116  HIS116      0.1154
     39  CE1       -7.9440  112.1520  314.1420 C.ar  116  HIS116      0.1986
     40  NE2       -8.6730  113.1470  314.6220 N.ar  116  HIS116     -0.2212
     41  N        -10.2210  114.9820  321.5830 N.3   142  GLU142     -0.1245
     42  CA       -10.4770  116.4140  321.7880 C.3   142  GLU142      0.1567
     43  C         -9.8610  116.9660  323.1040 C.2   142  GLU142      0.2260
     44  O         -9.2040  118.0410  323.0970 O.2   142  GLU142     -0.2867
     45  CB       -11.9610  116.6710  321.7350 C.3   142  GLU142      0.0388
     46  CG       -12.5610  116.4530  320.3470 C.3   142  GLU142      0.1160
     47  CD       -12.7880  114.9740  319.9510 C.2   142  GLU142      0.3649
     48  OE1      -12.9190  114.1070  320.8600 O.co2 142  GLU142     -0.2457
     49  OE2      -12.8500  114.7210  318.7130 O.co2 142  GLU142     -0.2457
     50  N        -16.1360  120.1540  319.2880 N.3   183  THR183     -0.1218
     51  CA       -15.8160  119.6110  317.9890 C.3   183  THR183      0.1862
     52  C        -15.9190  118.0650  317.9030 C.2   183  THR183      0.2287
     53  O        -15.7840  117.4760  316.8130 O.2   183  THR183     -0.2866
     54  CB       -14.4320  120.0410  317.4980 C.3   183  THR183      0.1770
     55  OG1      -13.3940  119.4890  318.3350 O.3   183  THR183     -0.2211
     56  CG2      -14.3490  121.5160  317.4730 C.3   183  THR183      0.0375
     57  N        -17.8240  114.9430  317.3530 N.3   185  MET185     -0.1245
     58  CA       -19.1100  114.6440  316.7140 C.3   185  MET185      0.1570
     59  C        -20.1860  114.0210  317.6070 C.2   185  MET185      0.2261
     60  O        -21.3780  114.1450  317.3310 O.2   185  MET185     -0.2867
     61  CB       -18.9310  113.8040  315.4510 C.3   185  MET185      0.0387
     62  CG       -18.3950  114.5930  314.2300 C.3   185  MET185      0.0595
     63  SD       -19.4820  116.0010  313.7480 S.3   185  MET185     -0.1393
     64  CE       -21.0320  115.2030  313.4380 C.3   185  MET185      0.0692
     65  N        -17.6540  124.6560  315.0420 N.3   227  HIS227     -0.1241
     66  CA       -18.2160  123.3870  314.5430 C.3   227  HIS227      0.1621
     67  C        -18.6170  123.4740  313.0510 C.2   227  HIS227      0.2264
     68  O        -18.3420  122.5460  312.2850 O.2   227  HIS227     -0.2867
     69  CB       -19.4130  122.9880  315.4210 C.3   227  HIS227      0.0745
     70  CG       -19.9940  121.6550  315.0940 C.ar  227  HIS227      0.0817
     71  ND1      -19.2090  120.5320  314.9270 N.ar  227  HIS227     -0.2268
     72  CD2      -21.2820  121.2400  314.9760 C.ar  227  HIS227      0.1154
     73  CE1      -19.9830  119.4830  314.7060 C.ar  227  HIS227      0.1986
     74  NE2      -21.2420  119.8780  314.7500 N.ar  227  HIS227     -0.2212
     75  N        -15.4920  123.4130  311.0950 N.3   230  ASP230     -0.1225
     76  CA       -14.9890  122.0460  311.0460 C.3   230  ASP230      0.1805
     77  C        -15.7990  121.2090  310.0420 C.2   230  ASP230      0.2597
     78  O        -15.2360  120.3390  309.3330 O.2   230  ASP230     -0.2718
     79  CB       -15.0890  121.4470  312.4500 C.3   230  ASP230      0.1424
     80  CG       -14.0770  120.3470  312.7160 C.2   230  ASP230      0.3668
     81  OD1      -13.0330  120.2240  312.0150 O.co2 230  ASP230     -0.2456
     82  OD2      -14.3500  119.6410  313.6690 O.co2 230  ASP230     -0.2456
     83  N        -17.0990  121.5160  309.9280 N.am  231  LEU231     -0.1979
     84  CA       -17.9750  120.8720  308.9280 C.3   231  LEU231      0.1596
     85  C        -18.2260  121.7310  307.6520 C.2   231  LEU231      0.2287
     86  O        -19.2820  121.6180  307.0210 O.2   231  LEU231     -0.2864
     87  CB       -19.2910  120.4770  309.5750 C.3   231  LEU231      0.0297
     88  CG       -19.1860  119.5290  310.7700 C.3   231  LEU231      0.0022
     89  CD1      -20.5750  119.1720  311.2400 C.3   231  LEU231      0.0001
     90  CD2      -18.4820  118.2730  310.4320 C.3   231  LEU231      0.0001
     91  N        -16.2830  121.7780  304.7140 N.3   233  ASN233     -0.1240
     92  CA       -15.7640  121.2930  303.4190 C.3   233  ASN233      0.1653
     93  C        -16.8110  121.2190  302.2930 C.2   233  ASN233      0.2266
     94  O        -16.5550  121.6900  301.1860 O.2   233  ASN233     -0.2867
     95  CB       -15.0870  119.9190  303.4690 C.3   233  ASN233      0.1155
     96  CG       -13.9480  119.7840  304.4790 C.2   233  ASN233      0.2627
     97  OD1      -13.7690  118.6920  304.9990 O.2   233  ASN233     -0.2716
     98  ND2      -13.1680  120.8250  304.7180 N.am  233  ASN233     -0.0877
     99  N        -13.6790  121.1010  297.8970 N.3   241  TYR241     -0.1241
    100  CA       -14.4460  120.0310  298.5450 C.3   241  TYR241      0.1605
    101  C        -13.9790  118.6400  298.0840 C.2   241  TYR241      0.2264
    102  O        -13.7780  117.7370  298.8940 O.2   241  TYR241     -0.2867
    103  CB       -15.9070  120.2590  298.2420 C.3   241  TYR241      0.0534
    104  CG       -16.8840  119.2080  298.7300 C.ar  241  TYR241     -0.0201
    105  CD1      -16.6020  118.3710  299.8080 C.ar  241  TYR241     -0.0009
    106  CD2      -18.1510  119.1350  298.1690 C.ar  241  TYR241     -0.0009
    107  CE1      -17.5360  117.4430  300.2670 C.ar  241  TYR241      0.0417
    108  CE2      -19.0680  118.1950  298.5890 C.ar  241  TYR241      0.0417
    109  CZ       -18.7440  117.3290  299.6510 C.ar  241  TYR241      0.1957
    110  OH       -19.7120  116.4460  300.0750 O.3   241  TYR241     -0.2866
    111  N        -10.7860  117.7100  299.8350 N.3   244  TRP244     -0.1227
    112  CA       -11.0670  117.3210  301.2190 C.3   244  TRP244      0.1737
    113  C        -11.6750  115.9070  301.2790 C.2   244  TRP244      0.2596
    114  O        -11.3080  115.0970  302.1460 O.2   244  TRP244     -0.2718
    115  CB       -11.9780  118.3260  301.8870 C.3   244  TRP244      0.0564
    116  CG       -11.3380  119.6320  302.1080 C.ar  244  TRP244      0.0003
    117  CD1      -11.7780  120.8560  301.6530 C.ar  244  TRP244      0.0946
    118  CD2      -10.1410  119.8930  302.8560 C.ar  244  TRP244      0.0152
    119  NE1      -10.9230  121.8470  302.0900 N.ar  244  TRP244     -0.2442
    120  CE2       -9.9090  121.2840  302.8140 C.ar  244  TRP244      0.0810
    121  CE3       -9.2450  119.0880  303.5610 C.ar  244  TRP244      0.0012
    122  CZ2       -8.8290  121.8720  303.4450 C.ar  244  TRP244      0.0191
    123  CZ3       -8.1540  119.6730  304.1640 C.ar  244  TRP244      0.0001
    124  CH2       -7.9570  121.0510  304.1190 C.ar  244  TRP244      0.0015
    125  N        -12.5840  115.6190  300.3470 N.am  245  THR245     -0.1953
    126  CA       -13.1930  114.3190  300.2730 C.3   245  THR245      0.1897
    127  C        -12.1400  113.2290  299.9850 C.2   245  THR245      0.2313
    128  O        -12.1090  112.2030  300.6580 O.2   245  THR245     -0.2863
    129  CB       -14.3210  114.2920  299.2320 C.3   245  THR245      0.1794
    130  OG1      -15.3850  115.1340  299.6760 O.3   245  THR245     -0.2208
    131  CG2      -14.8740  112.8640  299.0590 C.3   245  THR245      0.0378
    132  N        -10.2010  112.8310  303.3970 N.3   248  ILE248     -0.1231
    133  CA       -10.8510  112.1850  304.5110 C.3   248  ILE248      0.1692
    134  C        -10.9830  110.6560  304.2180 C.2   248  ILE248      0.2591
    135  O        -10.8470  109.8400  305.1380 O.2   248  ILE248     -0.2718
    136  CB       -12.2090  112.8230  304.8590 C.3   248  ILE248      0.0266
    137  CG1      -12.7680  112.3070  306.2120 C.3   248  ILE248      0.0019
    138  CG2      -13.2270  112.4820  303.7970 C.3   248  ILE248      0.0020
    139  CD1      -11.9650  112.7010  307.4340 C.3   248  ILE248      0.0001
    140  N        -11.2510  110.3030  302.9630 N.am  249  MET249     -0.1979
    141  CA       -11.4120  108.9150  302.5870 C.3   249  MET249      0.1605
    142  C        -10.0860  108.1270  302.6140 C.2   249  MET249      0.2287
    143  O        -10.0700  107.0120  303.1200 O.2   249  MET249     -0.2864
    144  CB       -12.0740  108.7750  301.2480 C.3   249  MET249      0.0413
    145  CG       -13.5320  109.1850  301.2650 C.3   249  MET249      0.0598
    146  SD       -14.5950  108.6100  302.6170 S.3   249  MET249     -0.1393
    147  CE       -14.6240  106.8270  302.4300 C.3   249  MET249      0.0692
    148  N         -9.7050  107.5360  306.3430 N.3   252  PHE252     -0.1241
    149  CA       -10.5750  106.4970  306.7920 C.3   252  PHE252      0.1605
    150  C        -10.1300  105.1180  306.3230 C.2   252  PHE252      0.2264
    151  O        -10.2140  104.1430  307.0780 O.2   252  PHE252     -0.2867
    152  CB       -11.9970  106.7570  306.3050 C.3   252  PHE252      0.0534
    153  CG       -12.7700  107.7990  307.0930 C.ar  252  PHE252     -0.0203
    154  CD1      -12.1860  108.5840  308.1070 C.ar  252  PHE252     -0.0042
    155  CD2      -14.1190  107.9890  306.8160 C.ar  252  PHE252     -0.0042
    156  CE1      -12.9350  109.5450  308.8070 C.ar  252  PHE252     -0.0003
    157  CE2      -14.8720  108.9390  307.5110 C.ar  252  PHE252     -0.0003
    158  CZ       -14.2740  109.7200  308.4970 C.ar  252  PHE252     -0.0000
    159  N        -17.4300  101.8400  310.2730 N.3   268  PRO268     -0.2102
    160  CA       -18.2680  102.3460  309.1520 C.3   268  PRO268      0.1504
    161  C        -17.4610  103.2250  308.1690 C.2   268  PRO268      0.2575
    162  O        -16.7490  104.1500  308.6090 O.2   268  PRO268     -0.2718
    163  CB       -19.3660  103.1440  309.8740 C.3   268  PRO268      0.0282
    164  CG       -19.4510  102.5570  311.2660 C.3   268  PRO268      0.0208
    165  CD       -18.0910  101.9950  311.5910 C.3   268  PRO268      0.0893
    166  N        -17.5280  102.8920  306.8820 N.am  269  MET269     -0.1980
    167  CA       -16.8860  103.6490  305.7700 C.3   269  MET269      0.1605
    168  C        -15.3770  103.6320  305.6840 C.2   269  MET269      0.2287
    169  O        -14.7900  104.4290  304.9250 O.2   269  MET269     -0.2864
    170  CB       -17.3650  105.1020  305.7290 C.3   269  MET269      0.0413
    171  CG       -18.8730  105.1910  305.5080 C.3   269  MET269      0.0598
    172  SD       -19.4820  106.7640  306.0810 S.3   269  MET269     -0.1393
    173  CE       -19.0560  106.7640  307.8030 C.3   269  MET269      0.0692
    174  N        -21.7450  108.2700  300.5490 N.3   280  SER280     -0.1202
    175  CA       -21.3920  108.7240  301.8690 C.3   280  SER280      0.2020
    176  C        -21.3800  110.2510  301.9520 C.2   280  SER280      0.2618
    177  O        -21.8700  110.8120  302.9530 O.2   280  SER280     -0.2717
    178  CB       -20.0430  108.1480  302.2790 C.3   280  SER280      0.2103
    179  OG       -20.1670  106.7500  302.4000 O.3   280  SER280     -0.2182
    180  N        -20.8310  110.9280  300.9290 N.am  281  GLN281     -0.1979
    181  CA       -20.8890  112.3950  300.9060 C.3   281  GLN281      0.1601
    182  C        -22.2950  112.9010  300.9050 C.2   281  GLN281      0.2287
    183  O        -22.6120  113.8810  301.6140 O.2   281  GLN281     -0.2864
    184  CB       -20.1280  112.9950  299.7490 C.3   281  GLN281      0.0394
    185  CG       -18.6010  113.0100  299.9040 C.3   281  GLN281      0.0908
    186  CD       -18.1500  113.6020  301.2310 C.2   281  GLN281      0.2608
    187  OE1      -18.5310  114.7190  301.5950 O.2   281  GLN281     -0.2717
    188  NE2      -17.3720  112.8330  301.9800 N.am  281  GLN281     -0.0878
    189  N        -24.8750  111.3510  302.1120 N.3   283  GLY283     -0.1210
    190  CA       -25.3540  111.0830  303.4740 C.3   283  GLY283      0.1956
    191  C        -24.8360  112.1180  304.4710 C.2   283  GLY283      0.2611
    192  O        -25.5870  112.5690  305.3440 O.2   283  GLY283     -0.2717
    193  N        -23.5560  112.4540  304.3490 N.am  284  PHE284     -0.1976
    194  CA       -22.9300  113.3670  305.2510 C.3   284  PHE284      0.1639
    195  C        -23.6210  114.7320  305.1420 C.2   284  PHE284      0.2290
    196  O        -24.0320  115.3490  306.1490 O.2   284  PHE284     -0.2864
    197  CB       -21.4800  113.4710  304.8560 C.3   284  PHE284      0.0560
    198  CG       -20.6350  114.3540  305.7350 C.ar  284  PHE284     -0.0200
    199  CD1      -20.7260  114.3000  307.1290 C.ar  284  PHE284     -0.0042
    200  CD2      -19.6580  115.1860  305.1520 C.ar  284  PHE284     -0.0042
    201  CE1      -19.8960  115.0710  307.9190 C.ar  284  PHE284     -0.0003
    202  CE2      -18.8290  115.9830  305.9450 C.ar  284  PHE284     -0.0003
    203  CZ       -18.9480  115.9130  307.3240 C.ar  284  PHE284     -0.0000
    204  N        -27.6690  114.4020  306.3540 N.3   287  TYR287     -0.1227
    205  CA       -27.9660  114.1080  307.7590 C.3   287  TYR287      0.1736
    206  C        -27.1400  114.9270  308.7530 C.2   287  TYR287      0.2595
    207  O        -27.5840  115.0860  309.8890 O.2   287  TYR287     -0.2718
    208  CB       -27.8640  112.6040  308.0520 C.3   287  TYR287      0.0548
    209  CG       -28.9140  111.7990  307.3310 C.ar  287  TYR287     -0.0200
    210  CD1      -30.2370  111.7090  307.8230 C.ar  287  TYR287     -0.0009
    211  CD2      -28.6030  111.1300  306.1280 C.ar  287  TYR287     -0.0009
    212  CE1      -31.2120  111.0000  307.1300 C.ar  287  TYR287      0.0417
    213  CE2      -29.5760  110.4260  305.4370 C.ar  287  TYR287      0.0417
    214  CZ       -30.8670  110.3580  305.9360 C.ar  287  TYR287      0.1957
    215  OH       -31.7930  109.6330  305.2410 O.3   287  TYR287     -0.2866
    216  N        -26.0150  115.5030  308.3310 N.am  288  ILE288     -0.1980
    217  CA       -25.1650  116.2630  309.2560 C.3   288  ILE288      0.1595
    218  C        -24.9540  117.7200  308.8250 C.2   288  ILE288      0.2287
    219  O        -25.3220  118.6470  309.5660 O.2   288  ILE288     -0.2864
    220  CB       -23.7520  115.5970  309.4110 C.3   288  ILE288      0.0276
    221  CG1      -23.8500  114.1590  309.9260 C.3   288  ILE288      0.0022
    222  CG2      -22.8620  116.4200  310.3170 C.3   288  ILE288      0.0022
    223  CD1      -24.4720  113.9980  311.3000 C.3   288  ILE288      0.0001
@<TRIPOS>BOND
     1    99   100    1
     2   101   100    1
     3   101   102    2
     4   106   108   ar
     5   106   104   ar
     6   103   100    1
     7   103   104    1
     8   108   109   ar
     9   104   105   ar
    10   131   129    1
    11   129   130    1
    12   129   126    1
    13   109   110    1
    14   109   107   ar
    15   184   185    1
    16   184   181    1
    17   105   107   ar
    18   111   112    1
    19   185   186    1
    20   127   126    1
    21   127   128    2
    22   126   125    1
    23   125   113   am
    24   174   175    1
    25   182   181    1
    26   182   183    2
    27   181   180    1
    28   180   176   am
    29    94    93    2
    30   112   113    1
    31   112   115    1
    32   186   187    2
    33   186   188   am
    34   144   145    1
    35   144   141    1
    36   145   146    1
    37   113   114    2
    38   117   119   ar
    39   117   116   ar
    40   175   176    1
    41   175   178    1
    42   115   116    1
    43   176   177    2
    44   119   120   ar
    45   116   118   ar
    46   189   190    1
    47   178   179    1
    48    93    92    1
    49   147   146    1
    50   141   142    1
    51   141   140    1
    52   142   143    2
    53   120   118   ar
    54   120   122   ar
    55   118   121   ar
    56   140   134   am
    57   132   133    1
    58    92    95    1
    59    92    91    1
    60   122   124   ar
    61    95    96    1
    62   190   191    1
    63   121   123   ar
    64   138   136    1
    65   124   123   ar
    66   134   133    1
    67   134   135    2
    68   193   191   am
    69   193   194    1
    70   191   192    2
    71    96    98   am
    72    96    97    2
    73   133   136    1
    74   197   194    1
    75   197   198    1
    76   136   137    1
    77   169   168    2
    78   195   194    1
    79   195   196    2
    80   200   198   ar
    81   200   202   ar
    82   215   214    1
    83   213   214   ar
    84   213   211   ar
    85   171   170    1
    86   171   172    1
    87     8    10   ar
    88     8     6   ar
    89   168   167    1
    90    10    11   ar
    91   170   167    1
    92   198   199   ar
    93   167   166    1
    94   214   212   ar
    95   202   203   ar
    96   172   173    1
    97   211   209   ar
    98     1     2    1
    99   137   139    1
   100   152   149    1
   101   152   153    1
   102   150   149    1
   103   150   151    2
   104   148   149    1
   105   204   205    1
   106     2     5    1
   107     2     3    1
   108     5     6    1
   109     6     7   ar
   110   155   153   ar
   111   155   157   ar
   112   166   161   am
   113    11    12    1
   114    11     9   ar
   115    86    85    2
   116   153   154   ar
   117   199   201   ar
   118   212   210   ar
   119   203   201   ar
   120   209   210   ar
   121   209   208    1
   122     4     3    2
   123   157   158   ar
   124     3    13   am
   125    85    84    1
   126   205   208    1
   127   205   206    1
   128     7     9   ar
   129   154   156   ar
   130   161   162    2
   131   161   160    1
   132   216   206   am
   133   216   217    1
   134   158   156   ar
   135   206   207    2
   136    13    14    1
   137   218   217    1
   138   218   219    2
   139    84    87    1
   140    84    83    1
   141   160   163    1
   142   160   159    1
   143   217   220    1
   144    78    77    2
   145   220   221    1
   146   220   222    1
   147    87    88    1
   148   163   164    1
   149   221   223    1
   150    83    77   am
   151    77    76    1
   152    14    15    1
   153    14    17    1
   154   159   165    1
   155    15    16    2
   156    90    88    1
   157    88    89    1
   158    19    21   ar
   159    19    18   ar
   160    21    22   ar
   161    76    75    1
   162    76    79    1
   163    17    18    1
   164    18    20   ar
   165   164   165    1
   166    22    20   ar
   167    81    80   ar
   168    68    67    2
   169    79    80    1
   170    80    82   ar
   171    67    66    1
   172    30    28   ar
   173    64    63    1
   174    63    62    1
   175    34    33    2
   176    37    39   ar
   177    37    36   ar
   178    39    40   ar
   179    62    61    1
   180    28    27    1
   181    28    29   ar
   182    27    24    1
   183    66    65    1
   184    66    69    1
   185    36    35    1
   186    36    38   ar
   187    40    38   ar
   188    35    32    1
   189    73    74   ar
   190    73    71   ar
   191    74    72   ar
   192    71    70   ar
   193    33    32    1
   194    72    70   ar
   195    70    69    1
   196    61    58    1
   197    26    25    2
   198    32    31    1
   199    24    25    1
   200    24    23    1
   201    58    57    1
   202    58    59    1
   203    53    52    2
   204    60    59    2
   205    56    54    1
   206    54    51    1
   207    54    55    1
   208    52    51    1
   209    51    50    1
   210    49    47   ar
   211    47    46    1
   212    47    48   ar
   213    46    45    1
   214    41    42    1
   215    45    42    1
   216    42    43    1
   217    44    43    2
