@<TRIPOS>MOLECULE
tmp/5lboD00.pdb
 85 81 0 0 0
SMALL
GASTEIGER

@<TRIPOS>ATOM
      1  N         19.2420   86.2700  307.8030 N.3    13  ASN13      -0.1240
      2  CA        20.5020   86.0090  308.4710 C.3    13  ASN13       0.1653
      3  C         21.7340   86.6260  307.8130 C.2    13  ASN13       0.2266
      4  O         22.8370   86.4160  308.3000 O.2    13  ASN13      -0.2867
      5  CB        20.7500   84.5160  308.6270 C.3    13  ASN13       0.1155
      6  CG        19.6140   83.8030  309.3420 C.2    13  ASN13       0.2627
      7  OD1       18.9370   84.3510  310.2330 O.2    13  ASN13      -0.2716
      8  ND2       19.3940   82.5630  308.9650 N.am   13  ASN13      -0.0877
      9  N         21.8170   89.3380  313.2570 N.3    87  VAL87      -0.1231
     10  CA        23.0060   88.8470  312.5930 C.3    87  VAL87       0.1692
     11  C         24.1850   88.8670  313.5360 C.2    87  VAL87       0.2591
     12  O         24.8820   87.8820  313.6080 O.2    87  VAL87      -0.2718
     13  CB        23.3240   89.5800  311.2870 C.3    87  VAL87       0.0266
     14  CG1       24.6590   89.0690  310.6760 C.3    87  VAL87       0.0020
     15  CG2       22.1940   89.3380  310.2990 C.3    87  VAL87       0.0020
     16  N         24.3970   89.9610  314.2550 N.am   88  LEU88      -0.1980
     17  CA        25.5210   90.0250  315.1780 C.3    88  LEU88       0.1596
     18  C         25.4050   89.0210  316.3160 C.2    88  LEU88       0.2287
     19  O         26.4300   88.4960  316.7390 O.2    88  LEU88      -0.2864
     20  CB        25.6630   91.4010  315.7710 C.3    88  LEU88       0.0297
     21  CG        26.0270   92.4620  314.7590 C.3    88  LEU88       0.0022
     22  CD1       25.9150   93.8400  315.3750 C.3    88  LEU88       0.0001
     23  CD2       27.4170   92.2420  314.2180 C.3    88  LEU88       0.0001
     24  N         24.2250   86.0190  316.0220 N.3    90  SER90      -0.1202
     25  CA        24.5920   84.7310  315.4060 C.3    90  SER90       0.2020
     26  C         26.0610   84.5930  315.1010 C.2    90  SER90       0.2619
     27  O         26.4530   83.6000  314.5630 O.2    90  SER90      -0.2717
     28  CB        23.8550   84.5750  314.0680 C.3    90  SER90       0.2103
     29  OG        22.4810   84.7080  314.2630 O.3    90  SER90      -0.2182
     30  N         26.8760   85.5750  315.4450 N.am   91  THR91      -0.1939
     31  CA        28.2830   85.4900  315.1220 C.3    91  THR91       0.2013
     32  C         28.9460   84.2560  315.7920 C.2    91  THR91       0.2484
     33  O         28.6840   83.9690  316.9570 O.2    91  THR91      -0.2729
     34  CB        29.0110   86.7900  315.4650 C.3    91  THR91       0.1807
     35  OG1       30.1190   86.9480  314.5800 O.3    91  THR91      -0.2208
     36  CG2       29.5190   86.8190  316.8580 C.3    91  THR91       0.0379
     37  N         29.7550   83.5020  315.0460 N.am   92  PRO92      -0.2726
     38  CA        30.3290   82.2820  315.6040 C.3    92  PRO92       0.1402
     39  C         31.0310   82.4690  316.9460 C.2    92  PRO92       0.2269
     40  O         30.8950   81.6400  317.7970 O.2    92  PRO92      -0.2865
     41  CB        31.3240   81.8510  314.5330 C.3    92  PRO92       0.0296
     42  CG        30.6540   82.2740  313.2610 C.3    92  PRO92       0.0237
     43  CD        29.9780   83.6000  313.5920 C.3    92  PRO92       0.0939
     44  N         35.0400   96.0550  317.5940 N.3   297  TRP297     -0.1241
     45  CA        34.1160   94.9080  317.5520 C.3   297  TRP297      0.1605
     46  C         34.7850   93.7360  316.7870 C.2   297  TRP297      0.2264
     47  O         34.7210   92.6140  317.2370 O.2   297  TRP297     -0.2867
     48  CB        32.7740   95.2680  316.8680 C.3   297  TRP297      0.0550
     49  CG        31.8040   94.1270  316.8910 C.ar  297  TRP297      0.0003
     50  CD1       31.5260   93.2490  315.8710 C.ar  297  TRP297      0.0946
     51  CD2       31.0400   93.6770  318.0300 C.ar  297  TRP297      0.0152
     52  NE1       30.6560   92.3130  316.3080 N.ar  297  TRP297     -0.2442
     53  CE2       30.3300   92.5490  317.6270 C.ar  297  TRP297      0.0810
     54  CE3       30.8560   94.1590  319.3230 C.ar  297  TRP297      0.0012
     55  CZ2       29.4240   91.8760  318.4860 C.ar  297  TRP297      0.0191
     56  CZ3       29.9560   93.4520  320.2100 C.ar  297  TRP297      0.0001
     57  CH2       29.2380   92.3570  319.7610 C.ar  297  TRP297      0.0015
     58  N         35.4030   89.7490  317.9940 N.3   301  VAL301     -0.1245
     59  CA        34.8360   88.5130  317.3970 C.3   301  VAL301      0.1561
     60  C         35.6950   87.9510  316.2640 C.2   301  VAL301      0.2260
     61  O         35.1670   87.2620  315.3820 O.2   301  VAL301     -0.2867
     62  CB        33.3670   88.7710  316.9040 C.3   301  VAL301      0.0252
     63  CG1       32.5000   89.1490  318.0770 C.3   301  VAL301      0.0019
     64  CG2       33.2970   89.8220  315.8080 C.3   301  VAL301      0.0019
     65  N         35.2730   86.9580  312.5420 N.3   304  ASP304     -0.1225
     66  CA        33.8450   86.9470  312.0540 C.3   304  ASP304      0.1805
     67  C         33.3890   88.2020  311.3230 C.2   304  ASP304      0.2597
     68  O         32.6150   88.1300  310.3800 O.2   304  ASP304     -0.2718
     69  CB        32.8120   86.7180  313.1830 C.3   304  ASP304      0.1424
     70  CG        33.0770   85.4810  314.0540 C.2   304  ASP304      0.3668
     71  OD1       33.9830   84.6370  313.7500 O.co2 304  ASP304     -0.2456
     72  OD2       32.3690   85.3280  315.0940 O.co2 304  ASP304     -0.2456
     73  N         33.9000   89.3490  311.7100 N.am  305  ALA305     -0.1979
     74  CA        33.4890   90.6330  311.1060 C.3   305  ALA305      0.1597
     75  C         34.4030   91.2180  310.0180 C.2   305  ALA305      0.2287
     76  O         34.1960   92.3800  309.5550 O.2   305  ALA305     -0.2864
     77  CB        33.3040   91.6760  312.2280 C.3   305  ALA305      0.0319
     78  N         32.6470   92.8010  306.9920 N.3   308  ILE308     -0.1245
     79  CA        31.9350   93.9880  307.4030 C.3   308  ILE308      0.1561
     80  C         32.9460   95.1160  307.4310 C.2   308  ILE308      0.2260
     81  O         32.7210   96.1790  306.8360 O.2   308  ILE308     -0.2867
     82  CB        31.2250   93.7730  308.7550 C.3   308  ILE308      0.0252
     83  CG1       30.0640   92.7590  308.5850 C.3   308  ILE308      0.0019
     84  CG2       30.6750   95.0630  309.3190 C.3   308  ILE308      0.0019
     85  CD1       29.4660   92.2630  309.8830 C.3   308  ILE308      0.0001
@<TRIPOS>BOND
     1    81    80    2
     2    78    79    1
     3    79    80    1
     4    79    82    1
     5     1     2    1
     6     3     4    2
     7     3     2    1
     8     2     5    1
     9    83    82    1
    10    83    85    1
    11     5     6    1
    12    82    84    1
    13     8     6   am
    14     6     7    2
    15    76    75    2
    16    75    74    1
    17    15    13    1
    18    68    67    2
    19    14    13    1
    20    74    73    1
    21    74    77    1
    22    13    10    1
    23    67    73   am
    24    67    66    1
    25    66    65    1
    26    66    69    1
    27    10     9    1
    28    10    11    1
    29    69    70    1
    30    42    43    1
    31    42    41    1
    32    11    12    2
    33    11    16   am
    34    43    37    1
    35    71    70   ar
    36    70    72   ar
    37    28    29    1
    38    28    25    1
    39    23    21    1
    40    16    17    1
    41    41    38    1
    42    27    26    2
    43    35    34    1
    44    21    22    1
    45    21    20    1
    46    37    38    1
    47    37    32   am
    48    26    25    1
    49    26    30   am
    50    31    30    1
    51    31    34    1
    52    31    32    1
    53    17    20    1
    54    17    18    1
    55    61    60    2
    56    25    24    1
    57    34    36    1
    58    38    39    1
    59    32    33    2
    60    64    62    1
    61    50    52   ar
    62    50    49   ar
    63    60    59    1
    64    52    53   ar
    65    18    19    2
    66    46    47    2
    67    46    45    1
    68    48    49    1
    69    48    45    1
    70    49    51   ar
    71    62    59    1
    72    62    63    1
    73    39    40    2
    74    59    58    1
    75    45    44    1
    76    53    51   ar
    77    53    55   ar
    78    51    54   ar
    79    55    57   ar
    80    54    56   ar
    81    57    56   ar
