@<TRIPOS>MOLECULE
tmp/5lbqA01.pdb
 165 162 0 0 0
SMALL
GASTEIGER

@<TRIPOS>ATOM
      1  N        -55.7190  -50.7420  -43.8050 N.3   212  PHE212     -0.1227
      2  CA       -55.7410  -49.5270  -43.0010 C.3   212  PHE212      0.1736
      3  C        -55.7520  -49.8880  -41.5080 C.2   212  PHE212      0.2595
      4  O        -54.7270  -49.7390  -40.8270 O.2   212  PHE212     -0.2718
      5  CB       -56.9460  -48.6550  -43.4250 C.3   212  PHE212      0.0547
      6  CG       -57.2590  -47.5280  -42.4940 C.ar  212  PHE212     -0.0202
      7  CD1      -56.2830  -46.5890  -42.1850 C.ar  212  PHE212     -0.0042
      8  CD2      -58.5450  -47.3890  -41.9590 C.ar  212  PHE212     -0.0042
      9  CE1      -56.5680  -45.5420  -41.3350 C.ar  212  PHE212     -0.0003
     10  CE2      -58.8370  -46.3430  -41.1100 C.ar  212  PHE212     -0.0003
     11  CZ       -57.8450  -45.4210  -40.7980 C.ar  212  PHE212     -0.0000
     12  N        -56.8710  -50.4450  -41.0410 N.am  213  ASN213     -0.1974
     13  CA       -57.0360  -50.8400  -39.6240 C.3   213  ASN213      0.1688
     14  C        -55.8310  -51.6060  -39.0690 C.2   213  ASN213      0.2292
     15  O        -55.4820  -51.4530  -37.8990 O.2   213  ASN213     -0.2864
     16  CB       -58.2980  -51.6870  -39.4280 C.3   213  ASN213      0.1181
     17  CG       -59.5630  -50.9690  -39.8740 C.2   213  ASN213      0.2629
     18  OD1      -59.8530  -49.8660  -39.4240 O.2   213  ASN213     -0.2716
     19  ND2      -60.3100  -51.5840  -40.7790 N.am  213  ASN213     -0.0877
     20  N        -52.8730  -48.9930  -38.6350 N.3   216  LEU216     -0.1231
     21  CA       -53.0640  -48.3320  -37.3480 C.3   216  LEU216      0.1693
     22  C        -52.5780  -49.1490  -36.1780 C.2   216  LEU216      0.2591
     23  O        -51.6230  -48.7460  -35.5340 O.2   216  LEU216     -0.2718
     24  CB       -54.5150  -47.9890  -37.1100 C.3   216  LEU216      0.0284
     25  CG       -54.8970  -46.6400  -37.6770 C.3   216  LEU216      0.0019
     26  CD1      -56.3610  -46.4260  -37.3530 C.3   216  LEU216      0.0001
     27  CD2      -54.0440  -45.5170  -37.0940 C.3   216  LEU216      0.0001
     28  N        -53.2010  -50.2960  -35.8990 N.am  217  GLU217     -0.1979
     29  CA       -52.6740  -51.2010  -34.8620 C.3   217  GLU217      0.1602
     30  C        -51.1350  -51.2280  -34.9530 C.2   217  GLU217      0.2287
     31  O        -50.4340  -51.1730  -33.9420 O.2   217  GLU217     -0.2864
     32  CB       -53.1990  -52.6450  -35.0160 C.3   217  GLU217      0.0415
     33  CG       -54.6590  -52.9390  -34.6400 C.3   217  GLU217      0.1163
     34  CD       -55.0980  -54.3480  -35.0540 C.2   217  GLU217      0.3649
     35  OE1      -54.3990  -55.3220  -34.6940 O.co2 217  GLU217     -0.2457
     36  OE2      -56.1400  -54.4860  -35.7420 O.co2 217  GLU217     -0.2457
     37  N        -49.5890  -48.1360  -33.2020 N.3   220  SER220     -0.1217
     38  CA       -49.7990  -48.3900  -31.7730 C.3   220  SER220      0.1889
     39  C        -48.7700  -49.3870  -31.2260 C.2   220  SER220      0.2288
     40  O        -48.2040  -49.1660  -30.1580 O.2   220  SER220     -0.2866
     41  CB       -51.2440  -48.8730  -31.5310 C.3   220  SER220      0.2089
     42  OG       -51.4840  -49.2500  -30.1860 O.3   220  SER220     -0.2183
     43  N        -60.1150  -39.7260  -43.9890 N.3   365  ASN365     -0.1225
     44  CA       -61.1420  -39.8150  -42.9630 C.3   365  ASN365      0.1785
     45  C        -60.5530  -39.6520  -41.5650 C.2   365  ASN365      0.2597
     46  O        -61.2260  -39.1250  -40.7040 O.2   365  ASN365     -0.2718
     47  CB       -61.9450  -41.1080  -43.0360 C.3   365  ASN365      0.1169
     48  CG       -63.2980  -40.9820  -42.3470 C.2   365  ASN365      0.2627
     49  OD1      -64.0890  -40.0910  -42.6680 O.2   365  ASN365     -0.2716
     50  ND2      -63.5660  -41.8580  -41.3890 N.am  365  ASN365     -0.0877
     51  N        -59.3210  -40.1100  -41.3380 N.am  366  LEU366     -0.1980
     52  CA       -58.6570  -39.9250  -40.0490 C.3   366  LEU366      0.1596
     53  C        -58.2730  -38.4940  -39.8780 C.2   366  LEU366      0.2287
     54  O        -58.4620  -37.9140  -38.8020 O.2   366  LEU366     -0.2864
     55  CB       -57.3920  -40.7780  -39.9190 C.3   366  LEU366      0.0297
     56  CG       -57.0360  -41.1410  -38.4720 C.3   366  LEU366      0.0022
     57  CD1      -58.1680  -41.9120  -37.7960 C.3   366  LEU366      0.0001
     58  CD2      -55.7360  -41.9410  -38.3970 C.3   366  LEU366      0.0001
     59  N        -61.4350  -36.5810  -38.9050 N.3   369  ALA369     -0.1231
     60  CA       -61.8970  -36.7800  -37.5480 C.3   369  ALA369      0.1694
     61  C        -60.9760  -36.1260  -36.5180 C.2   369  ALA369      0.2592
     62  O        -61.4400  -35.7210  -35.4650 O.2   369  ALA369     -0.2718
     63  CB       -62.0590  -38.2600  -37.2680 C.3   369  ALA369      0.0304
     64  N        -59.6880  -36.0060  -36.8140 N.am  370  ASN370     -0.1974
     65  CA       -58.7980  -35.2560  -35.9330 C.3   370  ASN370      0.1688
     66  C        -58.6880  -33.8120  -36.3160 C.2   370  ASN370      0.2292
     67  O        -58.1260  -33.0160  -35.5740 O.2   370  ASN370     -0.2864
     68  CB       -57.4040  -35.8440  -35.9420 C.3   370  ASN370      0.1181
     69  CG       -57.3280  -37.0950  -35.1320 C.2   370  ASN370      0.2629
     70  OD1      -57.0130  -37.0630  -33.9410 O.2   370  ASN370     -0.2716
     71  ND2      -57.6840  -38.2080  -35.7510 N.am  370  ASN370     -0.0877
     72  N        -52.4270  -39.3160  -29.6820 N.3   382  TRP382     -0.1227
     73  CA       -53.5770  -38.8550  -30.4670 C.3   382  TRP382      0.1737
     74  C        -54.9300  -39.4950  -30.1000 C.2   382  TRP382      0.2595
     75  O        -55.9770  -38.8270  -30.1540 O.2   382  TRP382     -0.2718
     76  CB       -53.3010  -39.0360  -31.9730 C.3   382  TRP382      0.0564
     77  CG       -53.4140  -40.4580  -32.5070 C.ar  382  TRP382      0.0003
     78  CD1      -52.4210  -41.4000  -32.5970 C.ar  382  TRP382      0.0946
     79  CD2      -54.5970  -41.0740  -33.0260 C.ar  382  TRP382      0.0152
     80  NE1      -52.9250  -42.5630  -33.1240 N.ar  382  TRP382     -0.2442
     81  CE2      -54.2550  -42.3860  -33.4000 C.ar  382  TRP382      0.0810
     82  CE3      -55.9190  -40.6450  -33.1990 C.ar  382  TRP382      0.0012
     83  CZ2      -55.1800  -43.2660  -33.9330 C.ar  382  TRP382      0.0191
     84  CZ3      -56.8330  -41.5200  -33.7290 C.ar  382  TRP382      0.0001
     85  CH2      -56.4600  -42.8170  -34.0880 C.ar  382  TRP382      0.0015
     86  N        -54.8770  -40.7860  -29.7520 N.am  383  ASP383     -0.1974
     87  CA       -56.0570  -41.6410  -29.5470 C.3   383  ASP383      0.1709
     88  C        -56.4950  -41.6730  -28.0870 C.2   383  ASP383      0.2293
     89  O        -57.4900  -42.3120  -27.7780 O.2   383  ASP383     -0.2864
     90  CB       -55.8800  -43.1030  -30.1450 C.3   383  ASP383      0.1436
     91  CG       -54.7030  -43.9510  -29.5260 C.2   383  ASP383      0.3671
     92  OD1      -53.7440  -43.4190  -28.9140 O.co2 383  ASP383     -0.2456
     93  OD2      -54.7460  -45.1970  -29.6940 O.co2 383  ASP383     -0.2456
     94  N        -58.1640  -40.0070  -25.8760 N.3   385  ASP385     -0.1225
     95  CA       -59.5810  -39.8390  -25.5790 C.3   385  ASP385      0.1805
     96  C        -60.5100  -41.0280  -25.9590 C.2   385  ASP385      0.2597
     97  O        -61.6760  -41.0630  -25.5310 O.2   385  ASP385     -0.2718
     98  CB       -60.0800  -38.5310  -26.2070 C.3   385  ASP385      0.1424
     99  CG       -59.8760  -38.4630  -27.7250 C.2   385  ASP385      0.3668
    100  OD1      -58.7200  -38.5330  -28.2360 O.co2 385  ASP385     -0.2456
    101  OD2      -60.9060  -38.2990  -28.4010 O.co2 385  ASP385     -0.2456
    102  N        -59.9970  -41.9950  -26.7380 N.am  386  ASP386     -0.1974
    103  CA       -60.8170  -43.1010  -27.2960 C.3   386  ASP386      0.1709
    104  C        -61.3710  -44.0030  -26.2070 C.2   386  ASP386      0.2293
    105  O        -62.3510  -44.7100  -26.4550 O.2   386  ASP386     -0.2864
    106  CB       -60.0530  -43.9780  -28.3410 C.3   386  ASP386      0.1436
    107  CG       -59.9860  -43.3450  -29.7600 C.2   386  ASP386      0.3671
    108  OD1      -61.0490  -42.9800  -30.3160 O.co2 386  ASP386     -0.2456
    109  OD2      -58.8770  -43.2480  -30.3390 O.co2 386  ASP386     -0.2456
    110  N        -61.1540  -27.3750  -34.2020 N.3   591  TYR591     -0.1227
    111  CA       -61.0410  -27.8070  -32.8290 C.3   591  TYR591      0.1736
    112  C        -59.6540  -28.3610  -32.5320 C.2   591  TYR591      0.2596
    113  O        -58.7800  -28.3220  -33.3770 O.2   591  TYR591     -0.2718
    114  CB       -62.1520  -28.7820  -32.5030 C.3   591  TYR591      0.0548
    115  CG       -62.3570  -29.9570  -33.4330 C.ar  591  TYR591     -0.0200
    116  CD1      -61.3800  -30.9630  -33.5790 C.ar  591  TYR591     -0.0009
    117  CD2      -63.5920  -30.1400  -34.0750 C.ar  591  TYR591     -0.0009
    118  CE1      -61.6090  -32.0790  -34.3800 C.ar  591  TYR591      0.0417
    119  CE2      -63.8370  -31.2490  -34.8830 C.ar  591  TYR591      0.0417
    120  CZ       -62.8370  -32.2150  -35.0370 C.ar  591  TYR591      0.1957
    121  OH       -63.0320  -33.3260  -35.8350 O.3   591  TYR591     -0.2866
    122  N        -59.4230  -28.8350  -31.3240 N.am  592  SER592     -0.1938
    123  CA       -58.0800  -29.2010  -30.9460 C.3   592  SER592      0.2055
    124  C        -57.7170  -30.6450  -31.2550 C.2   592  SER592      0.2643
    125  O        -58.5580  -31.5290  -31.4800 O.2   592  SER592     -0.2714
    126  CB       -57.8860  -28.9880  -29.4610 C.3   592  SER592      0.2130
    127  OG       -58.7300  -29.8840  -28.7490 O.3   592  SER592     -0.2179
    128  N        -56.4180  -30.8580  -31.2010 N.am  593  TYR593     -0.1959
    129  CA       -55.8340  -32.1430  -31.3780 C.3   593  TYR593      0.1771
    130  C        -54.6180  -32.2320  -30.5190 C.2   593  TYR593      0.2619
    131  O        -54.1720  -31.2470  -29.8940 O.2   593  TYR593     -0.2715
    132  CB       -55.4680  -32.3420  -32.8310 C.3   593  TYR593      0.0574
    133  CG       -54.2760  -31.5680  -33.4100 C.ar  593  TYR593     -0.0198
    134  CD1      -52.9570  -32.0260  -33.2840 C.ar  593  TYR593     -0.0009
    135  CD2      -54.4750  -30.4270  -34.1860 C.ar  593  TYR593     -0.0009
    136  CE1      -51.9030  -31.3450  -33.9070 C.ar  593  TYR593      0.0417
    137  CE2      -53.4150  -29.7480  -34.7960 C.ar  593  TYR593      0.0417
    138  CZ       -52.1430  -30.2180  -34.6630 C.ar  593  TYR593      0.1957
    139  OH       -51.1280  -29.5170  -35.2570 O.3   593  TYR593     -0.2866
    140  N        -54.0770  -33.4270  -30.4730 N.am  594  VAL594     -0.1977
    141  CA       -53.0040  -33.6730  -29.5530 C.3   594  VAL594      0.1596
    142  C        -51.7660  -33.6010  -30.3880 C.2   594  VAL594      0.2287
    143  O        -51.3670  -34.5580  -30.9970 O.2   594  VAL594     -0.2864
    144  CB       -53.1390  -35.0310  -28.8510 C.3   594  VAL594      0.0276
    145  CG1      -52.1350  -35.0820  -27.6960 C.3   594  VAL594      0.0022
    146  CG2      -54.6000  -35.3070  -28.4270 C.3   594  VAL594      0.0022
    147  N        -61.8800  -33.9760  -25.3430 N.3   638  PRO638     -0.2102
    148  CA       -61.6420  -32.7860  -26.0940 C.3   638  PRO638      0.1504
    149  C        -62.4330  -32.7500  -27.3550 C.2   638  PRO638      0.2576
    150  O        -63.1990  -33.6670  -27.6640 O.2   638  PRO638     -0.2718
    151  CB       -60.1410  -32.8330  -26.3820 C.3   638  PRO638      0.0282
    152  CG       -59.7620  -34.2430  -26.2600 C.3   638  PRO638      0.0208
    153  CD       -60.6430  -34.7430  -25.1470 C.3   638  PRO638      0.0893
    154  N        -62.2480  -31.6290  -28.0170 N.am  639  ALA639     -0.1966
    155  CA       -62.7940  -31.3440  -29.3040 C.3   639  ALA639      0.1728
    156  C        -64.2310  -31.7720  -29.5370 C.2   639  ALA639      0.2616
    157  O        -64.5990  -32.2100  -30.6140 O.2   639  ALA639     -0.2715
    158  CB       -61.8650  -31.9110  -30.3360 C.3   639  ALA639      0.0334
    159  N        -65.0570  -31.6270  -28.5280 N.am  640  THR640     -0.1951
    160  CA       -66.4320  -32.0300  -28.6660 C.3   640  THR640      0.1897
    161  C        -67.3250  -30.9570  -28.0860 C.2   640  THR640      0.2313
    162  O        -66.8360  -30.0190  -27.4660 O.2   640  THR640     -0.2863
    163  CB       -66.6350  -33.3910  -27.9900 C.3   640  THR640      0.1794
    164  OG1      -65.9290  -33.4400  -26.7420 O.3   640  THR640     -0.2208
    165  CG2      -66.0790  -34.4880  -28.8870 C.3   640  THR640      0.0378
@<TRIPOS>BOND
     1    43    44    1
     2     1     2    1
     3     5     2    1
     4     5     6    1
     5    47    44    1
     6    47    48    1
     7     2     3    1
     8    44    45    1
     9    49    48    2
    10     6     7   ar
    11     6     8   ar
    12    48    50   am
    13     7     9   ar
    14     8    10   ar
    15    45    51   am
    16    45    46    2
    17     3    12   am
    18     3     4    2
    19    51    52    1
    20     9    11   ar
    21    10    11   ar
    22    12    13    1
    23    19    17   am
    24    52    55    1
    25    52    53    1
    26    55    56    1
    27    53    54    2
    28    17    16    1
    29    17    18    2
    30    13    16    1
    31    13    14    1
    32    14    15    2
    33    59    60    1
    34    20    21    1
    35    56    58    1
    36    56    57    1
    37    25    26    1
    38    25    24    1
    39    25    27    1
    40    60    63    1
    41    60    61    1
    42    21    24    1
    43    21    22    1
    44    64    61   am
    45    64    65    1
    46    61    62    2
    47    66    65    1
    48    66    67    2
    49    22    28   am
    50    22    23    2
    51    68    65    1
    52    68    69    1
    53    28    29    1
    54   121   120    1
    55    71    69   am
    56    36    34   ar
    57   139   138    1
    58    69    70    2
    59    34    35   ar
    60    34    33    1
    61   120   119   ar
    62   120   118   ar
    63    32    29    1
    64    32    33    1
    65    30    29    1
    66    30    31    2
    67   119   117   ar
    68   137   138   ar
    69   137   135   ar
    70   138   136   ar
    71   118   116   ar
    72   110   111    1
    73   135   133   ar
    74    85    83   ar
    75    85    84   ar
    76   117   115   ar
    77    83    81   ar
    78   136   134   ar
    79    84    82   ar
    80   116   115   ar
    81   115   114    1
    82   133   134   ar
    83   133   132    1
    84    81    80   ar
    85    81    79   ar
    86   113   112    2
    87    37    38    1
    88    82    79   ar
    89    80    78   ar
    90    79    77   ar
    91   132   129    1
    92   111   112    1
    93   111   114    1
    94    78    77   ar
    95   112   122   am
    96    77    76    1
    97    76    73    1
    98    38    41    1
    99    38    39    1
   100    41    42    1
   101   125   124    2
   102   129   128    1
   103   129   130    1
   104   122   123    1
   105   124   128   am
   106   124   123    1
   107    39    40    2
   108   143   142    2
   109   123   126    1
   110   157   156    2
   111   130   140   am
   112   130   131    2
   113   140   141    1
   114    73    74    1
   115    73    72    1
   116   142   141    1
   117   109   107   ar
   118   158   155    1
   119   108   107   ar
   120    75    74    2
   121    90    87    1
   122    90    91    1
   123    74    86   am
   124   107   106    1
   125    86    87    1
   126    93    91   ar
   127   141   144    1
   128    87    88    1
   129   156   155    1
   130   156   159   am
   131    91    92   ar
   132   126   127    1
   133   155   154    1
   134   165   163    1
   135   144   146    1
   136   144   145    1
   137   160   159    1
   138   160   161    1
   139   160   163    1
   140   101    99   ar
   141   106   103    1
   142   100    99   ar
   143    88    89    2
   144   161   162    2
   145   154   149   am
   146   163   164    1
   147    99    98    1
   148   150   149    2
   149   149   148    1
   150   103   102    1
   151   103   104    1
   152   102    96   am
   153   105   104    2
   154   151   152    1
   155   151   148    1
   156   152   153    1
   157    98    95    1
   158   148   147    1
   159    96    95    1
   160    96    97    2
   161    94    95    1
   162   147   153    1
