@<TRIPOS>MOLECULE
tmp/5lbvB01.pdb
 82 76 0 0 0
SMALL
GASTEIGER

@<TRIPOS>ATOM
      1  N        -10.5880   23.4840   41.4770 N.3   147  GLN147     -0.1231
      2  CA        -9.9290   22.7430   40.4350 C.3   147  GLN147      0.1698
      3  C         -9.9680   23.3890   39.0500 C.2   147  GLN147      0.2592
      4  O        -10.9510   24.0280   38.6540 O.2   147  GLN147     -0.2718
      5  CB       -10.4910   21.3270   40.3960 C.3   147  GLN147      0.0381
      6  CG       -11.0550   20.8120   41.7180 C.3   147  GLN147      0.0905
      7  CD       -11.1740   19.3010   41.7040 C.2   147  GLN147      0.2608
      8  OE1      -10.1700   18.5520   41.7630 O.2   147  GLN147     -0.2717
      9  NE2      -12.4130   18.8180   41.6420 N.am  147  GLN147     -0.0878
     10  N         -8.8320   23.2580   38.3540 N.am  148  HIS148     -0.1976
     11  CA        -8.6000   23.6600   36.9810 C.3   148  HIS148      0.1656
     12  C         -8.8500   22.4160   36.0790 C.2   148  HIS148      0.2291
     13  O         -9.1120   21.3030   36.5770 O.2   148  HIS148     -0.2864
     14  CB        -7.1850   24.2660   36.7960 C.3   148  HIS148      0.0771
     15  CG        -6.0310   23.3590   37.1420 C.ar  148  HIS148      0.0820
     16  ND1       -5.8750   22.1240   36.5250 N.ar  148  HIS148     -0.2267
     17  CD2       -5.0320   23.5170   38.0510 C.ar  148  HIS148      0.1154
     18  CE1       -4.7730   21.6000   37.0480 C.ar  148  HIS148      0.1986
     19  NE2       -4.2260   22.4070   37.9580 N.ar  148  HIS148     -0.2212
     20  N         -7.7970   18.4120   36.0950 N.3   151  MET151     -0.1245
     21  CA        -8.3620   17.5250   37.1180 C.3   151  MET151      0.1570
     22  C         -9.6700   16.8340   36.6870 C.2   151  MET151      0.2261
     23  O        -10.1540   15.9870   37.4210 O.2   151  MET151     -0.2867
     24  CB        -8.5400   18.2750   38.4660 C.3   151  MET151      0.0387
     25  CG        -7.2800   18.8940   39.0200 C.3   151  MET151      0.0595
     26  SD        -6.0530   17.6580   39.5200 S.3   151  MET151     -0.1393
     27  CE        -4.7460   18.1030   38.2870 C.3   151  MET151      0.0692
     28  N         -8.2130   12.5730   36.1340 N.3   154  ASN154     -0.1240
     29  CA        -6.9890   12.4340   36.9280 C.3   154  ASN154      0.1653
     30  C         -6.9290   11.0890   37.7100 C.2   154  ASN154      0.2266
     31  O         -6.2970   10.1240   37.2320 O.2   154  ASN154     -0.2867
     32  CB        -6.7610   13.6390   37.8280 C.3   154  ASN154      0.1155
     33  CG        -5.3650   13.6790   38.3840 C.2   154  ASN154      0.2627
     34  OD1       -5.0140   12.9500   39.3280 O.2   154  ASN154     -0.2716
     35  ND2       -4.5390   14.5370   37.8160 N.am  154  ASN154     -0.0877
     36  N         -5.4370   10.3790   40.6980 N.3   156  THR156     -0.1203
     37  CA        -4.1480   10.2040   41.3490 C.3   156  THR156      0.1994
     38  C         -3.9870   11.2960   42.3850 C.2   156  THR156      0.2618
     39  O         -3.8200   12.4760   42.0440 O.2   156  THR156     -0.2717
     40  CB        -2.9550   10.0670   40.3810 C.3   156  THR156      0.1784
     41  OG1       -2.9800   11.1190   39.4140 O.3   156  THR156     -0.2211
     42  CG2       -2.8650    8.6830   39.7310 C.3   156  THR156      0.0376
     43  N         -4.0930   10.8780   43.6460 N.am  157  GLY157     -0.1956
     44  CA        -3.9180   11.7280   44.8090 C.3   157  GLY157      0.1869
     45  C         -5.1710   12.1900   45.5120 C.2   157  GLY157      0.2309
     46  O         -5.0910   13.1370   46.2910 O.2   157  GLY157     -0.2863
     47  N         -6.1290   14.9700   48.5500 N.3   161  ASP161     -0.1239
     48  CA        -6.8630   16.0740   47.9490 C.3   161  ASP161      0.1674
     49  C         -8.2930   16.0720   48.4510 C.2   161  ASP161      0.2266
     50  O         -9.0260   15.1190   48.2130 O.2   161  ASP161     -0.2867
     51  CB        -6.8230   15.9870   46.3970 C.3   161  ASP161      0.1410
     52  CG        -7.5990   17.0700   45.6370 C.2   161  ASP161      0.3668
     53  OD1       -8.0110   18.0850   46.2780 O.co2 161  ASP161     -0.2456
     54  OD2       -7.7740   16.9210   44.4040 O.co2 161  ASP161     -0.2456
     55  N        -10.8930   17.8260   47.3650 N.3   163  ASN163     -0.1225
     56  CA       -11.8540   17.9270   46.2620 C.3   163  ASN163      0.1785
     57  C        -12.3040   16.6170   45.7060 C.2   163  ASN163      0.2597
     58  O        -13.3120   16.5980   45.0000 O.2   163  ASN163     -0.2718
     59  CB       -11.2510   18.7140   45.1240 C.3   163  ASN163      0.1169
     60  CG       -10.8960   20.0870   45.5160 C.2   163  ASN163      0.2627
     61  OD1       -9.7980   20.5610   45.2490 O.2   163  ASN163     -0.2716
     62  ND2      -11.7830   20.7020   46.2450 N.am  163  ASN163     -0.0877
     63  N        -11.5270   15.5390   45.9440 N.am  164  ARG164     -0.1979
     64  CA       -11.7860   14.2130   45.4060 C.3   164  ARG164      0.1597
     65  C        -11.8910   13.1260   46.4670 C.2   164  ARG164      0.2287
     66  O        -11.1990   13.1350   47.5100 O.2   164  ARG164     -0.2864
     67  CB       -10.7320   13.8340   44.3650 C.3   164  ARG164      0.0334
     68  CG       -10.4940   14.8460   43.2330 C.3   164  ARG164      0.0492
     69  CD        -9.7410   14.2070   42.0850 C.3   164  ARG164      0.2205
     70  NE        -8.4020   13.7290   42.4500 N.pl3 164  ARG164     -0.0865
     71  CZ        -7.2980   14.4610   42.3420 C.cat 164  ARG164      0.5346
     72  NH1       -7.3580   15.7040   41.8760 N.pl3 164  ARG164      0.1354
     73  NH2       -6.1240   13.9530   42.6830 N.pl3 164  ARG164      0.1354
     74  N         -5.0890   29.2490   45.8600 N.3   358  GLU358     -0.1245
     75  CA        -3.6790   29.5200   46.1750 C.3   358  GLU358      0.1567
     76  C         -3.3280   31.0080   46.3050 C.2   358  GLU358      0.2260
     77  O         -3.9070   31.8360   45.5970 O.2   358  GLU358     -0.2867
     78  CB        -2.7560   28.8250   45.1610 C.3   358  GLU358      0.0388
     79  CG        -2.6350   27.3310   45.4230 C.3   358  GLU358      0.1160
     80  CD        -1.9750   26.5110   44.3350 C.2   358  GLU358      0.3649
     81  OE1       -0.8380   26.8560   43.9360 O.co2 358  GLU358     -0.2457
     82  OE2       -2.5680   25.4850   43.9270 O.co2 358  GLU358     -0.2457
@<TRIPOS>BOND
     1    12    13    2
     2    12    11    1
     3    20    21    1
     4    28    29    1
     5    16    18   ar
     6    16    15   ar
     7    22    21    1
     8    22    23    2
     9    14    11    1
    10    14    15    1
    11    29    30    1
    12    29    32    1
    13    11    10    1
    14    18    19   ar
    15    21    24    1
    16    15    17   ar
    17    31    30    2
    18    35    33   am
    19    32    33    1
    20    19    17   ar
    21    27    26    1
    22    10     3   am
    23    33    34    2
    24    24    25    1
    25     4     3    2
    26    25    26    1
    27     3     2    1
    28    41    40    1
    29    42    40    1
    30    40    37    1
    31     5     2    1
    32     5     6    1
    33     2     1    1
    34    36    37    1
    35    37    38    1
    36     9     7   am
    37     7     6    1
    38     7     8    2
    39    72    71    1
    40    39    38    2
    41    69    70    1
    42    69    68    1
    43    71    70    2
    44    71    73    1
    45    38    43   am
    46    68    67    1
    47    43    44    1
    48    82    80   ar
    49    81    80   ar
    50    80    79    1
    51    67    64    1
    52    54    52   ar
    53    44    45    1
    54    58    57    2
    55    59    60    1
    56    59    56    1
    57    78    79    1
    58    78    75    1
    59    61    60    2
    60    64    63    1
    61    64    65    1
    62    45    46    2
    63    60    62   am
    64    77    76    2
    65    52    53   ar
    66    52    51    1
    67    57    63   am
    68    57    56    1
    69    74    75    1
    70    75    76    1
    71    56    55    1
    72    51    48    1
    73    65    66    2
    74    48    49    1
    75    48    47    1
    76    50    49    2
