@<TRIPOS>MOLECULE
tmp/5lbwB03.pdb
 103 100 0 0 0
SMALL
GASTEIGER

@<TRIPOS>ATOM
      1  N          1.5100    3.3820   10.9460 N.3    66  TYR66      -0.1227
      2  CA         0.8530    3.4510   12.2590 C.3    66  TYR66       0.1736
      3  C          1.6360    2.7380   13.3520 C.2    66  TYR66       0.2596
      4  O          1.8390    3.2940   14.4200 O.2    66  TYR66      -0.2718
      5  CB        -0.5900    2.9250   12.1930 C.3    66  TYR66       0.0548
      6  CG        -1.3470    3.0900   13.5010 C.ar   66  TYR66      -0.0200
      7  CD1       -1.2920    2.1130   14.4690 C.ar   66  TYR66      -0.0009
      8  CD2       -2.1060    4.2340   13.7670 C.ar   66  TYR66      -0.0009
      9  CE1       -1.9710    2.2550   15.6770 C.ar   66  TYR66       0.0417
     10  CE2       -2.7880    4.3890   14.9660 C.ar   66  TYR66       0.0417
     11  CZ        -2.7170    3.3990   15.9250 C.ar   66  TYR66       0.1957
     12  OH        -3.3760    3.5230   17.1280 O.3    66  TYR66      -0.2866
     13  N          2.0780    1.5140   13.0680 N.am   67  GLY67      -0.1957
     14  CA         2.9190    0.7370   13.9830 C.3    67  GLY67       0.1869
     15  C          4.1740    1.4790   14.4310 C.2    67  GLY67       0.2309
     16  O          4.4330    1.6080   15.6330 O.2    67  GLY67      -0.2863
     17  N          3.2280    4.9890   16.4590 N.3    70  THR70      -0.1218
     18  CA         2.7290    4.7810   17.8230 C.3    70  THR70       0.1862
     19  C          3.7970    4.2300   18.7790 C.2    70  THR70       0.2287
     20  O          3.7680    4.5360   19.9710 O.2    70  THR70      -0.2866
     21  CB         1.4620    3.9010   17.8740 C.3    70  THR70       0.1770
     22  OG1        1.6880    2.6650   17.2030 O.3    70  THR70      -0.2211
     23  CG2        0.3010    4.6060   17.2200 C.3    70  THR70       0.0375
     24  N         -2.8340   -1.4810   22.9760 N.3   119  LEU119     -0.1231
     25  CA        -1.7620   -2.4550   23.1670 C.3   119  LEU119      0.1693
     26  C         -0.6700   -2.2050   22.1530 C.2   119  LEU119      0.2592
     27  O         -0.4190   -3.0250   21.2880 O.2   119  LEU119     -0.2718
     28  CB        -2.3270   -3.8690   23.0200 C.3   119  LEU119      0.0284
     29  CG        -3.5120   -4.2100   23.9270 C.3   119  LEU119      0.0019
     30  CD1       -4.1330   -5.5320   23.4950 C.3   119  LEU119      0.0001
     31  CD2       -3.0940   -4.2500   25.3880 C.3   119  LEU119      0.0001
     32  N         -0.0310   -1.0480   22.2430 N.am  120  CYS120     -0.1956
     33  CA         0.9390   -0.6470   21.2340 C.3   120  CYS120      0.1843
     34  C          2.3130   -1.1880   21.5990 C.2   120  CYS120      0.2625
     35  O          2.5390   -1.6240   22.7270 O.2   120  CYS120     -0.2714
     36  CB         0.9780    0.8730   21.1070 C.3   120  CYS120      0.0997
     37  SG         1.7850    1.7100   22.4790 S.3   120  CYS120     -0.0797
     38  N          3.2240   -1.1460   20.6320 N.am  121  GLN121     -0.1977
     39  CA         4.6040   -1.5650   20.8630 C.3   121  GLN121      0.1601
     40  C          5.2510   -0.6030   21.8410 C.2   121  GLN121      0.2287
     41  O          4.9970    0.6010   21.7760 O.2   121  GLN121     -0.2864
     42  CB         5.3960   -1.6260   19.5540 C.3   121  GLN121      0.0394
     43  CG         6.7510   -2.3140   19.6960 C.3   121  GLN121      0.0908
     44  CD         7.4520   -2.5980   18.3740 C.2   121  GLN121      0.2608
     45  OE1        6.8780   -2.4340   17.2940 O.2   121  GLN121     -0.2717
     46  NE2        8.7180   -3.0090   18.4580 N.am  121  GLN121     -0.0878
     47  N          4.0340   -5.0360   24.2080 N.3   125  PHE125     -0.1241
     48  CA         5.0640   -5.9540   23.7510 C.3   125  PHE125      0.1605
     49  C          6.2490   -5.1740   23.2130 C.2   125  PHE125      0.2264
     50  O          6.2120   -3.9690   23.1000 O.2   125  PHE125     -0.2867
     51  CB         4.5080   -6.8550   22.6470 C.3   125  PHE125      0.0534
     52  CG         4.1730   -6.1120   21.3800 C.ar  125  PHE125     -0.0203
     53  CD1        5.1480   -5.8970   20.3940 C.ar  125  PHE125     -0.0042
     54  CD2        2.9000   -5.6020   21.1820 C.ar  125  PHE125     -0.0042
     55  CE1        4.8410   -5.2190   19.2390 C.ar  125  PHE125     -0.0003
     56  CE2        2.5910   -4.9150   20.0230 C.ar  125  PHE125     -0.0003
     57  CZ         3.5650   -4.7290   19.0520 C.ar  125  PHE125     -0.0000
     58  N         10.1520   -6.1110   20.6030 N.3   127  ILE127     -0.1245
     59  CA        10.8760   -7.0930   19.7860 C.3   127  ILE127      0.1561
     60  C         12.3510   -7.0460   20.2020 C.2   127  ILE127      0.2260
     61  O         13.0520   -6.1360   19.7710 O.2   127  ILE127     -0.2867
     62  CB        10.7210   -6.7950   18.2690 C.3   127  ILE127      0.0252
     63  CG1        9.2330   -6.8920   17.8610 C.3   127  ILE127      0.0019
     64  CG2       11.5850   -7.7490   17.4330 C.3   127  ILE127      0.0019
     65  CD1        8.9130   -6.4920   16.4340 C.3   127  ILE127      0.0001
     66  N          7.6860  -10.6650   23.6780 N.3   130  PHE130     -0.1227
     67  CA         6.3320  -11.0580   23.3290 C.3   130  PHE130      0.1736
     68  C          6.1420  -12.5190   23.7150 C.2   130  PHE130      0.2595
     69  O          7.1130  -13.2370   24.0230 O.2   130  PHE130     -0.2718
     70  CB         6.0480  -10.7990   21.8390 C.3   130  PHE130      0.0547
     71  CG         7.0300  -11.4580   20.9010 C.ar  130  PHE130     -0.0202
     72  CD1        8.2790  -10.8930   20.6640 C.ar  130  PHE130     -0.0042
     73  CD2        6.7100  -12.6460   20.2600 C.ar  130  PHE130     -0.0042
     74  CE1        9.2040  -11.5120   19.8310 C.ar  130  PHE130     -0.0003
     75  CE2        7.6260  -13.2710   19.4200 C.ar  130  PHE130     -0.0003
     76  CZ         8.8710  -12.6970   19.1960 C.ar  130  PHE130     -0.0000
     77  N          4.8790  -12.9350   23.6990 N.am  131  TYR131     -0.1976
     78  CA         4.4400  -14.1870   24.2980 C.3   131  TYR131      0.1639
     79  C          4.8700  -14.2580   25.7690 C.2   131  TYR131      0.2290
     80  O          4.5110  -13.3590   26.5190 O.2   131  TYR131     -0.2864
     81  CB         4.8390  -15.4010   23.4250 C.3   131  TYR131      0.0560
     82  CG         4.0020  -15.4750   22.1740 C.ar  131  TYR131     -0.0198
     83  CD1        2.6000  -15.5630   22.2560 C.ar  131  TYR131     -0.0009
     84  CD2        4.5840  -15.4370   20.9150 C.ar  131  TYR131     -0.0009
     85  CE1        1.8230  -15.6100   21.1150 C.ar  131  TYR131      0.0417
     86  CE2        3.8120  -15.4890   19.7650 C.ar  131  TYR131      0.0417
     87  CZ         2.4350  -15.5860   19.8750 C.ar  131  TYR131      0.1957
     88  OH         1.6530  -15.6390   18.7560 O.3   131  TYR131     -0.2866
     89  N         -3.1390  -14.9330   19.9600 N.3   173  GLY173     -0.1225
     90  CA        -2.6970  -13.8540   19.0810 C.3   173  GLY173      0.1811
     91  C         -2.6010  -12.4740   19.7070 C.2   173  GLY173      0.2280
     92  O         -1.7260  -11.7020   19.3270 O.2   173  GLY173     -0.2866
     93  N          0.3160  -12.9560   23.4280 N.3   177  PHE177     -0.1241
     94  CA         1.3590  -12.2000   22.7280 C.3   177  PHE177      0.1605
     95  C          1.8860  -11.0230   23.5620 C.2   177  PHE177      0.2264
     96  O          3.0840  -10.7170   23.5230 O.2   177  PHE177     -0.2867
     97  CB         0.8510  -11.7010   21.3700 C.3   177  PHE177      0.0534
     98  CG         1.9260  -11.1350   20.4820 C.ar  177  PHE177     -0.0203
     99  CD1        2.2720   -9.7930   20.5580 C.ar  177  PHE177     -0.0042
    100  CD2        2.5770  -11.9380   19.5590 C.ar  177  PHE177     -0.0042
    101  CE1        3.2560   -9.2550   19.7290 C.ar  177  PHE177     -0.0003
    102  CE2        3.5570  -11.4090   18.7210 C.ar  177  PHE177     -0.0003
    103  CZ         3.9040  -10.0700   18.8140 C.ar  177  PHE177     -0.0000
@<TRIPOS>BOND
     1     1     2    1
     2     5     2    1
     3     5     6    1
     4     2     3    1
     5    13     3   am
     6    13    14    1
     7     3     4    2
     8     6     8   ar
     9     6     7   ar
    10     8    10   ar
    11    14    15    1
    12    15    16    2
    13     7     9   ar
    14    10    11   ar
    15     9    11   ar
    16    11    12    1
    17    65    63    1
    18    17    18    1
    19    22    21    1
    20    23    21    1
    21    45    44    2
    22    64    62    1
    23    18    21    1
    24    18    19    1
    25    63    62    1
    26    62    59    1
    27    44    46   am
    28    44    43    1
    29   102   103   ar
    30   102   100   ar
    31    88    87    1
    32    19    20    2
    33   103   101   ar
    34    57    55   ar
    35    57    56   ar
    36    90    91    1
    37    90    89    1
    38    76    75   ar
    39    76    74   ar
    40    55    53   ar
    41    92    91    2
    42    75    73   ar
    43    42    43    1
    44    42    39    1
    45   100    98   ar
    46   101    99   ar
    47    86    87   ar
    48    86    84   ar
    49    61    60    2
    50    59    60    1
    51    59    58    1
    52    74    72   ar
    53    87    85   ar
    54    56    54   ar
    55    73    71   ar
    56    53    52   ar
    57    98    99   ar
    58    98    97    1
    59    38    39    1
    60    38    34   am
    61    72    71   ar
    62    39    40    1
    63    71    70    1
    64    84    82   ar
    65    36    33    1
    66    36    37    1
    67    85    83   ar
    68    54    52   ar
    69    33    34    1
    70    33    32    1
    71    27    26    2
    72    97    94    1
    73    52    51    1
    74    34    35    2
    75    41    40    2
    76    70    67    1
    77    26    32   am
    78    26    25    1
    79    82    83   ar
    80    82    81    1
    81    51    48    1
    82    94    93    1
    83    94    95    1
    84    24    25    1
    85    28    25    1
    86    28    29    1
    87    50    49    2
    88    49    48    1
    89    67    66    1
    90    67    68    1
    91    81    78    1
    92    30    29    1
    93    96    95    2
    94    77    68   am
    95    77    78    1
    96    68    69    2
    97    48    47    1
    98    29    31    1
    99    78    79    1
   100    79    80    2
