@<TRIPOS>MOLECULE
tmp/5lbxA01.pdb
 144 142 0 0 0
SMALL
GASTEIGER

@<TRIPOS>ATOM
      1  N        -28.1330    4.7780   20.2330 N.3    48  PRO48      -0.2102
      2  CA       -29.0660    4.1480   19.2790 C.3    48  PRO48       0.1504
      3  C        -28.4930    2.9310   18.5690 C.2    48  PRO48       0.2576
      4  O        -29.2290    1.9760   18.3020 O.2    48  PRO48      -0.2718
      5  CB       -29.3840    5.2880   18.2990 C.3    48  PRO48       0.0282
      6  CG       -29.1580    6.5470   19.0990 C.3    48  PRO48       0.0208
      7  CD       -28.0080    6.2360   20.0090 C.3    48  PRO48       0.0893
      8  N        -27.2040    2.9370   18.2380 N.am   49  SER49      -0.1953
      9  CA       -26.6270    1.7910   17.5420 C.3    49  SER49       0.1924
     10  C        -26.5900    0.5440   18.4280 C.2    49  SER49       0.2314
     11  O        -26.7340   -0.5730   17.9160 O.2    49  SER49      -0.2863
     12  CB       -25.2290    2.1480   17.0390 C.3    49  SER49       0.2116
     13  OG       -24.3630    2.4370   18.1190 O.3    49  SER49      -0.2180
     14  N        -30.0750   -1.0370   18.0610 N.3    52  ASN52      -0.1240
     15  CA       -30.2200   -1.6750   16.7530 C.3    52  ASN52       0.1653
     16  C        -29.4470   -2.9830   16.6810 C.2    52  ASN52       0.2266
     17  O        -29.9070   -3.9470   16.0640 O.2    52  ASN52      -0.2867
     18  CB       -29.7640   -0.7320   15.6320 C.3    52  ASN52       0.1155
     19  CG       -30.7000    0.4460   15.4220 C.2    52  ASN52       0.2627
     20  OD1      -30.2710    1.5320   15.0200 O.2    52  ASN52      -0.2716
     21  ND2      -31.9820    0.2410   15.6820 N.am   52  ASN52      -0.0877
     22  N        -30.7940   -5.4630   13.4120 N.3    57  VAL57      -0.1231
     23  CA       -30.8620   -4.6570   12.1950 C.3    57  VAL57       0.1692
     24  C        -29.5820   -3.8740   11.9420 C.2    57  VAL57       0.2592
     25  O        -29.5300   -3.0910   10.9870 O.2    57  VAL57      -0.2718
     26  CB       -32.0800   -3.7090   12.2140 C.3    57  VAL57       0.0266
     27  CG1      -33.3270   -4.4690   12.6620 C.3    57  VAL57       0.0020
     28  CG2      -31.8330   -2.4830   13.1190 C.3    57  VAL57       0.0020
     29  N        -28.5720   -4.0550   12.7440 N.am   58  TYR58      -0.1976
     30  CA       -27.2770   -3.4050   12.5660 C.3    58  TYR58       0.1639
     31  C        -26.2800   -4.4110   12.0150 C.2    58  TYR58       0.2290
     32  O        -26.0880   -5.4640   12.6350 O.2    58  TYR58      -0.2864
     33  CB       -26.7970   -2.8650   13.9060 C.3    58  TYR58       0.0560
     34  CG       -25.7250   -1.7960   13.8650 C.ar   58  TYR58      -0.0198
     35  CD1      -26.0360   -0.4650   13.5990 C.ar   58  TYR58      -0.0009
     36  CD2      -24.4100   -2.1090   14.1600 C.ar   58  TYR58      -0.0009
     37  CE1      -25.0450    0.5210   13.5970 C.ar   58  TYR58       0.0417
     38  CE2      -23.4170   -1.1430   14.1550 C.ar   58  TYR58       0.0417
     39  CZ       -23.7320    0.1740   13.8840 C.ar   58  TYR58       0.1957
     40  OH       -22.7190    1.1150   13.8940 O.3    58  TYR58      -0.2866
     41  N        -14.8150   -1.8700   17.7760 N.3   106  VAL106     -0.1245
     42  CA       -16.2390   -2.0100   18.0570 C.3   106  VAL106      0.1561
     43  C        -16.5430   -3.4450   18.4970 C.2   106  VAL106      0.2260
     44  O        -15.7010   -4.3420   18.3750 O.2   106  VAL106     -0.2867
     45  CB       -17.0930   -1.6130   16.8280 C.3   106  VAL106      0.0252
     46  CG1      -16.8880   -0.1360   16.4630 C.3   106  VAL106      0.0019
     47  CG2      -16.7880   -2.5040   15.6090 C.3   106  VAL106      0.0019
     48  N        -17.2740    8.1930   20.0300 N.3   150  VAL150     -0.1245
     49  CA       -18.1960    8.1890   18.8950 C.3   150  VAL150      0.1561
     50  C        -18.6660    9.6020   18.5510 C.2   150  VAL150      0.2260
     51  O        -18.1300   10.2310   17.6330 O.2   150  VAL150     -0.2867
     52  CB       -19.3930    7.2620   19.1760 C.3   150  VAL150      0.0252
     53  CG1      -20.4090    7.3190   18.0470 C.3   150  VAL150      0.0019
     54  CG2      -18.9040    5.8520   19.3620 C.3   150  VAL150      0.0019
     55  N        -17.8130   11.8420   15.1590 N.3   154  VAL154     -0.1245
     56  CA       -18.7960   11.9350   14.0840 C.3   154  VAL154      0.1561
     57  C        -18.9550   13.3870   13.6370 C.2   154  VAL154      0.2260
     58  O        -18.8320   13.7110   12.4500 O.2   154  VAL154     -0.2867
     59  CB       -20.1310   11.3270   14.5540 C.3   154  VAL154      0.0252
     60  CG1      -21.2530   11.6340   13.5950 C.3   154  VAL154      0.0019
     61  CG2      -19.9720    9.8190   14.7320 C.3   154  VAL154      0.0019
     62  N        -26.7080   10.6320    8.2840 N.3   275  TYR275     -0.1227
     63  CA       -26.0610    9.7980    9.2770 C.3   275  TYR275      0.1736
     64  C        -27.0320    9.2190   10.2960 C.2   275  TYR275      0.2596
     65  O        -26.5890    8.5060   11.2040 O.2   275  TYR275     -0.2718
     66  CB       -24.9400   10.5870    9.9900 C.3   275  TYR275      0.0548
     67  CG       -25.4030   11.6700   10.9370 C.ar  275  TYR275     -0.0200
     68  CD1      -25.7780   12.9390   10.4710 C.ar  275  TYR275     -0.0009
     69  CD2      -25.4430   11.4440   12.3030 C.ar  275  TYR275     -0.0009
     70  CE1      -26.1930   13.9470   11.3600 C.ar  275  TYR275      0.0417
     71  CE2      -25.8570   12.4360   13.1820 C.ar  275  TYR275      0.0417
     72  CZ       -26.2320   13.6840   12.7060 C.ar  275  TYR275      0.1957
     73  OH       -26.6430   14.6400   13.6140 O.3   275  TYR275     -0.2866
     74  N        -28.3400    9.4400   10.1440 N.am  276  GLY276     -0.1942
     75  CA       -29.3210    8.9130   11.0820 C.3   276  GLY276      0.2014
     76  C        -30.7110    8.9450   10.4830 C.2   276  GLY276      0.2639
     77  O        -30.9440    9.5530    9.4350 O.2   276  GLY276     -0.2714
     78  N        -31.6400    8.2400   11.1380 N.am  277  GLY277     -0.1939
     79  CA       -33.0190    8.2260   10.6830 C.3   277  GLY277      0.2014
     80  C        -34.0350    8.1710   11.8040 C.2   277  GLY277      0.2638
     81  O        -34.8630    7.2580   11.8410 O.2   277  GLY277     -0.2714
     82  N        -33.9830    9.1470   12.7150 N.am  278  MET278     -0.1976
     83  CA       -34.8030    9.1230   13.9290 C.3   278  MET278      0.1605
     84  C        -36.3130    9.0920   13.6510 C.2   278  MET278      0.2287
     85  O        -37.0850    8.6500   14.5100 O.2   278  MET278     -0.2864
     86  CB       -34.4410   10.3220   14.8080 C.3   278  MET278      0.0413
     87  CG       -33.0680   10.2290   15.4680 C.3   278  MET278      0.0598
     88  SD       -32.7410    8.7280   16.4290 S.3   278  MET278     -0.1393
     89  CE       -33.8910    9.0020   17.7720 C.3   278  MET278      0.0692
     90  N        -37.8670    7.4390   11.2460 N.3   280  PHE280     -0.1227
     91  CA       -38.1970    6.1940   10.5490 C.3   280  PHE280      0.1736
     92  C        -38.7940    6.4320    9.1680 C.2   280  PHE280      0.2595
     93  O        -39.3040    5.4940    8.5460 O.2   280  PHE280     -0.2718
     94  CB       -39.1320    5.3030   11.3840 C.3   280  PHE280      0.0547
     95  CG       -38.5890    5.0000   12.7500 C.ar  280  PHE280     -0.0202
     96  CD1      -37.4610    4.1980   12.8990 C.ar  280  PHE280     -0.0042
     97  CD2      -39.1780    5.5450   13.8870 C.ar  280  PHE280     -0.0042
     98  CE1      -36.9360    3.9330   14.1540 C.ar  280  PHE280     -0.0003
     99  CE2      -38.6580    5.2820   15.1530 C.ar  280  PHE280     -0.0003
    100  CZ       -37.5350    4.4790   15.2850 C.ar  280  PHE280     -0.0000
    101  N        -38.7240    7.6480    8.6690 N.am  281  GLN281     -0.1966
    102  CA       -39.1350    8.0080    7.3210 C.3   281  GLN281      0.1718
    103  C        -37.9240    8.0490    6.4030 C.2   281  GLN281      0.2458
    104  O        -36.8300    8.4190    6.8370 O.2   281  GLN281     -0.2730
    105  CB       -39.8190    9.3750    7.2940 C.3   281  GLN281      0.0407
    106  CG       -41.0870    9.4240    8.0910 C.3   281  GLN281      0.0908
    107  CD       -42.1210    8.4890    7.5170 C.2   281  GLN281      0.2608
    108  OE1      -42.6200    7.6100    8.2050 O.2   281  GLN281     -0.2717
    109  NE2      -42.4430    8.6660    6.2390 N.am  281  GLN281     -0.0878
    110  N        -38.0850    7.6550    5.1440 N.am  282  PRO282     -0.2727
    111  CA       -36.9700    7.7480    4.1930 C.3   282  PRO282      0.1402
    112  C        -36.6190    9.1930    3.8630 C.2   282  PRO282      0.2269
    113  O        -37.3160   10.1470    4.2200 O.2   282  PRO282     -0.2865
    114  CB       -37.5000    7.0170    2.9580 C.3   282  PRO282      0.0296
    115  CG       -39.0170    7.1490    3.0730 C.3   282  PRO282      0.0237
    116  CD       -39.3060    7.0980    4.5260 C.3   282  PRO282      0.0939
    117  N        -20.9200    6.9240    7.7400 N.3   301  TRP301     -0.1227
    118  CA       -20.8990    5.8500    8.7380 C.3   301  TRP301      0.1737
    119  C        -19.5020    5.7830    9.3430 C.2   301  TRP301      0.2595
    120  O        -18.5690    5.2880    8.7020 O.2   301  TRP301     -0.2718
    121  CB       -21.2660    4.5040    8.1180 C.3   301  TRP301      0.0564
    122  CG       -21.4620    3.4200    9.1280 C.ar  301  TRP301      0.0003
    123  CD1      -21.7050    3.5770   10.4630 C.ar  301  TRP301      0.0946
    124  CD2      -21.4170    2.0090    8.8930 C.ar  301  TRP301      0.0152
    125  NE1      -21.8150    2.3550   11.0680 N.ar  301  TRP301     -0.2442
    126  CE2      -21.6500    1.3750   10.1240 C.ar  301  TRP301      0.0810
    127  CE3      -21.2070    1.2170    7.7560 C.ar  301  TRP301      0.0012
    128  CZ2      -21.6800   -0.0120   10.2540 C.ar  301  TRP301      0.0191
    129  CZ3      -21.2340   -0.1580    7.8910 C.ar  301  TRP301      0.0001
    130  CH2      -21.4720   -0.7560    9.1260 C.ar  301  TRP301      0.0015
    131  N        -19.3600    6.2440   10.5850 N.am  302  VAL302     -0.1966
    132  CA       -18.0140    6.4150   11.1270 C.3   302  VAL302      0.1727
    133  C        -17.2920    5.0760   11.2790 C.2   302  VAL302      0.2616
    134  O        -16.0700    5.0020   11.0960 O.2   302  VAL302     -0.2715
    135  CB       -18.0610    7.1830   12.4590 C.3   302  VAL302      0.0290
    136  CG1      -18.7270    6.3540   13.5520 C.3   302  VAL302      0.0023
    137  CG2      -16.6480    7.5800   12.8610 C.3   302  VAL302      0.0023
    138  N        -18.0150    4.0030   11.5950 N.am  303  THR303     -0.1951
    139  CA       -17.3540    2.7160   11.7610 C.3   303  THR303      0.1897
    140  C        -16.6150    2.3180   10.4900 C.2   303  THR303      0.2313
    141  O        -15.4830    1.8270   10.5530 O.2   303  THR303     -0.2863
    142  CB       -18.3770    1.6400   12.1320 C.3   303  THR303      0.1794
    143  OG1      -19.1240    2.0440   13.2900 O.3   303  THR303     -0.2208
    144  CG2      -17.6830    0.3300   12.4240 C.3   303  THR303      0.0378
@<TRIPOS>BOND
     1   114   115    1
     2   114   111    1
     3   115   116    1
     4   112   111    1
     5   112   113    2
     6   111   110    1
     7   116   110    1
     8   110   103   am
     9   109   107   am
    10   103   104    2
    11   103   102    1
    12   105   102    1
    13   105   106    1
    14   102   101    1
    15   107   106    1
    16   107   108    2
    17   117   118    1
    18   127   129   ar
    19   127   124   ar
    20   129   130   ar
    21   121   118    1
    22   121   122    1
    23    62    63    1
    24    93    92    2
    25   101    92   am
    26   120   119    2
    27   118   119    1
    28   124   122   ar
    29   124   126   ar
    30   130   128   ar
    31   122   123   ar
    32    92    91    1
    33    63    66    1
    34    63    64    1
    35   119   131   am
    36    77    76    2
    37    66    67    1
    38   126   128   ar
    39   126   125   ar
    40    74    64   am
    41    74    75    1
    42    64    65    2
    43   123   125   ar
    44    68    67   ar
    45    68    70   ar
    46    76    75    1
    47    76    78   am
    48   140   141    2
    49   140   139    1
    50    91    90    1
    51    91    94    1
    52   131   132    1
    53    79    78    1
    54    79    80    1
    55    67    69   ar
    56    25    24    2
    57   134   133    2
    58   132   133    1
    59   132   135    1
    60   133   138   am
    61    70    72   ar
    62    94    95    1
    63   138   139    1
    64   139   142    1
    65    80    81    2
    66    80    82   am
    67    24    23    1
    68    24    29   am
    69    31    30    1
    70    31    32    2
    71   142   144    1
    72   142   143    1
    73    23    26    1
    74    23    22    1
    75    26    27    1
    76    26    28    1
    77    69    71   ar
    78    58    57    2
    79   135   137    1
    80   135   136    1
    81    30    29    1
    82    30    33    1
    83    72    71   ar
    84    72    73    1
    85    82    83    1
    86    95    96   ar
    87    95    97   ar
    88    96    98   ar
    89    60    59    1
    90    37    35   ar
    91    37    39   ar
    92    35    34   ar
    93    57    56    1
    94    84    83    1
    95    84    85    2
    96    34    33    1
    97    34    36   ar
    98    39    40    1
    99    39    38   ar
   100    97    99   ar
   101    83    86    1
   102    56    59    1
   103    56    55    1
   104    98   100   ar
   105    38    36   ar
   106    59    61    1
   107    86    87    1
   108    20    19    2
   109    99   100   ar
   110    19    18    1
   111    19    21   am
   112    87    88    1
   113    47    45    1
   114    18    15    1
   115    17    16    2
   116    88    89    1
   117    46    45    1
   118    16    15    1
   119    15    14    1
   120    45    42    1
   121    12     9    1
   122    12    13    1
   123     9     8    1
   124     9    10    1
   125    51    50    2
   126    41    42    1
   127    11    10    2
   128    53    52    1
   129    42    43    1
   130     8     3   am
   131     5     6    1
   132     5     2    1
   133     4     3    2
   134    44    43    2
   135    50    49    1
   136     3     2    1
   137    49    52    1
   138    49    48    1
   139     6     7    1
   140    52    54    1
   141     2     1    1
   142     7     1    1
