@<TRIPOS>MOLECULE
tmp/5lbyA01.pdb
 97 97 0 0 0
SMALL
GASTEIGER

@<TRIPOS>ATOM
      1  N         -5.9310   -7.7500   11.8240 N.3   103  TYR103     -0.1227
      2  CA        -5.8720   -7.0490   13.1130 C.3   103  TYR103      0.1736
      3  C         -6.4810   -7.9950   14.1500 C.2   103  TYR103      0.2595
      4  O         -7.6880   -8.3090   14.0790 O.2   103  TYR103     -0.2718
      5  CB        -6.7380   -5.7650   13.1270 C.3   103  TYR103      0.0548
      6  CG        -6.1050   -4.4850   12.6000 C.ar  103  TYR103     -0.0200
      7  CD1       -5.0190   -4.4560   11.7590 C.ar  103  TYR103     -0.0009
      8  CD2       -6.6380   -3.2760   12.9730 C.ar  103  TYR103     -0.0009
      9  CE1       -4.4860   -3.2530   11.3010 C.ar  103  TYR103      0.0417
     10  CE2       -6.1300   -2.0910   12.5470 C.ar  103  TYR103      0.0417
     11  CZ        -5.0470   -2.0560   11.7180 C.ar  103  TYR103      0.1957
     12  OH        -4.5740   -0.8460   11.3000 O.3   103  TYR103     -0.2866
     13  N         -5.6850   -8.4480   15.1070 N.am  104  TRP104     -0.1962
     14  CA        -6.1770   -9.3650   16.1540 C.3   104  TRP104      0.1771
     15  C         -6.9200  -10.5390   15.5380 C.2   104  TRP104      0.2619
     16  O         -8.0040  -10.9390   15.9510 O.2   104  TRP104     -0.2715
     17  CB        -7.0540   -8.6250   17.1900 C.3   104  TRP104      0.0590
     18  CG        -6.2650   -7.7510   18.0720 C.ar  104  TRP104      0.0006
     19  CD1       -6.4230   -6.4170   18.2550 C.ar  104  TRP104      0.0946
     20  CD2       -5.2290   -8.1620   18.9770 C.ar  104  TRP104      0.0152
     21  NE1       -5.5320   -5.9560   19.2010 N.ar  104  TRP104     -0.2442
     22  CE2       -4.7550   -7.0060   19.6400 C.ar  104  TRP104      0.0810
     23  CE3       -4.6370   -9.3810   19.2840 C.ar  104  TRP104      0.0012
     24  CZ2       -3.7560   -7.0690   20.6020 C.ar  104  TRP104      0.0191
     25  CZ3       -3.6030   -9.4310   20.1890 C.ar  104  TRP104      0.0001
     26  CH2       -3.1820   -8.2760   20.8200 C.ar  104  TRP104      0.0015
     27  N         -6.2670  -11.1500   14.5310 N.am  105  PHE105     -0.1974
     28  CA        -6.7560  -12.4000   13.9570 C.3   105  PHE105      0.1639
     29  C         -8.1570  -12.2300   13.3870 C.2   105  PHE105      0.2290
     30  O         -8.9160  -13.2080   13.2910 O.2   105  PHE105     -0.2864
     31  CB        -6.6480  -13.5650   14.9300 C.3   105  PHE105      0.0560
     32  CG        -5.1930  -13.7170   15.4170 C.ar  105  PHE105     -0.0200
     33  CD1       -4.2210  -14.3040   14.5950 C.ar  105  PHE105     -0.0042
     34  CD2       -4.7550  -13.1400   16.5800 C.ar  105  PHE105     -0.0042
     35  CE1       -2.9200  -14.4100   14.9990 C.ar  105  PHE105     -0.0003
     36  CE2       -3.4160  -13.2510   16.9780 C.ar  105  PHE105     -0.0003
     37  CZ        -2.5220  -13.8730   16.1850 C.ar  105  PHE105     -0.0000
     38  N          1.3200   -9.6240    9.7650 N.3   148  GLY148     -0.1210
     39  CA         2.6420   -9.4620   10.4170 C.3   148  GLY148      0.1956
     40  C          3.4090  -10.7780   10.4260 C.2   148  GLY148      0.2612
     41  O          4.6230  -10.8050   10.1270 O.2   148  GLY148     -0.2717
     42  N          2.7270  -11.8530   10.8020 N.am  149  GLY149     -0.1942
     43  CA         3.3920  -13.1000   11.0110 C.3   149  GLY149      0.2014
     44  C          3.7280  -13.7820    9.7170 C.2   149  GLY149      0.2639
     45  O          3.1130  -13.5880    8.6590 O.2   149  GLY149     -0.2714
     46  N          4.7500  -14.6320    9.7730 N.am  150  THR150     -0.1950
     47  CA         5.2210  -15.4110    8.6000 C.3   150  THR150      0.1897
     48  C          4.3290  -16.6210    8.3420 C.2   150  THR150      0.2313
     49  O          3.5630  -17.0440    9.2090 O.2   150  THR150     -0.2863
     50  CB         6.6280  -15.9260    8.8130 C.3   150  THR150      0.1794
     51  OG1        6.6150  -16.7270    9.9850 O.3   150  THR150     -0.2208
     52  CG2        7.6090  -14.7860    8.9150 C.3   150  THR150      0.0378
     53  N          4.5300  -19.2710   10.9810 N.3   153  MET153     -0.1230
     54  CA         3.8070  -18.9700   12.2190 C.3   153  MET153      0.1702
     55  C          2.3570  -19.3200   12.0990 C.2   153  MET153      0.2592
     56  O          1.6640  -19.4350   13.1140 O.2   153  MET153     -0.2718
     57  CB         3.9790  -17.4870   12.5810 C.3   153  MET153      0.0401
     58  CG         5.4300  -17.1340   12.9610 C.3   153  MET153      0.0596
     59  SD         5.7250  -15.3870   13.1030 S.3   153  MET153     -0.1393
     60  CE         5.1170  -15.0100   14.6940 C.3   153  MET153      0.0692
     61  N          1.8550  -19.4960   10.8780 N.am  154  TYR154     -0.1976
     62  CA         0.4700  -19.7750   10.5610 C.3   154  TYR154      0.1639
     63  C          0.2050  -21.1780   10.1060 C.2   154  TYR154      0.2290
     64  O         -0.7960  -21.4640    9.4200 O.2   154  TYR154     -0.2864
     65  CB        -0.0740  -18.7310    9.6020 C.3   154  TYR154      0.0560
     66  CG        -0.3630  -17.4170   10.2910 C.ar  154  TYR154     -0.0198
     67  CD1       -1.3830  -17.3050   11.2000 C.ar  154  TYR154     -0.0009
     68  CD2        0.4410  -16.2840   10.0290 C.ar  154  TYR154     -0.0009
     69  CE1       -1.5970  -16.1350   11.8840 C.ar  154  TYR154      0.0417
     70  CE2        0.1890  -15.0790   10.6800 C.ar  154  TYR154      0.0417
     71  CZ        -0.8670  -15.0100   11.5610 C.ar  154  TYR154      0.1957
     72  OH        -1.1280  -13.8420   12.2160 O.3   154  TYR154     -0.2866
     73  N          1.1420  -19.0850   15.9590 N.3   160  ASN160     -0.1240
     74  CA        -0.2110  -18.5700   15.8600 C.3   160  ASN160      0.1653
     75  C         -1.2700  -19.5850   15.4500 C.2   160  ASN160      0.2266
     76  O         -2.4360  -19.2530   15.3780 O.2   160  ASN160     -0.2867
     77  CB        -0.2590  -17.3470   14.9400 C.3   160  ASN160      0.1155
     78  CG         0.2990  -16.1060   15.5790 C.2   160  ASN160      0.2627
     79  OD1        0.3870  -16.0050   16.8160 O.2   160  ASN160     -0.2716
     80  ND2        0.6650  -15.1290   14.7640 N.am  160  ASN160     -0.0877
     81  N          6.1770   -6.6840    5.6350 N.3   192  GLU192     -0.1231
     82  CA         7.0530   -5.7020    6.2240 C.3   192  GLU192      0.1699
     83  C          8.4960   -6.1470    6.3710 C.2   192  GLU192      0.2592
     84  O          9.3620   -5.2740    6.3840 O.2   192  GLU192     -0.2718
     85  CB         6.4900   -5.2250    7.6050 C.3   192  GLU192      0.0402
     86  CG         5.2280   -4.4250    7.4620 C.3   192  GLU192      0.1161
     87  CD         4.4670   -4.3540    8.7710 C.2   192  GLU192      0.3649
     88  OE1        3.8270   -5.3650    9.2180 O.co2 192  GLU192     -0.2457
     89  OE2        4.4440   -3.2340    9.2430 O.co2 192  GLU192     -0.2457
     90  N          8.7460   -7.4510    6.4990 N.am  193  ILE193     -0.1980
     91  CA        10.0950   -7.9480    6.5970 C.3   193  ILE193      0.1595
     92  C         10.6390   -8.4810    5.2630 C.2   193  ILE193      0.2287
     93  O         11.8120   -8.8480    5.1610 O.2   193  ILE193     -0.2864
     94  CB        10.2270   -8.9850    7.7070 C.3   193  ILE193      0.0276
     95  CG1        9.3970  -10.2080    7.4030 C.3   193  ILE193      0.0022
     96  CG2        9.9030   -8.3460    9.0690 C.3   193  ILE193      0.0022
     97  CD1        9.9240  -11.4980    7.9640 C.3   193  ILE193      0.0001
@<TRIPOS>BOND
     1    93    92    2
     2    92    91    1
     3    81    82    1
     4    82    83    1
     5    82    85    1
     6    83    84    2
     7    83    90   am
     8    90    91    1
     9    91    94    1
    10    95    94    1
    11    95    97    1
    12    86    85    1
    13    86    87    1
    14    94    96    1
    15    48    47    1
    16    48    49    2
    17    47    50    1
    18    47    46    1
    19    45    44    2
    20    87    88   ar
    21    87    89   ar
    22    50    52    1
    23    50    51    1
    24    64    63    2
    25    65    66    1
    26    65    62    1
    27    44    46   am
    28    44    43    1
    29    38    39    1
    30    68    66   ar
    31    68    70   ar
    32    63    62    1
    33    41    40    2
    34    66    67   ar
    35    39    40    1
    36    40    42   am
    37    62    61    1
    38    70    71   ar
    39    42    43    1
    40    61    55   am
    41    53    54    1
    42    67    69   ar
    43    12    11    1
    44     9    11   ar
    45     9     7   ar
    46    71    69   ar
    47    71    72    1
    48    11    10   ar
    49     7     6   ar
    50     1     2    1
    51    55    54    1
    52    55    56    2
    53    54    57    1
    54    10     8   ar
    55    57    58    1
    56     6     8   ar
    57     6     5    1
    58    58    59    1
    59    59    60    1
    60     2     5    1
    61     2     3    1
    62    30    29    2
    63    29    28    1
    64    28    27    1
    65    28    31    1
    66     4     3    2
    67     3    13   am
    68    27    15   am
    69    33    35   ar
    70    33    32   ar
    71    80    78   am
    72    31    32    1
    73    77    78    1
    74    77    74    1
    75    35    37   ar
    76    13    14    1
    77    76    75    2
    78    32    34   ar
    79    75    74    1
    80    15    16    2
    81    15    14    1
    82    78    79    2
    83    74    73    1
    84    14    17    1
    85    37    36   ar
    86    34    36   ar
    87    17    18    1
    88    18    19   ar
    89    18    20   ar
    90    19    21   ar
    91    20    23   ar
    92    20    22   ar
    93    21    22   ar
    94    23    25   ar
    95    22    24   ar
    96    25    26   ar
    97    24    26   ar
