@<TRIPOS>MOLECULE
tmp/5lbyA03.pdb
 114 109 0 0 0
SMALL
GASTEIGER

@<TRIPOS>ATOM
      1  N        -33.3930   -1.3420   20.3380 N.3    65  ASN65      -0.1225
      2  CA       -33.0550   -2.7050   19.9570 C.3    65  ASN65       0.1785
      3  C        -32.5200   -2.6150   18.5080 C.2    65  ASN65       0.2597
      4  O        -33.2890   -2.4450   17.5620 O.2    65  ASN65      -0.2718
      5  CB       -34.2410   -3.6380   20.0450 C.3    65  ASN65       0.1169
      6  CG       -33.9010   -5.0620   19.7350 C.2    65  ASN65       0.2627
      7  OD1      -33.2280   -5.3520   18.7940 O.2    65  ASN65      -0.2716
      8  ND2      -34.4840   -5.9770   20.5470 N.am   65  ASN65      -0.0877
      9  N        -31.1890   -2.6420   18.3670 N.am   66  TYR66      -0.1962
     10  CA       -30.5430   -2.4110   17.0340 C.3    66  TYR66       0.1771
     11  C        -31.0460   -3.4040   16.0300 C.2    66  TYR66       0.2620
     12  O        -31.3320   -3.0270   14.8910 O.2    66  TYR66      -0.2715
     13  CB       -29.0040   -2.5220   17.1770 C.3    66  TYR66       0.0574
     14  CG       -28.2950   -2.1190   15.9120 C.ar   66  TYR66      -0.0198
     15  CD1      -28.1220   -0.7970   15.5990 C.ar   66  TYR66      -0.0009
     16  CD2      -27.8640   -3.0590   15.0240 C.ar   66  TYR66      -0.0009
     17  CE1      -27.4840   -0.3990   14.4410 C.ar   66  TYR66       0.0417
     18  CE2      -27.2340   -2.6960   13.8300 C.ar   66  TYR66       0.0417
     19  CZ       -27.0730   -1.3490   13.5430 C.ar   66  TYR66       0.1957
     20  OH       -26.5140   -0.9930   12.3280 O.3    66  TYR66      -0.2866
     21  N        -31.0910   -4.6810   16.3960 N.am   67  GLY67      -0.1940
     22  CA       -31.5660   -5.6980   15.4430 C.3    67  GLY67       0.2014
     23  C        -32.9690   -5.4640   14.9470 C.2    67  GLY67       0.2638
     24  O        -33.2370   -5.4960   13.7340 O.2    67  GLY67      -0.2714
     25  N        -33.8770   -5.1740   15.8660 N.am   68  VAL68      -0.1977
     26  CA       -35.2850   -4.9430   15.4550 C.3    68  VAL68       0.1596
     27  C        -35.3880   -3.6900   14.6060 C.2    68  VAL68       0.2287
     28  O        -36.0650   -3.6830   13.5670 O.2    68  VAL68      -0.2864
     29  CB       -36.2270   -4.8490   16.6900 C.3    68  VAL68       0.0276
     30  CG1      -37.5970   -4.4060   16.2430 C.3    68  VAL68       0.0022
     31  CG2      -36.3010   -6.1820   17.3860 C.3    68  VAL68       0.0022
     32  N        -33.1610   -1.9820   12.8200 N.3    70  THR70      -0.1218
     33  CA       -32.5300   -2.0150   11.4860 C.3    70  THR70       0.1862
     34  C        -33.2570   -2.9510   10.5040 C.2    70  THR70       0.2287
     35  O        -33.3990   -2.6270    9.3470 O.2    70  THR70      -0.2866
     36  CB       -31.0290   -2.3830   11.5500 C.3    70  THR70       0.1770
     37  OG1      -30.8510   -3.6100   12.2120 O.3    70  THR70      -0.2211
     38  CG2      -30.2760   -1.2920   12.2270 C.3    70  THR70       0.0375
     39  N        -21.1210   -5.3450   10.2940 N.3   116  ASP116     -0.1239
     40  CA       -22.2020   -5.2220   11.2770 C.3   116  ASP116      0.1674
     41  C        -23.3660   -4.3990   10.7640 C.2   116  ASP116      0.2266
     42  O        -24.5270   -4.7380   11.0610 O.2   116  ASP116     -0.2867
     43  CB       -21.6690   -4.5660   12.5450 C.3   116  ASP116      0.1410
     44  CG       -20.6530   -5.4040   13.3630 C.2   116  ASP116      0.3668
     45  OD1      -20.4730   -6.6070   13.0940 O.co2 116  ASP116     -0.2456
     46  OD2      -20.0860   -4.7730   14.3030 O.co2 116  ASP116     -0.2456
     47  N        -24.6140   -5.6180    6.3870 N.3   119  LEU119     -0.1231
     48  CA       -25.1640   -6.9480    6.1460 C.3   119  LEU119      0.1693
     49  C        -26.3590   -7.2090    7.0800 C.2   119  LEU119      0.2592
     50  O        -26.3410   -8.1230    7.8780 O.2   119  LEU119     -0.2718
     51  CB       -24.0800   -8.0000    6.2920 C.3   119  LEU119      0.0284
     52  CG       -22.8530   -7.8250    5.3800 C.3   119  LEU119      0.0019
     53  CD1      -21.8130   -8.8670    5.7390 C.3   119  LEU119      0.0001
     54  CD2      -23.2200   -7.9280    3.8970 C.3   119  LEU119      0.0001
     55  N        -27.3930   -6.3780    6.9710 N.am  120  CYS120     -0.1956
     56  CA       -28.4880   -6.4280    7.8980 C.3   120  CYS120      0.1843
     57  C        -29.5320   -7.5020    7.5440 C.2   120  CYS120      0.2625
     58  O        -29.6080   -7.9870    6.3910 O.2   120  CYS120     -0.2714
     59  CB       -29.1280   -5.0760    8.0710 C.3   120  CYS120      0.0997
     60  SG       -30.1480   -4.5160    6.6880 S.3   120  CYS120     -0.0797
     61  N        -30.3410   -7.8400    8.5180 N.am  121  GLN121     -0.1977
     62  CA       -31.4410   -8.7860    8.2890 C.3   121  GLN121      0.1601
     63  C        -32.4080   -8.1490    7.2650 C.2   121  GLN121      0.2287
     64  O        -32.7230   -6.9520    7.3440 O.2   121  GLN121     -0.2864
     65  CB       -32.1780   -9.1010    9.6020 C.3   121  GLN121      0.0394
     66  CG       -33.1920  -10.1880    9.4540 C.3   121  GLN121      0.0908
     67  CD       -33.9020  -10.5270   10.7350 C.2   121  GLN121      0.2608
     68  OE1      -33.6650   -9.8570   11.7640 O.2   121  GLN121     -0.2717
     69  NE2      -34.7870  -11.4860   10.6820 N.am  121  GLN121     -0.0878
     70  N        -29.4760  -11.6440    4.6530 N.3   125  PHE125     -0.1241
     71  CA       -30.0030  -12.9240    5.1090 C.3   125  PHE125      0.1605
     72  C        -31.3790  -12.6640    5.7010 C.2   125  PHE125      0.2264
     73  O        -31.7260  -11.5320    5.9950 O.2   125  PHE125     -0.2867
     74  CB       -29.1190  -13.5530    6.1630 C.3   125  PHE125      0.0534
     75  CG       -29.1030  -12.8380    7.4640 C.ar  125  PHE125     -0.0203
     76  CD1      -28.3180  -11.7060    7.6510 C.ar  125  PHE125     -0.0042
     77  CD2      -29.9870  -13.1960    8.4640 C.ar  125  PHE125     -0.0042
     78  CE1      -28.3970  -10.9840    8.8080 C.ar  125  PHE125     -0.0003
     79  CE2      -30.0740  -12.4770    9.6260 C.ar  125  PHE125     -0.0003
     80  CZ       -29.2840  -11.3480    9.7950 C.ar  125  PHE125     -0.0000
     81  N        -34.3380  -15.1160    8.3930 N.3   127  ILE127     -0.1245
     82  CA       -34.5630  -16.3480    9.1460 C.3   127  ILE127      0.1561
     83  C        -35.9970  -16.8090    8.8250 C.2   127  ILE127      0.2260
     84  O        -36.9340  -16.2140    9.3580 O.2   127  ILE127     -0.2867
     85  CB       -34.3170  -16.1750   10.6310 C.3   127  ILE127      0.0252
     86  CG1      -32.8330  -15.7820   10.8800 C.3   127  ILE127      0.0019
     87  CG2      -34.6090  -17.4710   11.3650 C.3   127  ILE127      0.0019
     88  CD1      -32.5690  -15.3610   12.2690 C.3   127  ILE127      0.0001
     89  N        -30.5610  -18.2600    5.2960 N.3   130  PHE130     -0.1241
     90  CA       -29.1650  -18.0710    5.6680 C.3   130  PHE130      0.1605
     91  C        -28.3620  -19.2940    5.2790 C.2   130  PHE130      0.2264
     92  O        -28.9050  -20.3130    4.8450 O.2   130  PHE130     -0.2867
     93  CB       -29.0170  -17.5930    7.1510 C.3   130  PHE130      0.0534
     94  CG       -29.5150  -18.6040    8.1460 C.ar  130  PHE130     -0.0203
     95  CD1      -30.8270  -18.6480    8.5230 C.ar  130  PHE130     -0.0042
     96  CD2      -28.6110  -19.4370    8.7840 C.ar  130  PHE130     -0.0042
     97  CE1      -31.2650  -19.5730    9.4790 C.ar  130  PHE130     -0.0003
     98  CE2      -29.0250  -20.3510    9.7130 C.ar  130  PHE130     -0.0003
     99  CZ       -30.3600  -20.4290   10.0630 C.ar  130  PHE130     -0.0000
    100  N        -19.0100  -17.7230    9.3470 N.3   173  GLY173     -0.1225
    101  CA       -19.9680  -17.0160   10.1650 C.3   173  GLY173      0.1811
    102  C        -20.5510  -15.8030    9.5050 C.2   173  GLY173      0.2280
    103  O        -21.6470  -15.3860    9.8820 O.2   173  GLY173     -0.2866
    104  N        -22.7480  -17.4130    5.7510 N.3   177  PHE177     -0.1241
    105  CA       -24.0560  -17.1590    6.3700 C.3   177  PHE177      0.1605
    106  C        -24.9550  -16.3160    5.4740 C.2   177  PHE177      0.2264
    107  O        -26.1810  -16.5520    5.4470 O.2   177  PHE177     -0.2867
    108  CB       -23.8460  -16.4390    7.7380 C.3   177  PHE177      0.0534
    109  CG       -25.0670  -16.3690    8.5950 C.ar  177  PHE177     -0.0203
    110  CD1      -25.3360  -17.3920    9.4970 C.ar  177  PHE177     -0.0042
    111  CD2      -25.9640  -15.3050    8.5110 C.ar  177  PHE177     -0.0042
    112  CE1      -26.4530  -17.3300   10.3070 C.ar  177  PHE177     -0.0003
    113  CE2      -27.0720  -15.2430    9.3330 C.ar  177  PHE177     -0.0003
    114  CZ       -27.3230  -16.2550   10.1950 C.ar  177  PHE177     -0.0000
@<TRIPOS>BOND
     1    54    52    1
     2    70    71    1
     3    92    91    2
     4    71    72    1
     5    71    74    1
     6    91    90    1
     7    89    90    1
     8    52    53    1
     9    52    51    1
    10   107   106    2
    11   106   105    1
    12    90    93    1
    13    72    73    2
    14   104   105    1
    15    48    51    1
    16    48    47    1
    17    48    49    1
    18    74    75    1
    19   105   108    1
    20    58    57    2
    21    60    59    1
    22    55    49   am
    23    55    56    1
    24    49    50    2
    25    93    94    1
    26    63    64    2
    27    63    62    1
    28    75    76   ar
    29    75    77   ar
    30    57    56    1
    31    57    61   am
    32    76    78   ar
    33   108   109    1
    34    56    59    1
    35    94    95   ar
    36    94    96   ar
    37    62    61    1
    38    62    65    1
    39    81    82    1
    40    77    79   ar
    41   111   109   ar
    42   111   113   ar
    43    95    97   ar
    44   109   110   ar
    45    96    98   ar
    46    78    80   ar
    47    83    82    1
    48    83    84    2
    49    82    85    1
    50   113   114   ar
    51    35    34    2
    52   100   101    1
    53    66    65    1
    54    66    67    1
    55    97    99   ar
    56   110   112   ar
    57   102   103    2
    58   102   101    1
    59    79    80   ar
    60    98    99   ar
    61   114   112   ar
    62    39    40    1
    63    34    33    1
    64    85    86    1
    65    85    87    1
    66    69    67   am
    67    67    68    2
    68    41    42    2
    69    41    40    1
    70    86    88    1
    71    40    43    1
    72    33    36    1
    73    33    32    1
    74    36    37    1
    75    36    38    1
    76    20    19    1
    77    43    44    1
    78    45    44   ar
    79    44    46   ar
    80    19    18   ar
    81    19    17   ar
    82    28    27    2
    83    24    23    2
    84    18    16   ar
    85    17    15   ar
    86    27    26    1
    87    12    11    2
    88    23    22    1
    89    23    25   am
    90    16    14   ar
    91    22    21    1
    92    26    25    1
    93    26    29    1
    94    15    14   ar
    95    14    13    1
    96    11    21   am
    97    11    10    1
    98    30    29    1
    99    29    31    1
   100    10    13    1
   101    10     9    1
   102     4     3    2
   103     9     3   am
   104     3     2    1
   105     7     6    2
   106     6     5    1
   107     6     8   am
   108     2     5    1
   109     2     1    1
