@<TRIPOS>MOLECULE
tmp/5lbzB03.pdb
 91 88 0 0 0
SMALL
GASTEIGER

@<TRIPOS>ATOM
      1  N          0.6500    0.7130   13.3620 N.3    66  GLY66      -0.1210
      2  CA         1.3400   -0.0520   14.3850 C.3    66  GLY66       0.1956
      3  C          2.6370    0.6010   14.8850 C.2    66  GLY66       0.2611
      4  O          2.8690    0.6540   16.0980 O.2    66  GLY66      -0.2717
      5  N          3.4530    1.1020   13.9610 N.am   67  VAL67      -0.1979
      6  CA         4.7080    1.7530   14.3430 C.3    67  VAL67       0.1595
      7  C          4.4160    3.0200   15.1170 C.2    67  VAL67       0.2287
      8  O          5.0440    3.2940   16.1580 O.2    67  VAL67      -0.2864
      9  CB         5.5580    2.0410   13.1240 C.3    67  VAL67       0.0276
     10  CG1        6.7280    2.9310   13.5120 C.3    67  VAL67       0.0022
     11  CG2        6.0740    0.7740   12.4880 C.3    67  VAL67       0.0022
     12  N         -4.9250   -2.2220   22.9340 N.3   118  LEU118     -0.1231
     13  CA        -3.9420   -3.2960   23.1350 C.3   118  LEU118      0.1693
     14  C         -2.7490   -3.0880   22.1920 C.2   118  LEU118      0.2592
     15  O         -2.4700   -3.9000   21.3240 O.2   118  LEU118     -0.2718
     16  CB        -4.5830   -4.6590   22.9340 C.3   118  LEU118      0.0284
     17  CG        -5.7990   -4.9470   23.8240 C.3   118  LEU118      0.0019
     18  CD1       -6.4430   -6.2890   23.4560 C.3   118  LEU118      0.0001
     19  CD2       -5.4270   -4.9100   25.3090 C.3   118  LEU118      0.0001
     20  N         -2.0490   -1.9700   22.3740 N.am  119  CYS119     -0.1956
     21  CA        -0.9810   -1.6140   21.4250 C.3   119  CYS119      0.1843
     22  C          0.3570   -2.2440   21.8090 C.2   119  CYS119      0.2625
     23  O          0.5610   -2.6870   22.9330 O.2   119  CYS119     -0.2714
     24  CB        -0.8750   -0.1150   21.2770 C.3   119  CYS119      0.0997
     25  SG        -0.1400    0.7020   22.7050 S.3   119  CYS119     -0.0797
     26  N          1.2630   -2.2650   20.8390 N.am  120  GLN120     -0.1977
     27  CA         2.6140   -2.7430   21.1150 C.3   120  GLN120      0.1601
     28  C          3.2750   -1.8300   22.1410 C.2   120  GLN120      0.2287
     29  O          3.0860   -0.5980   22.1220 O.2   120  GLN120     -0.2864
     30  CB         3.4250   -2.7930   19.8360 C.3   120  GLN120      0.0394
     31  CG         4.7280   -3.5650   19.9750 C.3   120  GLN120      0.0908
     32  CD         5.4820   -3.6870   18.6730 C.2   120  GLN120      0.2608
     33  OE1        4.9360   -3.4420   17.5690 O.2   120  GLN120     -0.2717
     34  NE2        6.7400   -4.0340   18.7900 N.am  120  GLN120     -0.0878
     35  N          1.7660   -6.2170   24.4530 N.3   124  PHE124     -0.1241
     36  CA         2.7290   -7.1790   23.9570 C.3   124  PHE124      0.1605
     37  C          3.9460   -6.4090   23.4800 C.2   124  PHE124      0.2264
     38  O          3.8720   -5.2360   23.1690 O.2   124  PHE124     -0.2867
     39  CB         2.1410   -8.0090   22.7870 C.3   124  PHE124      0.0534
     40  CG         1.9310   -7.2100   21.5290 C.ar  124  PHE124     -0.0203
     41  CD1        0.7990   -6.4550   21.3540 C.ar  124  PHE124     -0.0042
     42  CD2        2.8940   -7.2140   20.5150 C.ar  124  PHE124     -0.0042
     43  CE1        0.6070   -5.7120   20.2210 C.ar  124  PHE124     -0.0003
     44  CE2        2.7100   -6.4470   19.3670 C.ar  124  PHE124     -0.0003
     45  CZ         1.5470   -5.7080   19.2350 C.ar  124  PHE124     -0.0000
     46  N          7.6770   -7.3510   20.8960 N.3   126  ILE126     -0.1245
     47  CA         8.2120   -8.3230   19.9540 C.3   126  ILE126      0.1561
     48  C          9.6960   -8.4310   20.2490 C.2   126  ILE126      0.2260
     49  O         10.4680   -7.5140   19.8750 O.2   126  ILE126     -0.2867
     50  CB         8.0180   -7.8980   18.5010 C.3   126  ILE126      0.0252
     51  CG1        6.5110   -7.7110   18.1960 C.3   126  ILE126      0.0019
     52  CG2        8.6070   -8.9680   17.5640 C.3   126  ILE126      0.0019
     53  CD1        6.2620   -6.8780   16.9320 C.3   126  ILE126      0.0001
     54  N          5.0600  -12.0440   23.7550 N.3   129  PHE129     -0.1227
     55  CA         3.6680  -12.3770   23.4160 C.3   129  PHE129      0.1736
     56  C          3.3690  -13.8200   23.7680 C.2   129  PHE129      0.2595
     57  O          4.2880  -14.5830   24.1210 O.2   129  PHE129     -0.2718
     58  CB         3.3090  -11.9600   21.9940 C.3   129  PHE129      0.0547
     59  CG         4.1750  -12.5570   20.9310 C.ar  129  PHE129     -0.0202
     60  CD1        3.9560  -13.8480   20.4700 C.ar  129  PHE129     -0.0042
     61  CD2        5.1790  -11.8140   20.3530 C.ar  129  PHE129     -0.0042
     62  CE1        4.7330  -14.3780   19.4730 C.ar  129  PHE129     -0.0003
     63  CE2        5.9720  -12.3540   19.3440 C.ar  129  PHE129     -0.0003
     64  CZ         5.7260  -13.6240   18.9010 C.ar  129  PHE129     -0.0000
     65  N          2.1020  -14.1820   23.7370 N.am  130  TYR130     -0.1976
     66  CA         1.5960  -15.4380   24.2700 C.3   130  TYR130      0.1639
     67  C          2.0220  -15.5610   25.7190 C.2   130  TYR130      0.2290
     68  O          1.7500  -14.6390   26.5010 O.2   130  TYR130     -0.2864
     69  CB         1.9090  -16.6360   23.3710 C.3   130  TYR130      0.0560
     70  CG         1.0950  -16.6110   22.0770 C.ar  130  TYR130     -0.0198
     71  CD1       -0.2990  -16.6250   22.1210 C.ar  130  TYR130     -0.0009
     72  CD2        1.6940  -16.5550   20.8240 C.ar  130  TYR130     -0.0009
     73  CE1       -1.0490  -16.5680   20.9570 C.ar  130  TYR130      0.0417
     74  CE2        0.9380  -16.5520   19.6630 C.ar  130  TYR130      0.0417
     75  CZ        -0.4310  -16.5470   19.7350 C.ar  130  TYR130      0.1957
     76  OH        -1.1880  -16.5090   18.5840 O.3   130  TYR130     -0.2866
     77  N         -6.0150  -15.5970   19.8230 N.3   172  GLY172     -0.1225
     78  CA        -5.3510  -14.5700   19.0360 C.3   172  GLY172      0.1811
     79  C         -5.2050  -13.2280   19.7020 C.2   172  GLY172      0.2280
     80  O         -4.2870  -12.4710   19.3600 O.2   172  GLY172     -0.2866
     81  N         -2.5950  -14.0550   23.4270 N.3   176  PHE176     -0.1241
     82  CA        -1.4530  -13.3460   22.8260 C.3   176  PHE176      0.1605
     83  C         -0.8910  -12.2580   23.7410 C.2   176  PHE176      0.2264
     84  O          0.3230  -12.0590   23.8180 O.2   176  PHE176     -0.2867
     85  CB        -1.8410  -12.7750   21.4620 C.3   176  PHE176      0.0534
     86  CG        -0.7030  -12.1250   20.7360 C.ar  176  PHE176     -0.0203
     87  CD1       -0.4800  -10.7790   20.8280 C.ar  176  PHE176     -0.0042
     88  CD2        0.1170  -12.8890   19.8900 C.ar  176  PHE176     -0.0042
     89  CE1        0.5770  -10.2050   20.1160 C.ar  176  PHE176     -0.0003
     90  CE2        1.1480  -12.3030   19.2080 C.ar  176  PHE176     -0.0003
     91  CZ         1.3600  -10.9600   19.2970 C.ar  176  PHE176     -0.0000
@<TRIPOS>BOND
     1    11     9    1
     2     9    10    1
     3     9     6    1
     4     1     2    1
     5     5     6    1
     6     5     3   am
     7     6     7    1
     8     2     3    1
     9     3     4    2
    10     7     8    2
    11    53    51    1
    12    52    50    1
    13    33    32    2
    14    51    50    1
    15    50    47    1
    16    76    75    1
    17    32    34   am
    18    32    31    1
    19    64    63   ar
    20    64    62   ar
    21    78    79    1
    22    78    77    1
    23    90    91   ar
    24    90    88   ar
    25    45    44   ar
    26    45    43   ar
    27    91    89   ar
    28    63    61   ar
    29    80    79    2
    30    44    42   ar
    31    62    60   ar
    32    74    75   ar
    33    74    72   ar
    34    75    73   ar
    35    30    31    1
    36    30    27    1
    37    49    48    2
    38    88    86   ar
    39    47    48    1
    40    47    46    1
    41    89    87   ar
    42    43    41   ar
    43    61    59   ar
    44    60    59   ar
    45    42    40   ar
    46    86    87   ar
    47    86    85    1
    48    72    70   ar
    49    26    27    1
    50    26    22   am
    51    59    58    1
    52    73    71   ar
    53    27    28    1
    54    24    21    1
    55    24    25    1
    56    15    14    2
    57    41    40   ar
    58    21    22    1
    59    21    20    1
    60    85    82    1
    61    40    39    1
    62    22    23    2
    63    58    55    1
    64    70    71   ar
    65    70    69    1
    66    29    28    2
    67    14    20   am
    68    14    13    1
    69    39    36    1
    70    82    81    1
    71    82    83    1
    72    12    13    1
    73    16    13    1
    74    16    17    1
    75    38    37    2
    76    69    66    1
    77    55    54    1
    78    55    56    1
    79    18    17    1
    80    37    36    1
    81    65    56   am
    82    65    66    1
    83    83    84    2
    84    56    57    2
    85    17    19    1
    86    36    35    1
    87    66    67    1
    88    67    68    2
