@<TRIPOS>MOLECULE
tmp/5lbzB01.pdb
 97 97 0 0 0
SMALL
GASTEIGER

@<TRIPOS>ATOM
      1  N        -21.8540  -10.4620   17.4710 N.3   102  TYR102     -0.1227
      2  CA       -22.1390   -9.8390   16.1750 C.3   102  TYR102      0.1736
      3  C        -21.2650  -10.5070   15.1260 C.2   102  TYR102      0.2595
      4  O        -20.0200  -10.3880   15.1880 O.2   102  TYR102     -0.2718
      5  CB       -21.8020   -8.3340   16.1600 C.3   102  TYR102      0.0548
      6  CG       -22.8100   -7.3660   16.7460 C.ar  102  TYR102     -0.0200
      7  CD1      -23.8680   -7.7420   17.5560 C.ar  102  TYR102     -0.0009
      8  CD2      -22.6720   -6.0300   16.4370 C.ar  102  TYR102     -0.0009
      9  CE1      -24.7610   -6.7920   18.0450 C.ar  102  TYR102      0.0417
     10  CE2      -23.5340   -5.0730   16.9350 C.ar  102  TYR102      0.0417
     11  CZ       -24.5680   -5.4550   17.7530 C.ar  102  TYR102      0.1957
     12  OH       -25.4480   -4.4860   18.2300 O.3   102  TYR102     -0.2866
     13  N        -21.8660  -11.2380   14.2070 N.am  103  TRP103     -0.1962
     14  CA       -21.1150  -11.8890   13.1420 C.3   103  TRP103      0.1771
     15  C        -19.9820  -12.7700   13.6750 C.2   103  TRP103      0.2619
     16  O        -18.8240  -12.7070   13.2540 O.2   103  TRP103     -0.2715
     17  CB       -20.6320  -10.8700   12.1220 C.3   103  TRP103      0.0590
     18  CG       -21.7440  -10.2210   11.3810 C.ar  103  TRP103      0.0006
     19  CD1      -22.0850   -8.9150   11.3710 C.ar  103  TRP103      0.0946
     20  CD2      -22.6750  -10.8830   10.4850 C.ar  103  TRP103      0.0152
     21  NE1      -23.1570   -8.7080   10.5460 N.ar  103  TRP103     -0.2442
     22  CE2      -23.5450   -9.8860    9.9790 C.ar  103  TRP103      0.0810
     23  CE3      -22.8100  -12.1880   10.0540 C.ar  103  TRP103      0.0012
     24  CZ2      -24.5740  -10.1940    9.1030 C.ar  103  TRP103      0.0191
     25  CZ3      -23.8340  -12.4890    9.1650 C.ar  103  TRP103      0.0001
     26  CH2      -24.6780  -11.4750    8.6890 C.ar  103  TRP103      0.0015
     27  N        -20.3480  -13.6220   14.6560 N.am  104  PHE104     -0.1974
     28  CA       -19.4230  -14.5860   15.2210 C.3   104  PHE104      0.1639
     29  C        -18.2300  -13.9220   15.9120 C.2   104  PHE104      0.2290
     30  O        -17.2100  -14.5590   16.1110 O.2   104  PHE104     -0.2864
     31  CB       -18.8910  -15.5890   14.1700 C.3   104  PHE104      0.0560
     32  CG       -19.8170  -16.7460   13.8690 C.ar  104  PHE104     -0.0200
     33  CD1      -21.1810  -16.6160   13.7840 C.ar  104  PHE104     -0.0042
     34  CD2      -19.2770  -17.9850   13.6270 C.ar  104  PHE104     -0.0042
     35  CE1      -21.9850  -17.7000   13.4480 C.ar  104  PHE104     -0.0003
     36  CE2      -20.0690  -19.0590   13.2570 C.ar  104  PHE104     -0.0003
     37  CZ       -21.4250  -18.9170   13.1760 C.ar  104  PHE104     -0.0000
     38  N        -28.0900  -14.6090   19.5130 N.3   147  GLY147     -0.1210
     39  CA       -29.4200  -14.8460   18.9930 C.3   147  GLY147      0.1956
     40  C        -29.7210  -16.3010   18.7370 C.2   147  GLY147      0.2612
     41  O        -30.8140  -16.7560   18.9830 O.2   147  GLY147     -0.2717
     42  N        -28.7110  -16.9900   18.2230 N.am  148  GLY148     -0.1956
     43  CA       -28.8130  -18.4210   17.9340 C.3   148  GLY148      0.1869
     44  C        -28.8660  -19.2540   19.2060 C.2   148  GLY148      0.2309
     45  O        -28.3760  -18.8750   20.2580 O.2   148  GLY148     -0.2863
     46  N        -27.8780  -24.7880   17.8670 N.3   152  MET152     -0.1230
     47  CA       -27.3060  -24.3030   16.6080 C.3   152  MET152      0.1702
     48  C        -25.7760  -24.2210   16.6910 C.2   152  MET152      0.2592
     49  O        -25.0750  -24.4270   15.6990 O.2   152  MET152     -0.2718
     50  CB       -27.8490  -22.9420   16.2400 C.3   152  MET152      0.0401
     51  CG       -29.2990  -22.9480   15.8070 C.3   152  MET152      0.0596
     52  SD       -29.8010  -21.2120   15.6530 S.3   152  MET152     -0.1393
     53  CE       -31.5110  -21.3790   15.3540 C.3   152  MET152      0.0692
     54  N        -25.2890  -23.8890   17.8800 N.am  153  TYR153     -0.1976
     55  CA       -23.8660  -23.7630   18.1420 C.3   153  TYR153      0.1639
     56  C        -23.2680  -25.0490   18.7160 C.2   153  TYR153      0.2290
     57  O        -22.5650  -25.0740   19.7340 O.2   153  TYR153     -0.2864
     58  CB       -23.6000  -22.5600   19.0810 C.3   153  TYR153      0.0560
     59  CG       -23.6410  -21.2400   18.3760 C.ar  153  TYR153     -0.0198
     60  CD1      -22.6160  -20.8800   17.5400 C.ar  153  TYR153     -0.0009
     61  CD2      -24.6560  -20.3280   18.5780 C.ar  153  TYR153     -0.0009
     62  CE1      -22.6090  -19.6760   16.8550 C.ar  153  TYR153      0.0417
     63  CE2      -24.6490  -19.1160   17.8970 C.ar  153  TYR153      0.0417
     64  CZ       -23.6290  -18.7960   17.0590 C.ar  153  TYR153      0.1957
     65  OH       -23.6400  -17.6170   16.3790 O.3   153  TYR153     -0.2866
     66  N        -26.0080  -25.8300   12.6530 N.3   158  VAL158     -0.1231
     67  CA       -25.6860  -24.9990   11.4940 C.3   158  VAL158      0.1692
     68  C        -24.5330  -24.0250   11.7210 C.2   158  VAL158      0.2592
     69  O        -23.8350  -23.6400   10.7650 O.2   158  VAL158     -0.2718
     70  CB       -26.9000  -24.2510   10.9790 C.3   158  VAL158      0.0266
     71  CG1      -27.9580  -25.2620   10.4780 C.3   158  VAL158      0.0020
     72  CG2      -27.5110  -23.3430   12.0170 C.3   158  VAL158      0.0020
     73  N        -24.3130  -23.6550   12.9780 N.am  159  ASN159     -0.1974
     74  CA       -23.2630  -22.6730   13.2760 C.3   159  ASN159      0.1688
     75  C        -21.9560  -23.2430   13.7150 C.2   159  ASN159      0.2292
     76  O        -20.9820  -22.4800   13.8540 O.2   159  ASN159     -0.2864
     77  CB       -23.7540  -21.7140   14.3530 C.3   159  ASN159      0.1181
     78  CG       -24.9090  -20.8380   13.8970 C.2   159  ASN159      0.2629
     79  OD1      -25.0760  -20.5500   12.7440 O.2   159  ASN159     -0.2716
     80  ND2      -25.7080  -20.3930   14.8690 N.am  159  ASN159     -0.0877
     81  N        -33.6370  -13.7920   23.8160 N.3   191  GLU191     -0.1231
     82  CA       -34.9450  -13.3790   23.2300 C.3   191  GLU191      0.1699
     83  C        -35.9340  -14.5290   23.1780 C.2   191  GLU191      0.2592
     84  O        -37.1270  -14.3400   23.4530 O.2   191  GLU191     -0.2718
     85  CB       -34.7570  -12.8190   21.8390 C.3   191  GLU191      0.0402
     86  CG       -33.8630  -11.6020   21.7780 C.3   191  GLU191      0.1161
     87  CD       -32.4710  -11.9280   21.2430 C.2   191  GLU191      0.3649
     88  OE1      -31.8770  -13.0320   21.6560 O.co2 191  GLU191     -0.2457
     89  OE2      -31.9810  -11.1090   20.4430 O.co2 191  GLU191     -0.2457
     90  N        -35.4390  -15.7130   22.8790 N.am  192  ILE192     -0.1980
     91  CA       -36.2570  -16.9380   22.7810 C.3   192  ILE192      0.1595
     92  C        -36.6660  -17.4580   24.1610 C.2   192  ILE192      0.2287
     93  O        -37.7400  -18.0580   24.3310 O.2   192  ILE192     -0.2864
     94  CB       -35.4850  -18.0380   22.0240 C.3   192  ILE192      0.0276
     95  CG1      -35.3940  -17.6790   20.5400 C.3   192  ILE192      0.0022
     96  CG2      -36.1710  -19.4030   22.1970 C.3   192  ILE192      0.0022
     97  CD1      -34.4650  -18.6010   19.7350 C.3   192  ILE192      0.0001
@<TRIPOS>BOND
     1    26    24   ar
     2    26    25   ar
     3    24    22   ar
     4    25    23   ar
     5    22    20   ar
     6    22    21   ar
     7    23    20   ar
     8    71    70    1
     9    20    18   ar
    10    21    19   ar
    11    69    68    2
    12    70    67    1
    13    70    72    1
    14    19    18   ar
    15    18    17    1
    16    67    68    1
    17    67    66    1
    18    68    73   am
    19    17    14    1
    20    79    78    2
    21    73    74    1
    22    14    15    1
    23    14    13    1
    24    37    36   ar
    25    37    35   ar
    26    16    15    2
    27    36    34   ar
    28    74    75    1
    29    74    77    1
    30    35    33   ar
    31    34    32   ar
    32    15    27   am
    33    75    76    2
    34    33    32   ar
    35    32    31    1
    36    78    77    1
    37    78    80   am
    38    31    28    1
    39    13     3   am
    40    27    28    1
    41     3     4    2
    42     3     2    1
    43    28    29    1
    44    53    52    1
    45    52    51    1
    46    49    48    2
    47    51    50    1
    48    29    30    2
    49     5     2    1
    50     5     6    1
    51     2     1    1
    52    50    47    1
    53    65    64    1
    54     8     6   ar
    55     8    10   ar
    56    47    48    1
    57    47    46    1
    58    48    54   am
    59     6     7   ar
    60    62    64   ar
    61    62    60   ar
    62    10    11   ar
    63    64    63   ar
    64    60    59   ar
    65     7     9   ar
    66    11     9   ar
    67    11    12    1
    68    54    55    1
    69    63    61   ar
    70    43    42    1
    71    43    44    1
    72    55    56    1
    73    55    58    1
    74    42    40   am
    75    59    61   ar
    76    59    58    1
    77    56    57    2
    78    40    41    2
    79    40    39    1
    80    39    38    1
    81    44    45    2
    82    97    95    1
    83    89    87   ar
    84    95    94    1
    85    87    88   ar
    86    87    86    1
    87    86    85    1
    88    85    82    1
    89    94    96    1
    90    94    91    1
    91    91    90    1
    92    91    92    1
    93    90    83   am
    94    83    82    1
    95    83    84    2
    96    82    81    1
    97    92    93    2
