@<TRIPOS>MOLECULE
tmp/5lc0A00.pdb
 162 160 0 0 0
SMALL
GASTEIGER

@<TRIPOS>ATOM
      1  N         82.0120   57.3380  140.6450 N.3    34  SER34      -0.1202
      2  CA        81.7440   57.8870  141.9840 C.3    34  SER34       0.2020
      3  C         82.6300   57.2570  143.0830 C.2    34  SER34       0.2619
      4  O         82.7830   57.8270  144.1610 O.2    34  SER34      -0.2717
      5  CB        80.2620   57.7370  142.3360 C.3    34  SER34       0.2103
      6  OG        79.8730   58.7240  143.2600 O.3    34  SER34      -0.2182
      7  N         83.2040   56.0910  142.8040 N.am   35  GLY35      -0.1942
      8  CA        84.1760   55.4430  143.6870 C.3    35  GLY35       0.2014
      9  C         83.7280   54.0870  144.1790 C.2    35  GLY35       0.2638
     10  O         84.4920   53.3800  144.8260 O.2    35  GLY35      -0.2714
     11  N         82.5000   53.7090  143.8580 N.am   36  ASP36      -0.1971
     12  CA        81.8640   52.5990  144.5140 C.3    36  ASP36       0.1709
     13  C         82.2060   51.3940  143.7100 C.2    36  ASP36       0.2293
     14  O         81.8180   51.2760  142.5510 O.2    36  ASP36      -0.2864
     15  CB        80.3440   52.7980  144.6130 C.3    36  ASP36       0.1436
     16  CG        79.9920   54.1440  145.2200 C.2    36  ASP36       0.3671
     17  OD1       80.3470   54.3610  146.3960 O.co2  36  ASP36      -0.2456
     18  OD2       79.4350   55.0140  144.5260 O.co2  36  ASP36      -0.2456
     19  N         88.0410   59.6740  151.1210 N.3    76  TRP76      -0.1227
     20  CA        87.3120   60.8770  150.6770 C.3    76  TRP76       0.1737
     21  C         85.9000   60.8830  151.2780 C.2    76  TRP76       0.2595
     22  O         85.3900   61.9220  151.7210 O.2    76  TRP76      -0.2718
     23  CB        87.3020   61.0440  149.1210 C.3    76  TRP76       0.0564
     24  CG        86.1770   61.8760  148.7060 C.ar   76  TRP76       0.0003
     25  CD1       84.9140   61.4460  148.4540 C.ar   76  TRP76       0.0946
     26  CD2       86.1580   63.3180  148.6080 C.ar   76  TRP76       0.0152
     27  NE1       84.0940   62.5640  148.2170 N.ar   76  TRP76      -0.2442
     28  CE2       84.8620   63.7040  148.2910 C.ar   76  TRP76       0.0810
     29  CE3       87.1310   64.3080  148.7290 C.ar   76  TRP76       0.0012
     30  CZ2       84.5040   65.0320  148.1150 C.ar   76  TRP76       0.0191
     31  CZ3       86.7790   65.6480  148.5280 C.ar   76  TRP76       0.0001
     32  CH2       85.4750   65.9930  148.2370 C.ar   76  TRP76       0.0015
     33  N         85.2540   59.7290  151.3140 N.am   77  HIS77      -0.1975
     34  CA        83.9280   59.6700  151.9280 C.3    77  HIS77       0.1656
     35  C         83.9000   59.9890  153.4250 C.2    77  HIS77       0.2291
     36  O         82.8300   60.2580  153.9740 O.2    77  HIS77      -0.2864
     37  CB        83.2580   58.3250  151.6810 C.3    77  HIS77       0.0771
     38  CG        83.9510   57.1630  152.3150 C.ar   77  HIS77       0.0820
     39  ND1       84.4890   56.1280  151.5810 N.ar   77  HIS77      -0.2267
     40  CD2       84.1620   56.8510  153.6090 C.ar   77  HIS77       0.1154
     41  CE1       85.0020   55.2270  152.3950 C.ar   77  HIS77       0.1986
     42  NE2       84.8300   55.6480  153.6330 N.ar   77  HIS77      -0.2212
     43  N         85.1730   64.2280  152.7600 N.3    80  LYS80      -0.1245
     44  CA        84.8240   64.9260  151.5080 C.3    80  LYS80       0.1561
     45  C         85.4660   66.2920  151.5000 C.2    80  LYS80       0.2260
     46  O         84.7900   67.3040  151.3330 O.2    80  LYS80      -0.2867
     47  CB        83.3010   64.9970  151.2720 C.3    80  LYS80       0.0271
     48  CG        82.7030   63.6030  151.1710 C.3    80  LYS80       0.0035
     49  CD        81.2920   63.5240  150.5970 C.3    80  LYS80       0.0206
     50  CE        80.9310   62.0440  150.4900 C.3    80  LYS80       0.1093
     51  NZ        79.4990   61.7630  150.2080 N.3    80  LYS80      -0.1314
     52  N         87.5500   61.2270  144.1170 N.3    98  VAL98      -0.1245
     53  CA        86.4870   60.3810  144.6880 C.3    98  VAL98       0.1561
     54  C         86.4570   58.9650  144.1300 C.2    98  VAL98       0.2260
     55  O         86.0020   58.0510  144.8170 O.2    98  VAL98      -0.2867
     56  CB        85.0860   61.0160  144.5410 C.3    98  VAL98       0.0252
     57  CG1       85.0660   62.4190  145.1470 C.3    98  VAL98       0.0019
     58  CG2       84.6340   61.0440  143.0840 C.3    98  VAL98       0.0019
     59  N         88.9740   57.4740  145.9340 N.3   101  ASP101     -0.1239
     60  CA        88.2530   57.7260  147.1620 C.3   101  ASP101      0.1674
     61  C         89.2720   58.1190  148.2110 C.2   101  ASP101      0.2266
     62  O         89.4630   57.4290  149.2250 O.2   101  ASP101     -0.2867
     63  CB        87.3890   56.5460  147.6050 C.3   101  ASP101      0.1410
     64  CG        86.4710   56.9120  148.7380 C.2   101  ASP101      0.3668
     65  OD1       86.0320   58.0790  148.7970 O.co2 101  ASP101     -0.2456
     66  OD2       86.2040   56.0220  149.5600 O.co2 101  ASP101     -0.2456
     67  N         86.8650   42.2940  158.8830 N.3   155  ASP155     -0.1225
     68  CA        85.5820   42.9330  159.1430 C.3   155  ASP155      0.1805
     69  C         85.6230   43.7320  160.4550 C.2   155  ASP155      0.2598
     70  O         85.6660   43.1430  161.5470 O.2   155  ASP155     -0.2718
     71  CB        84.4570   41.8820  159.1790 C.3   155  ASP155      0.1424
     72  CG        83.0750   42.4780  158.9000 C.2   155  ASP155      0.3668
     73  OD1       82.9440   43.7150  158.9050 O.co2 155  ASP155     -0.2456
     74  OD2       82.1020   41.7120  158.6670 O.co2 155  ASP155     -0.2456
     75  N         85.5490   45.0610  160.3130 N.am  156  TYR156     -0.1963
     76  CA        85.7810   45.9960  161.3610 C.3   156  TYR156      0.1756
     77  C         84.6860   47.0680  161.3700 C.2   156  TYR156      0.2461
     78  O         84.1280   47.3870  160.3210 O.2   156  TYR156     -0.2730
     79  CB        87.1750   46.6370  161.1900 C.3   156  TYR156      0.0574
     80  CG        88.2300   45.8560  161.9250 C.ar  156  TYR156     -0.0198
     81  CD1       88.3370   45.9430  163.3070 C.ar  156  TYR156     -0.0009
     82  CD2       89.0870   44.9940  161.2640 C.ar  156  TYR156     -0.0009
     83  CE1       89.2680   45.2030  164.0040 C.ar  156  TYR156      0.0417
     84  CE2       90.0210   44.2360  161.9660 C.ar  156  TYR156      0.0417
     85  CZ        90.1080   44.3560  163.3430 C.ar  156  TYR156      0.1957
     86  OH        91.0430   43.6320  164.0780 O.3   156  TYR156     -0.2866
     87  N         84.3780   47.6230  162.5580 N.am  157  PRO157     -0.2716
     88  CA        83.2990   48.5820  162.6480 C.3   157  PRO157      0.1536
     89  C         83.3900   49.8140  161.7720 C.2   157  PRO157      0.2598
     90  O         84.4820   50.3320  161.4530 O.2   157  PRO157     -0.2715
     91  CB        83.3370   49.0240  164.1310 C.3   157  PRO157      0.0310
     92  CG        83.8590   47.8330  164.8590 C.3   157  PRO157      0.0237
     93  CD        84.6420   46.9950  163.8710 C.3   157  PRO157      0.0939
     94  N         82.2130   50.3070  161.4510 N.am  158  ALA158     -0.1964
     95  CA        82.0730   51.6160  160.9370 C.3   158  ALA158      0.1728
     96  C         82.8940   52.5490  161.7680 C.2   158  ALA158      0.2616
     97  O         82.7160   52.6210  162.9960 O.2   158  ALA158     -0.2715
     98  CB        80.6050   52.0230  160.9860 C.3   158  ALA158      0.0334
     99  N         83.8200   53.2330  161.1190 N.am  159  GLY159     -0.1955
    100  CA        84.5410   54.3840  161.7180 C.3   159  GLY159      0.1869
    101  C         86.0400   54.1550  161.7110 C.2   159  GLY159      0.2309
    102  O         86.8200   55.0690  161.8840 O.2   159  GLY159     -0.2863
    103  N         87.3420   53.3610  159.0030 N.3   161  SER161     -0.1217
    104  CA        87.7570   53.7520  157.6620 C.3   161  SER161      0.1889
    105  C         88.8670   54.7770  157.6990 C.2   161  SER161      0.2288
    106  O         88.8510   55.6870  158.5290 O.2   161  SER161     -0.2866
    107  CB        86.5830   54.2870  156.8620 C.3   161  SER161      0.2089
    108  OG        85.6500   53.2290  156.6160 O.3   161  SER161     -0.2183
    109  N         92.2750   51.5250  154.6360 N.3   176  TYR176     -0.1227
    110  CA        91.1400   50.5790  154.7930 C.3   176  TYR176      0.1736
    111  C         89.8690   51.3940  154.7550 C.2   176  TYR176      0.2596
    112  O         89.8660   52.5440  155.2190 O.2   176  TYR176     -0.2718
    113  CB        91.2440   49.8800  156.1570 C.3   176  TYR176      0.0548
    114  CG        90.1340   48.9040  156.5440 C.ar  176  TYR176     -0.0200
    115  CD1       88.9190   49.3420  156.9980 C.ar  176  TYR176     -0.0009
    116  CD2       90.3480   47.5480  156.5170 C.ar  176  TYR176     -0.0009
    117  CE1       87.9210   48.4650  157.3680 C.ar  176  TYR176      0.0417
    118  CE2       89.3530   46.6510  156.8890 C.ar  176  TYR176      0.0417
    119  CZ        88.1360   47.1250  157.3260 C.ar  176  TYR176      0.1957
    120  OH        87.1190   46.2280  157.6790 O.3   176  TYR176     -0.2866
    121  N         88.8020   50.8190  154.1960 N.am  177  GLY177     -0.1942
    122  CA        87.4670   51.4320  154.2450 C.3   177  GLY177      0.2014
    123  C         86.5830   51.4140  152.9970 C.2   177  GLY177      0.2639
    124  O         85.3690   51.6790  153.0990 O.2   177  GLY177     -0.2714
    125  N         87.1830   51.1590  151.8270 N.am  178  ASN178     -0.1958
    126  CA        86.4350   50.9660  150.5800 C.3   178  ASN178      0.1819
    127  C         86.5320   49.5160  150.1620 C.2   178  ASN178      0.2622
    128  O         87.6130   48.8920  150.2210 O.2   178  ASN178     -0.2715
    129  CB        86.9550   51.8750  149.4710 C.3   178  ASN178      0.1195
    130  CG        85.9250   52.1160  148.3690 C.2   178  ASN178      0.2630
    131  OD1       84.7210   51.8630  148.5290 O.2   178  ASN178     -0.2716
    132  ND2       86.3990   52.6410  147.2440 N.am  178  ASN178     -0.0877
    133  N         85.3960   48.9680  149.7640 N.am  179  GLY179     -0.1940
    134  CA        85.2690   47.5130  149.6310 C.3   179  GLY179      0.2014
    135  C         83.8260   47.1780  149.3550 C.2   179  GLY179      0.2639
    136  O         83.0240   48.0890  149.1990 O.2   179  GLY179     -0.2714
    137  N         83.5110   45.8870  149.2590 N.am  180  VAL180     -0.1963
    138  CA        82.1350   45.4110  149.0940 C.3   180  VAL180      0.1727
    139  C         82.0000   44.1490  149.9220 C.2   180  VAL180      0.2616
    140  O         83.0160   43.5780  150.3270 O.2   180  VAL180     -0.2715
    141  CB        81.7840   45.0540  147.6200 C.3   180  VAL180      0.0290
    142  CG1       80.2640   44.9370  147.4170 C.3   180  VAL180      0.0023
    143  CG2       82.3770   46.0660  146.6450 C.3   180  VAL180      0.0023
    144  N         80.7570   43.7220  150.1670 N.am  181  VAL181     -0.1977
    145  CA        80.4680   42.4800  150.8880 C.3   181  VAL181      0.1596
    146  C         80.2010   41.3120  149.9560 C.2   181  VAL181      0.2287
    147  O         79.4500   41.4460  148.9810 O.2   181  VAL181     -0.2864
    148  CB        79.2570   42.6010  151.8500 C.3   181  VAL181      0.0276
    149  CG1       79.4840   43.7190  152.8510 C.3   181  VAL181      0.0022
    150  CG2       77.9250   42.8010  151.1150 C.3   181  VAL181      0.0022
    151  N         82.4400   41.7080  155.0720 N.3   187  TYR187     -0.1241
    152  CA        83.1240   42.8090  154.3980 C.3   187  TYR187      0.1605
    153  C         84.4920   42.3570  153.9140 C.2   187  TYR187      0.2264
    154  O         85.0580   41.4100  154.4660 O.2   187  TYR187     -0.2867
    155  CB        83.2900   43.9590  155.3520 C.3   187  TYR187      0.0534
    156  CG        83.7220   45.2320  154.7060 C.ar  187  TYR187     -0.0201
    157  CD1       82.8420   45.9730  153.9220 C.ar  187  TYR187     -0.0009
    158  CD2       85.0080   45.7430  154.9130 C.ar  187  TYR187     -0.0009
    159  CE1       83.2440   47.1830  153.3550 C.ar  187  TYR187      0.0417
    160  CE2       85.3900   46.9450  154.3520 C.ar  187  TYR187      0.0417
    161  CZ        84.5010   47.6560  153.5630 C.ar  187  TYR187      0.1957
    162  OH        84.8920   48.8510  153.0010 O.3   187  TYR187     -0.2866
@<TRIPOS>BOND
     1     1     2    1
     2     2     5    1
     3     2     3    1
     4     5     6    1
     5    14    13    2
     6     7     3   am
     7     7     8    1
     8     3     4    2
     9    58    56    1
    10     8     9    1
    11    13    12    1
    12    11     9   am
    13    11    12    1
    14    52    53    1
    15    54    53    1
    16    54    55    2
    17     9    10    2
    18    12    15    1
    19    18    16   ar
    20    56    53    1
    21    56    57    1
    22    15    16    1
    23    16    17   ar
    24    59    60    1
    25   143   141    1
    26    60    63    1
    27    60    61    1
    28   132   130   am
    29   142   141    1
    30    63    64    1
    31   141   138    1
    32    30    32   ar
    33    30    28   ar
    34    61    62    2
    35    27    28   ar
    36    27    25   ar
    37    32    31   ar
    38    28    26   ar
    39   130   131    2
    40   130   129    1
    41    25    24   ar
    42    31    29   ar
    43    26    24   ar
    44    26    29   ar
    45    24    23    1
    46    64    65   ar
    47    64    66   ar
    48   147   146    2
    49   138   137    1
    50   138   139    1
    51    23    20    1
    52   136   135    2
    53   137   135   am
    54   135   134    1
    55   129   126    1
    56   134   133    1
    57   133   127   am
    58   139   144   am
    59   139   140    2
    60   146   145    1
    61   127   128    2
    62   127   126    1
    63   144   145    1
    64    51    50    1
    65    50    49    1
    66   126   125    1
    67    49    48    1
    68    20    19    1
    69    20    21    1
    70   145   148    1
    71   150   148    1
    72    48    47    1
    73    47    44    1
    74    21    33   am
    75    21    22    2
    76    33    34    1
    77    46    45    2
    78    45    44    1
    79    44    43    1
    80    39    38   ar
    81    39    41   ar
    82    37    34    1
    83    37    38    1
    84   125   123   am
    85   148   149    1
    86    34    35    1
    87    38    40   ar
    88    41    42   ar
    89   123   124    2
    90   123   122    1
    91   162   161    1
    92   159   161   ar
    93   159   157   ar
    94    35    36    2
    95   161   160   ar
    96    40    42   ar
    97   153   152    1
    98   153   154    2
    99   157   156   ar
   100   121   122    1
   101   121   111   am
   102   160   158   ar
   103   152   151    1
   104   152   155    1
   105   109   110    1
   106   156   158   ar
   107   156   155    1
   108   111   110    1
   109   111   112    2
   110   110   113    1
   111   113   114    1
   112   116   114   ar
   113   116   118   ar
   114   114   115   ar
   115   108   107    1
   116   107   104    1
   117   118   119   ar
   118   115   117   ar
   119   119   117   ar
   120   119   120    1
   121   104   105    1
   122   104   103    1
   123   105   106    2
   124    74    72   ar
   125    67    68    1
   126    72    73   ar
   127    72    71    1
   128    68    71    1
   129    68    69    1
   130    75    69   am
   131    75    76    1
   132    78    77    2
   133    69    70    2
   134    95    98    1
   135    95    94    1
   136    95    96    1
   137    99   100    1
   138    99    96   am
   139    79    76    1
   140    79    80    1
   141    82    80   ar
   142    82    84   ar
   143    76    77    1
   144    77    87   am
   145    94    89   am
   146    90    89    2
   147   101   100    1
   148   101   102    2
   149    96    97    2
   150    89    88    1
   151    80    81   ar
   152    84    85   ar
   153    87    88    1
   154    87    93    1
   155    88    91    1
   156    81    83   ar
   157    85    83   ar
   158    85    86    1
   159    93    92    1
   160    91    92    1
