@<TRIPOS>MOLECULE
tmp/5lc8A01.pdb
 79 75 0 0 0
SMALL
GASTEIGER

@<TRIPOS>ATOM
      1  N         26.7990   34.7890  -19.1130 N.3   590  ARG590     -0.1231
      2  CA        25.7940   35.6940  -18.5280 C.3   590  ARG590      0.1694
      3  C         25.3730   36.7410  -19.5430 C.2   590  ARG590      0.2592
      4  O         26.2180   37.3390  -20.2130 O.2   590  ARG590     -0.2718
      5  CB        26.3390   36.4110  -17.2880 C.3   590  ARG590      0.0321
      6  CG        26.6530   35.5160  -16.0990 C.3   590  ARG590      0.0489
      7  CD        25.4090   34.8630  -15.4920 C.3   590  ARG590      0.2205
      8  NE        25.7380   34.1390  -14.2630 N.pl3 590  ARG590     -0.0865
      9  CZ        26.3650   32.9620  -14.2080 C.cat 590  ARG590      0.5346
     10  NH1       26.7520   32.3300  -15.3130 N.pl3 590  ARG590      0.1354
     11  NH2       26.6110   32.4120  -13.0280 N.pl3 590  ARG590      0.1354
     12  N         24.0610   36.9660  -19.6490 N.am  591  LEU591     -0.1966
     13  CA        23.5450   37.9670  -20.5540 C.3   591  LEU591      0.1728
     14  C         24.1380   39.3430  -20.2130 C.2   591  LEU591      0.2617
     15  O         24.1150   39.7700  -19.0540 O.2   591  LEU591     -0.2715
     16  CB        22.0280   38.0330  -20.4520 C.3   591  LEU591      0.0311
     17  CG        21.3430   39.0780  -21.3280 C.3   591  LEU591      0.0022
     18  CD1       21.4780   38.7540  -22.8120 C.3   591  LEU591      0.0001
     19  CD2       19.8870   39.1730  -20.9120 C.3   591  LEU591      0.0001
     20  N         24.6750   40.0160  -21.2250 N.am  592  GLY592     -0.1940
     21  CA        25.2410   41.3570  -21.0550 C.3   592  GLY592      0.2014
     22  C         26.7310   41.4080  -20.7670 C.2   592  GLY592      0.2638
     23  O         27.3550   42.4620  -20.9420 O.2   592  GLY592     -0.2714
     24  N         27.3160   40.2900  -20.3300 N.am  593  ASP593     -0.1971
     25  CA        28.7560   40.2470  -20.0400 C.3   593  ASP593      0.1709
     26  C         29.5910   40.5170  -21.3120 C.2   593  ASP593      0.2293
     27  O         30.4910   41.3670  -21.3130 O.2   593  ASP593     -0.2864
     28  CB        29.1290   38.8990  -19.4050 C.3   593  ASP593      0.1436
     29  CG        30.5540   38.8670  -18.8740 C.2   593  ASP593      0.3671
     30  OD1       30.8020   39.3780  -17.7620 O.co2 593  ASP593     -0.2456
     31  OD2       31.4330   38.3140  -19.5600 O.co2 593  ASP593     -0.2456
     32  N         24.4980   47.0320  -20.1300 N.3   621  GLN621     -0.1245
     33  CA        24.9600   46.4550  -18.8660 C.3   621  GLN621      0.1566
     34  C         24.4010   47.1940  -17.6620 C.2   621  GLN621      0.2260
     35  O         23.9530   46.5720  -16.6930 O.2   621  GLN621     -0.2867
     36  CB        26.4820   46.4290  -18.8130 C.3   621  GLN621      0.0367
     37  CG        27.0830   45.5080  -19.8610 C.3   621  GLN621      0.0905
     38  CD        28.5880   45.5970  -19.9580 C.2   621  GLN621      0.2608
     39  OE1       29.1830   46.6120  -19.6150 O.2   621  GLN621     -0.2717
     40  NE2       29.2130   44.5260  -20.4390 N.am  621  GLN621     -0.0878
     41  N         20.6790   46.3580  -17.2930 N.3   624  LEU624     -0.1231
     42  CA        20.5120   45.0510  -16.6630 C.3   624  LEU624      0.1693
     43  C         20.7390   45.1110  -15.1520 C.2   624  LEU624      0.2591
     44  O         20.0750   44.4110  -14.4000 O.2   624  LEU624     -0.2718
     45  CB        21.4540   44.0330  -17.3000 C.3   624  LEU624      0.0284
     46  CG        21.1230   43.6590  -18.7470 C.3   624  LEU624      0.0019
     47  CD1       22.2060   42.7390  -19.2780 C.3   624  LEU624      0.0001
     48  CD2       19.7430   43.0040  -18.8630 C.3   624  LEU624      0.0001
     49  N         21.6620   45.9580  -14.7020 N.am  625  LYS625     -0.1980
     50  CA        21.8940   46.1080  -13.2670 C.3   625  LYS625      0.1596
     51  C         20.7050   46.7930  -12.5700 C.2   625  LYS625      0.2287
     52  O         20.3690   46.4360  -11.4380 O.2   625  LYS625     -0.2864
     53  CB        23.2250   46.8210  -13.0020 C.3   625  LYS625      0.0298
     54  CG        24.4280   45.9370  -13.3210 C.3   625  LYS625      0.0038
     55  CD        25.7390   46.7090  -13.2670 C.3   625  LYS625      0.0206
     56  CE        26.9430   45.7800  -13.1510 C.3   625  LYS625      0.1093
     57  NZ        26.8890   44.6310  -14.0990 N.3   625  LYS625     -0.1314
     58  N         17.9870   44.1110  -12.3910 N.3   628  GLU628     -0.1245
     59  CA        18.3380   43.2500  -11.2370 C.3   628  GLU628      0.1567
     60  C         17.8220   43.8410   -9.9240 C.2   628  GLU628      0.2260
     61  O         17.1480   43.1490   -9.1540 O.2   628  GLU628     -0.2867
     62  CB        19.8620   43.0440  -11.1520 C.3   628  GLU628      0.0388
     63  CG        20.3390   42.0870  -10.0520 C.3   628  GLU628      0.1160
     64  CD        20.5340   40.6460  -10.5100 C.2   628  GLU628      0.3649
     65  OE1       20.4520   40.3620  -11.7320 O.co2 628  GLU628     -0.2457
     66  OE2       20.7860   39.7830   -9.6300 O.co2 628  GLU628     -0.2457
     67  N         18.8700   39.1070  -14.1660 N.3   647  PRO647     -0.2102
     68  CA        19.9720   39.0210  -15.1420 C.3   647  PRO647      0.1504
     69  C         21.2300   38.2620  -14.6670 C.2   647  PRO647      0.2576
     70  O         21.8780   37.5960  -15.4690 O.2   647  PRO647     -0.2718
     71  CB        20.2830   40.4810  -15.4290 C.3   647  PRO647      0.0282
     72  CG        18.9490   41.1530  -15.3010 C.3   647  PRO647      0.0208
     73  CD        18.2510   40.4430  -14.1650 C.3   647  PRO647      0.0893
     74  N         21.5410   38.3240  -13.3740 N.am  648  SER648     -0.1953
     75  CA        22.6790   37.5900  -12.8250 C.3   648  SER648      0.1924
     76  C         22.5540   36.0710  -12.9930 C.2   648  SER648      0.2314
     77  O         23.5400   35.3610  -12.8560 O.2   648  SER648     -0.2863
     78  CB        22.8890   37.9260  -11.3420 C.3   648  SER648      0.2116
     79  OG        21.7730   37.5540  -10.5540 O.3   648  SER648     -0.2180
@<TRIPOS>BOND
     1    18    17    1
     2    17    19    1
     3    17    16    1
     4    27    26    2
     5    26    25    1
     6    20    21    1
     7    20    14   am
     8    21    22    1
     9    23    22    2
    10    22    24   am
    11    13    16    1
    12    13    14    1
    13    13    12    1
    14    40    38   am
    15    24    25    1
    16     4     3    2
    17    14    15    2
    18    32    33    1
    19    25    28    1
    20    38    37    1
    21    38    39    2
    22    37    36    1
    23    12     3   am
    24    31    29   ar
    25     3     2    1
    26    28    29    1
    27    47    46    1
    28     1     2    1
    29    29    30   ar
    30    33    36    1
    31    33    34    1
    32    48    46    1
    33    46    45    1
    34     2     5    1
    35    34    35    2
    36    45    42    1
    37    41    42    1
    38     5     6    1
    39    42    43    1
    40     6     7    1
    41     7     8    1
    42    70    69    2
    43    71    72    1
    44    71    68    1
    45    10     9    1
    46    72    73    1
    47    43    49   am
    48    43    44    2
    49    68    69    1
    50    68    67    1
    51    49    50    1
    52    69    74   am
    53     8     9    2
    54     9    11    1
    55    67    73    1
    56    57    56    1
    57    74    75    1
    58    54    55    1
    59    54    53    1
    60    50    53    1
    61    50    51    1
    62    55    56    1
    63    76    77    2
    64    76    75    1
    65    75    78    1
    66    51    52    2
    67    58    59    1
    68    65    64   ar
    69    78    79    1
    70    59    62    1
    71    59    60    1
    72    62    63    1
    73    64    63    1
    74    64    66   ar
    75    60    61    2
