@<TRIPOS>MOLECULE
tmp/5lcaA00.pdb
 164 162 0 0 0
SMALL
GASTEIGER

@<TRIPOS>ATOM
      1  N         -5.8060   32.8640  -14.0000 N.3    24  PHE24      -0.1241
      2  CA        -5.7910   32.5480  -15.4220 C.3    24  PHE24       0.1605
      3  C         -6.6500   33.5740  -16.1370 C.2    24  PHE24       0.2264
      4  O         -7.8400   33.7130  -15.8350 O.2    24  PHE24      -0.2867
      5  CB        -6.2960   31.1270  -15.6850 C.3    24  PHE24       0.0534
      6  CG        -6.5080   30.8130  -17.1410 C.ar   24  PHE24      -0.0203
      7  CD1       -5.4350   30.7050  -18.0060 C.ar   24  PHE24      -0.0042
      8  CD2       -7.7840   30.6190  -17.6370 C.ar   24  PHE24      -0.0042
      9  CE1       -5.6320   30.4160  -19.3500 C.ar   24  PHE24      -0.0003
     10  CE2       -7.9900   30.3300  -18.9740 C.ar   24  PHE24      -0.0003
     11  CZ        -6.9110   30.2280  -19.8320 C.ar   24  PHE24      -0.0000
     12  N         -9.0910   30.3550  -10.8340 N.3    29  TYR29      -0.1228
     13  CA        -9.7520   29.1150  -11.1930 C.3    29  TYR29       0.1721
     14  C         -9.1570   27.9640  -10.4020 C.2    29  TYR29       0.2437
     15  O         -7.9770   28.0000  -10.0380 O.2    29  TYR29      -0.2733
     16  CB        -9.6030   28.7930  -12.6880 C.3    29  TYR29       0.0547
     17  CG       -10.3880   29.6880  -13.6000 C.ar   29  TYR29      -0.0200
     18  CD1       -9.8540   30.8860  -14.0460 C.ar   29  TYR29      -0.0009
     19  CD2      -11.6620   29.3360  -14.0220 C.ar   29  TYR29      -0.0009
     20  CE1      -10.5650   31.7160  -14.8790 C.ar   29  TYR29       0.0417
     21  CE2      -12.3840   30.1630  -14.8620 C.ar   29  TYR29       0.0417
     22  CZ       -11.8290   31.3490  -15.2870 C.ar   29  TYR29       0.1957
     23  OH       -12.5350   32.1750  -16.1260 O.3    29  TYR29      -0.2866
     24  N         -9.9420   26.9230  -10.1470 N.am   30  PRO30      -0.2729
     25  CA        -9.3990   25.6950   -9.5730 C.3    30  PRO30       0.1401
     26  C         -8.8980   24.7620  -10.6670 C.2    30  PRO30       0.2269
     27  O         -9.2800   24.8670  -11.8340 O.2    30  PRO30      -0.2865
     28  CB       -10.6190   25.0970   -8.8640 C.3    30  PRO30       0.0296
     29  CG       -11.7420   25.4370   -9.8070 C.3    30  PRO30       0.0237
     30  CD       -11.3910   26.8000  -10.3970 C.3    30  PRO30       0.0939
     31  N         -0.2370   23.6840  -11.2980 N.3    49  TRP49      -0.1241
     32  CA        -0.4280   24.9310  -12.0350 C.3    49  TRP49       0.1605
     33  C          0.5430   26.0130  -11.5780 C.2    49  TRP49       0.2264
     34  O          0.1310   27.0330  -11.0150 O.2    49  TRP49      -0.2867
     35  CB        -1.8740   25.4210  -11.8920 C.3    49  TRP49       0.0550
     36  CG        -2.3100   26.3230  -13.0150 C.ar   49  TRP49       0.0003
     37  CD1       -1.5110   26.9190  -13.9560 C.ar   49  TRP49       0.0946
     38  CD2       -3.6510   26.7170  -13.3240 C.ar   49  TRP49       0.0152
     39  NE1       -2.2760   27.6580  -14.8250 N.ar   49  TRP49      -0.2442
     40  CE2       -3.5930   27.5500  -14.4570 C.ar   49  TRP49       0.0810
     41  CE3       -4.8970   26.4440  -12.7500 C.ar   49  TRP49       0.0012
     42  CZ2       -4.7330   28.1120  -15.0280 C.ar   49  TRP49       0.0191
     43  CZ3       -6.0290   27.0050  -13.3190 C.ar   49  TRP49       0.0001
     44  CH2       -5.9380   27.8290  -14.4440 C.ar   49  TRP49       0.0015
     45  N         -0.2900   19.8370  -22.8240 N.3    77  PHE77      -0.1227
     46  CA         0.8040   20.8060  -22.8260 C.3    77  PHE77       0.1736
     47  C          0.4710   22.1280  -22.1460 C.2    77  PHE77       0.2595
     48  O          1.3700   22.9650  -21.9890 O.2    77  PHE77      -0.2718
     49  CB         1.2720   21.0890  -24.2670 C.3    77  PHE77       0.0547
     50  CG         0.3160   21.9250  -25.0830 C.ar   77  PHE77      -0.0202
     51  CD1       -0.7690   21.3450  -25.7110 C.ar   77  PHE77      -0.0042
     52  CD2        0.5280   23.2870  -25.2470 C.ar   77  PHE77      -0.0042
     53  CE1       -1.6430   22.1100  -26.4720 C.ar   77  PHE77      -0.0003
     54  CE2       -0.3410   24.0610  -26.0110 C.ar   77  PHE77      -0.0003
     55  CZ        -1.4280   23.4680  -26.6250 C.ar   77  PHE77      -0.0000
     56  N         -0.7730   22.3440  -21.7360 N.am   78  HIS78      -0.1961
     57  CA        -1.1330   23.6040  -21.1060 C.3    78  HIS78       0.1787
     58  C         -0.4280   23.7760  -19.7630 C.2    78  HIS78       0.2620
     59  O         -0.0660   22.8080  -19.0860 O.2    78  HIS78      -0.2715
     60  CB        -2.6440   23.6920  -20.9210 C.3    78  HIS78       0.0785
     61  CG        -3.3910   23.9490  -22.1930 C.ar   78  HIS78       0.0821
     62  ND1       -4.7390   23.6970  -22.3250 N.ar   78  HIS78      -0.2267
     63  CD2       -2.9830   24.4400  -23.3870 C.ar   78  HIS78       0.1154
     64  CE1       -5.1300   24.0210  -23.5440 C.ar   78  HIS78       0.1986
     65  NE2       -4.0850   24.4820  -24.2070 N.ar   78  HIS78      -0.2212
     66  N         -0.2570   25.0410  -19.3760 N.am   79  ASP79      -0.1957
     67  CA         0.5450   25.3850  -18.2070 C.3    79  ASP79       0.1840
     68  C         -0.0490   24.8490  -16.9080 C.2    79  ASP79       0.2622
     69  O          0.6890   24.6650  -15.9320 O.2    79  ASP79      -0.2715
     70  CB         0.7080   26.9050  -18.1480 C.3    79  ASP79       0.1450
     71  CG         1.5190   27.3630  -16.9660 C.2    79  ASP79       0.3671
     72  OD1        2.7310   27.0580  -16.9270 O.co2  79  ASP79      -0.2456
     73  OD2        0.9480   28.0520  -16.0900 O.co2  79  ASP79      -0.2456
     74  N         -1.3550   24.5830  -16.8630 N.am   80  ASP80      -0.1971
     75  CA        -1.9230   23.9900  -15.6570 C.3    80  ASP80       0.1709
     76  C         -1.5690   22.5170  -15.5160 C.2    80  ASP80       0.2293
     77  O         -1.7910   21.9450  -14.4430 O.2    80  ASP80      -0.2864
     78  CB        -3.4490   24.1820  -15.6140 C.3    80  ASP80       0.1436
     79  CG        -4.1740   23.5830  -16.8160 C.2    80  ASP80       0.3671
     80  OD1       -3.7450   23.8070  -17.9690 O.co2  80  ASP80      -0.2456
     81  OD2       -5.2050   22.9100  -16.6010 O.co2  80  ASP80      -0.2456
     82  N          5.1290   26.4270  -27.0710 N.3   108  GLU108     -0.1245
     83  CA         4.5200   27.4780  -26.2620 C.3   108  GLU108      0.1567
     84  C          5.5260   28.1930  -25.3780 C.2   108  GLU108      0.2260
     85  O          5.2340   29.2930  -24.8970 O.2   108  GLU108     -0.2867
     86  CB         3.4200   26.8970  -25.3720 C.3   108  GLU108      0.0388
     87  CG         2.2290   26.3570  -26.1210 C.3   108  GLU108      0.1160
     88  CD         1.5450   27.4150  -26.9580 C.2   108  GLU108      0.3649
     89  OE1        1.6880   27.3810  -28.1990 O.co2 108  GLU108     -0.2457
     90  OE2        0.8750   28.2890  -26.3710 O.co2 108  GLU108     -0.2457
     91  N        -10.2240   18.4880  -25.7960 N.3   141  HIS141     -0.1241
     92  CA        -9.8140   19.7940  -25.2750 C.3   141  HIS141      0.1621
     93  C         -8.5100   20.2480  -25.9250 C.2   141  HIS141      0.2264
     94  O         -8.3240   21.4380  -26.2140 O.2   141  HIS141     -0.2867
     95  CB        -9.6920   19.6880  -23.7460 C.3   141  HIS141      0.0745
     96  CG        -8.9870   20.8360  -23.0800 C.ar  141  HIS141      0.0817
     97  ND1       -9.6250   22.0120  -22.7430 N.ar  141  HIS141     -0.2268
     98  CD2       -7.7150   20.9570  -22.6270 C.ar  141  HIS141      0.1154
     99  CE1       -8.7690   22.8180  -22.1390 C.ar  141  HIS141      0.1986
    100  NE2       -7.6030   22.2010  -22.0530 N.ar  141  HIS141     -0.2212
    101  N         -8.6320   17.7070  -18.6010 N.3   160  CYS160     -0.1235
    102  CA        -9.3780   18.8610  -19.0820 C.3   160  CYS160      0.1677
    103  C        -10.2100   18.5530  -20.3220 C.2   160  CYS160      0.2270
    104  O        -10.9500   19.4280  -20.7850 O.2   160  CYS160     -0.2867
    105  CB        -8.4070   20.0140  -19.3240 C.3   160  CYS160      0.0956
    106  SG        -7.3720   20.3180  -17.8380 S.3   160  CYS160     -0.0801
    107  N        -15.5180   17.9640  -18.5600 N.3   163  TYR163     -0.1241
    108  CA       -16.0530   19.1150  -17.8480 C.3   163  TYR163      0.1605
    109  C        -16.8060   18.6870  -16.5900 C.2   163  TYR163      0.2264
    110  O        -17.3720   17.5910  -16.5230 O.2   163  TYR163     -0.2867
    111  CB       -17.0110   19.9050  -18.7460 C.3   163  TYR163      0.0534
    112  CG       -16.3740   20.7450  -19.8350 C.ar  163  TYR163     -0.0201
    113  CD1      -15.0610   21.1980  -19.7340 C.ar  163  TYR163     -0.0009
    114  CD2      -17.1050   21.1110  -20.9570 C.ar  163  TYR163     -0.0009
    115  CE1      -14.4950   21.9810  -20.7350 C.ar  163  TYR163      0.0417
    116  CE2      -16.5490   21.8900  -21.9590 C.ar  163  TYR163      0.0417
    117  CZ       -15.2490   22.3210  -21.8440 C.ar  163  TYR163      0.1957
    118  OH       -14.7100   23.1040  -22.8380 O.3   163  TYR163     -0.2866
    119  N        -20.8380   23.1760  -15.3690 N.3   167  ARG167     -0.1245
    120  CA       -20.5320   23.9380  -16.5700 C.3   167  ARG167      0.1563
    121  C        -21.6130   23.7000  -17.6160 C.2   167  ARG167      0.2260
    122  O        -21.9650   22.5540  -17.9110 O.2   167  ARG167     -0.2867
    123  CB       -19.1580   23.5490  -17.1110 C.3   167  ARG167      0.0307
    124  CG       -18.8130   24.2020  -18.4350 C.3   167  ARG167      0.0489
    125  CD       -17.3290   24.1000  -18.7280 C.3   167  ARG167      0.2205
    126  NE       -16.5610   25.0590  -17.9390 N.pl3 167  ARG167     -0.0865
    127  CZ       -16.4350   26.3490  -18.2390 C.cat 167  ARG167      0.5346
    128  NH1      -17.0290   26.8530  -19.3150 N.pl3 167  ARG167      0.1354
    129  NH2      -15.7150   27.1420  -17.4570 N.pl3 167  ARG167      0.1354
    130  N        -15.7990   25.8850  -22.6810 N.3   171  GLY171     -0.1210
    131  CA       -14.8270   26.8170  -22.1480 C.3   171  GLY171      0.1956
    132  C        -13.8320   27.2440  -23.2030 C.2   171  GLY171      0.2611
    133  O        -14.2200   27.6470  -24.3030 O.2   171  GLY171     -0.2717
    134  N        -12.5430   27.1540  -22.8810 N.am  172  ASN172     -0.1974
    135  CA       -11.4970   27.4990  -23.8350 C.3   172  ASN172      0.1688
    136  C        -11.3950   26.4140  -24.9010 C.2   172  ASN172      0.2292
    137  O        -11.1220   25.2510  -24.5870 O.2   172  ASN172     -0.2864
    138  CB       -10.1660   27.6660  -23.1090 C.3   172  ASN172      0.1181
    139  CG        -9.0920   28.2630  -23.9920 C.2   172  ASN172      0.2629
    140  OD1       -9.0020   27.9510  -25.1800 O.2   172  ASN172     -0.2716
    141  ND2       -8.2700   29.1300  -23.4150 N.am  172  ASN172     -0.0877
    142  N         -9.5900   27.1310  -27.9330 N.3   174  ALA174     -0.1231
    143  CA        -8.5690   27.5780  -28.8740 C.3   174  ALA174      0.1694
    144  C         -7.7400   26.4100  -29.4000 C.2   174  ALA174      0.2592
    145  O         -7.3570   26.3910  -30.5750 O.2   174  ALA174     -0.2718
    146  CB        -7.6670   28.6130  -28.2030 C.3   174  ALA174      0.0304
    147  N         -7.4570   25.4250  -28.5500 N.am  175  ASP175     -0.1974
    148  CA        -6.6220   24.2910  -28.9210 C.3   175  ASP175      0.1709
    149  C         -7.4290   23.0180  -29.1460 C.2   175  ASP175      0.2293
    150  O         -6.8430   21.9510  -29.3510 O.2   175  ASP175     -0.2864
    151  CB        -5.5600   24.0590  -27.8420 C.3   175  ASP175      0.1436
    152  CG        -4.5710   25.2040  -27.7480 C.2   175  ASP175      0.3671
    153  OD1       -4.1620   25.7080  -28.8100 O.co2 175  ASP175     -0.2456
    154  OD2       -4.2080   25.6120  -26.6240 O.co2 175  ASP175     -0.2456
    155  N        -10.9530   20.6750  -14.2150 N.3   202  HIS202     -0.1241
    156  CA       -11.2800   21.8540  -13.4300 C.3   202  HIS202      0.1621
    157  C        -12.6750   21.6730  -12.8520 C.2   202  HIS202      0.2264
    158  O        -13.6180   21.3930  -13.5910 O.2   202  HIS202     -0.2867
    159  CB       -11.2130   23.1180  -14.2940 C.3   202  HIS202      0.0745
    160  CG        -9.8950   23.3110  -14.9820 C.ar  202  HIS202      0.0817
    161  ND1       -8.8150   23.9050  -14.3650 N.ar  202  HIS202     -0.2268
    162  CD2       -9.4830   22.9920  -16.2330 C.ar  202  HIS202      0.1154
    163  CE1       -7.7950   23.9430  -15.2060 C.ar  202  HIS202      0.1986
    164  NE2       -8.1730   23.3930  -16.3460 N.ar  202  HIS202     -0.2212
@<TRIPOS>BOND
     1   145   144    2
     2   144   143    1
     3   144   147   am
     4   150   149    2
     5   149   148    1
     6   148   147    1
     7   148   151    1
     8   143   146    1
     9   143   142    1
    10   153   152   ar
    11    89    88   ar
    12   151   152    1
    13   152   154   ar
    14    82    83    1
    15    88    90   ar
    16    88    87    1
    17    55    53   ar
    18    55    54   ar
    19    53    51   ar
    20    83    84    1
    21    83    86    1
    22    94    93    2
    23    87    86    1
    24    54    52   ar
    25    93    92    1
    26    91    92    1
    27    51    50   ar
    28    84    85    2
    29    92    95    1
    30    52    50   ar
    31   140   139    2
    32    50    49    1
    33   136   137    2
    34   136   135    1
    35   133   132    2
    36    49    46    1
    37    65    64   ar
    38    65    63   ar
    39   139   141   am
    40   139   138    1
    41   135   138    1
    42   135   134    1
    43    95    96    1
    44    64    62   ar
    45    63    61   ar
    46   132   134   am
    47   132   131    1
    48    96    97   ar
    49    96    98   ar
    50   118   117    1
    51    46    45    1
    52    46    47    1
    53    97    99   ar
    54   130   131    1
    55    98   100   ar
    56    62    61   ar
    57    61    60    1
    58    47    48    2
    59    47    56   am
    60    99   100   ar
    61   116   117   ar
    62   116   114   ar
    63   117   115   ar
    64    56    57    1
    65    57    60    1
    66    57    58    1
    67   114   112   ar
    68   104   103    2
    69   115   113   ar
    70   103   102    1
    71   112   113   ar
    72   112   111    1
    73    11     9   ar
    74    11    10   ar
    75    58    66   am
    76    58    59    2
    77    66    67    1
    78     9     7   ar
    79   105   102    1
    80   105   106    1
    81   128   127    1
    82   102   101    1
    83    10     8   ar
    84   111   108    1
    85   125   124    1
    86   125   126    1
    87   107   108    1
    88   124   123    1
    89   127   126    2
    90   127   129    1
    91    67    70    1
    92    67    68    1
    93    70    71    1
    94     7     6   ar
    95    80    79   ar
    96   122   121    2
    97   108   109    1
    98     8     6   ar
    99   121   120    1
   100     6     5    1
   101   123   120    1
   102    71    72   ar
   103    71    73   ar
   104    68    74   am
   105    68    69    2
   106    74    75    1
   107    79    81   ar
   108    79    78    1
   109   109   110    2
   110   120   119    1
   111   164   162   ar
   112   164   163   ar
   113   162   160   ar
   114     3     4    2
   115     3     2    1
   116    23    22    1
   117     5     2    1
   118    75    78    1
   119    75    76    1
   120    76    77    2
   121     2     1    1
   122    22    20   ar
   123    22    21   ar
   124   163   161   ar
   125    42    40   ar
   126    42    44   ar
   127   160   161   ar
   128   160   159    1
   129    20    18   ar
   130    21    19   ar
   131    39    40   ar
   132    39    37   ar
   133    40    38   ar
   134    44    43   ar
   135   159   156    1
   136   155   156    1
   137    18    17   ar
   138    19    17   ar
   139    37    36   ar
   140    17    16    1
   141   158   157    2
   142   156   157    1
   143    38    36   ar
   144    38    41   ar
   145    43    41   ar
   146    36    35    1
   147    16    13    1
   148    32    35    1
   149    32    33    1
   150    32    31    1
   151    27    26    2
   152    33    34    2
   153    13    12    1
   154    13    14    1
   155    26    25    1
   156    14    24   am
   157    14    15    2
   158    30    24    1
   159    30    29    1
   160    24    25    1
   161    29    28    1
   162    25    28    1
