@<TRIPOS>MOLECULE
tmp/5lcdD00.pdb
 141 132 0 0 0
SMALL
GASTEIGER

@<TRIPOS>ATOM
      1  N        -26.9150  -16.0380   30.1640 N.3    66  ASP66      -0.1239
      2  CA       -28.2930  -16.1840   30.6400 C.3    66  ASP66       0.1674
      3  C        -28.3110  -16.1370   32.1710 C.2    66  ASP66       0.2266
      4  O        -27.4630  -16.7740   32.8080 O.2    66  ASP66      -0.2867
      5  CB       -28.9760  -17.4450   30.0940 C.3    66  ASP66       0.1410
      6  CG       -30.4830  -17.4600   30.3400 C.2    66  ASP66       0.3668
      7  OD1      -31.1790  -16.5020   29.8940 O.co2  66  ASP66      -0.2456
      8  OD2      -30.9730  -18.4300   30.9650 O.co2  66  ASP66      -0.2456
      9  N        -29.5530   -8.9690   33.0450 N.3    70  LYS70      -0.1245
     10  CA       -30.0690   -8.0700   32.0160 C.3    70  LYS70       0.1561
     11  C        -31.4200   -7.4380   32.3990 C.2    70  LYS70       0.2260
     12  O        -31.5240   -6.2090   32.4220 O.2    70  LYS70      -0.2867
     13  CB       -30.1650   -8.7910   30.6620 C.3    70  LYS70       0.0271
     14  CG       -28.9870   -8.5500   29.7150 C.3    70  LYS70       0.0035
     15  CD       -28.3190   -9.8390   29.2170 C.3    70  LYS70       0.0206
     16  CE       -29.2410  -10.8730   28.6010 C.3    70  LYS70       0.1093
     17  NZ       -29.0050  -12.2250   29.1800 N.3    70  LYS70      -0.1314
     18  N        -35.4650   -5.4000   22.7430 N.3    90  SER90      -0.1202
     19  CA       -34.9340   -6.7450   22.9800 C.3    90  SER90       0.2020
     20  C        -34.5730   -7.4050   21.6480 C.2    90  SER90       0.2619
     21  O        -35.3080   -7.2660   20.6610 O.2    90  SER90      -0.2717
     22  CB       -35.9550   -7.6030   23.7200 C.3    90  SER90       0.2103
     23  OG       -36.0400   -7.2240   25.0840 O.3    90  SER90      -0.2182
     24  N        -33.4410   -8.1200   21.6270 N.am   91  PHE91      -0.1961
     25  CA       -32.9860   -8.8320   20.4350 C.3    91  PHE91       0.1771
     26  C        -32.8900  -10.3320   20.7020 C.2    91  PHE91       0.2620
     27  O        -32.0440  -10.7700   21.4850 O.2    91  PHE91      -0.2715
     28  CB       -31.6780   -8.2310   19.8830 C.3    91  PHE91       0.0574
     29  CG       -31.8490   -6.8110   19.3940 C.ar   91  PHE91      -0.0200
     30  CD1      -32.4430   -6.5480   18.1640 C.ar   91  PHE91      -0.0042
     31  CD2      -31.4370   -5.7360   20.1740 C.ar   91  PHE91      -0.0042
     32  CE1      -32.6350   -5.2310   17.7270 C.ar   91  PHE91      -0.0003
     33  CE2      -31.6010   -4.4220   19.7250 C.ar   91  PHE91      -0.0003
     34  CZ       -32.2070   -4.1780   18.5040 C.ar   91  PHE91      -0.0000
     35  N        -33.7830  -11.0950   20.0700 N.am   92  GLY92      -0.1940
     36  CA       -33.8410  -12.5460   20.2100 C.3    92  GLY92       0.2014
     37  C        -33.4660  -13.3150   18.9570 C.2    92  GLY92       0.2639
     38  O        -32.7480  -12.8020   18.0930 O.2    92  GLY92      -0.2714
     39  N        -33.9270  -14.5770   18.8760 N.am   93  VAL93      -0.1963
     40  CA       -33.6970  -15.4730   17.7410 C.3    93  VAL93       0.1712
     41  C        -34.2060  -14.8150   16.4480 C.2    93  VAL93       0.2458
     42  O        -35.3990  -14.4960   16.3700 O.2    93  VAL93      -0.2730
     43  CB       -34.2210  -16.9250   17.9550 C.3    93  VAL93       0.0289
     44  CG1      -33.3200  -17.6830   18.9190 C.3    93  VAL93       0.0023
     45  CG2      -35.6780  -16.9580   18.4380 C.3    93  VAL93       0.0023
     46  N        -33.2970  -14.4830   15.4880 N.am   94  PRO94      -0.2727
     47  CA       -33.7380  -13.7750   14.2750 C.3    94  PRO94       0.1402
     48  C        -34.7750  -14.5340   13.4560 C.2    94  PRO94       0.2269
     49  O        -34.6720  -15.7520   13.2980 O.2    94  PRO94      -0.2865
     50  CB       -32.4350  -13.5590   13.4910 C.3    94  PRO94       0.0296
     51  CG       -31.3530  -13.7340   14.4720 C.3    94  PRO94       0.0237
     52  CD       -31.8430  -14.7370   15.4560 C.3    94  PRO94       0.0939
     53  N        -31.8860   -5.1190   11.5850 N.3   106  ARG106     -0.1245
     54  CA       -32.8710   -5.1690   12.6700 C.3   106  ARG106      0.1563
     55  C        -32.4800   -4.3190   13.8680 C.2   106  ARG106      0.2260
     56  O        -33.3480   -3.8090   14.5850 O.2   106  ARG106     -0.2867
     57  CB       -33.1870   -6.6290   13.0800 C.3   106  ARG106      0.0307
     58  CG       -32.0490   -7.4310   13.7060 C.3   106  ARG106      0.0489
     59  CD       -32.6090   -8.6270   14.4540 C.3   106  ARG106      0.2205
     60  NE       -31.5950   -9.2930   15.2730 N.pl3 106  ARG106     -0.0865
     61  CZ       -31.8370  -10.2740   16.1390 C.cat 106  ARG106      0.5346
     62  NH1      -30.8450  -10.8170   16.8250 N.pl3 106  ARG106      0.1354
     63  NH2      -33.0760  -10.7150   16.3280 N.pl3 106  ARG106      0.1354
     64  N        -29.7160   -7.4050   24.9280 N.3   122  ARG122     -0.1245
     65  CA       -28.9840   -8.1620   23.9160 C.3   122  ARG122      0.1563
     66  C        -28.8990   -7.1880   22.7340 C.2   122  ARG122      0.2260
     67  O        -29.6080   -6.1750   22.7240 O.2   122  ARG122     -0.2867
     68  CB       -29.6230   -9.5110   23.5330 C.3   122  ARG122      0.0307
     69  CG       -29.5760  -10.5290   24.6570 C.3   122  ARG122      0.0489
     70  CD       -30.1100  -11.8870   24.2500 C.3   122  ARG122      0.2205
     71  NE       -30.1920  -12.7920   25.3980 N.pl3 122  ARG122     -0.0865
     72  CZ       -29.1770  -13.5130   25.8710 C.cat 122  ARG122      0.5346
     73  NH1      -27.9790  -13.4440   25.3010 N.pl3 122  ARG122      0.1354
     74  NH2      -29.3510  -14.3050   26.9190 N.pl3 122  ARG122      0.1354
     75  N        -24.7200  -10.1290   19.6510 N.3   126  GLU126     -0.1231
     76  CA       -25.1210  -11.5430   19.5470 C.3   126  GLU126      0.1699
     77  C        -24.6090  -12.1740   18.2300 C.2   126  GLU126      0.2592
     78  O        -24.3750  -13.3780   18.1690 O.2   126  GLU126     -0.2718
     79  CB       -26.6460  -11.7030   19.6710 C.3   126  GLU126      0.0402
     80  CG       -27.2160  -11.3090   21.0260 C.3   126  GLU126      0.1161
     81  CD       -26.8000  -12.1650   22.2060 C.2   126  GLU126      0.3649
     82  OE1      -26.6710  -13.3970   22.0380 O.co2 126  GLU126     -0.2457
     83  OE2      -26.6260  -11.6050   23.3110 O.co2 126  GLU126     -0.2457
     84  N        -24.3650  -11.3360   17.2160 N.am  127  ASP127     -0.1974
     85  CA       -23.8540  -11.7560   15.9120 C.3   127  ASP127      0.1709
     86  C        -22.3180  -11.9730   15.8810 C.2   127  ASP127      0.2293
     87  O        -21.7580  -12.2550   14.8260 O.2   127  ASP127     -0.2864
     88  CB       -24.3330  -10.8040   14.8180 C.3   127  ASP127      0.1436
     89  CG       -25.8380  -10.8930   14.6190 C.2   127  ASP127      0.3671
     90  OD1      -26.3040  -11.9070   14.0340 O.co2 127  ASP127     -0.2456
     91  OD2      -26.5560   -9.9730   15.0860 O.co2 127  ASP127     -0.2456
     92  N        -23.2650  -15.6390   20.1560 N.3   130  VAL130     -0.1231
     93  CA       -24.0250  -16.8750   19.8970 C.3   130  VAL130      0.1692
     94  C        -23.6580  -17.5170   18.5390 C.2   130  VAL130      0.2591
     95  O        -23.4570  -18.7370   18.4800 O.2   130  VAL130     -0.2718
     96  CB       -25.5540  -16.6350   20.0560 C.3   130  VAL130      0.0266
     97  CG1      -26.3850  -17.7840   19.4900 C.3   130  VAL130      0.0020
     98  CG2      -25.8970  -16.4220   21.5200 C.3   130  VAL130      0.0020
     99  N        -23.5350  -16.6970   17.4730 N.am  131  VAL131     -0.1980
    100  CA       -23.1970  -17.1730   16.1200 C.3   131  VAL131      0.1595
    101  C        -21.7360  -17.6980   16.0380 C.2   131  VAL131      0.2287
    102  O        -21.4340  -18.5030   15.1570 O.2   131  VAL131     -0.2864
    103  CB       -23.5430  -16.1590   14.9830 C.3   131  VAL131      0.0276
    104  CG1      -24.7420  -15.2840   15.3520 C.3   131  VAL131      0.0022
    105  CG2      -22.3470  -15.3060   14.5870 C.3   131  VAL131      0.0022
    106  N        -22.0120  -21.1800   18.6860 N.3   134  LYS134     -0.1245
    107  CA       -22.8380  -22.2160   18.0540 C.3   134  LYS134      0.1561
    108  C        -22.4530  -22.5020   16.5850 C.2   134  LYS134      0.2260
    109  O        -23.0320  -23.4040   15.9620 O.2   134  LYS134     -0.2867
    110  CB       -24.3360  -21.8850   18.1960 C.3   134  LYS134      0.0271
    111  CG       -24.8760  -22.1670   19.5950 C.3   134  LYS134      0.0035
    112  CD       -26.3730  -21.9220   19.6920 C.3   134  LYS134      0.0206
    113  CE       -26.8790  -22.2320   21.0760 C.3   134  LYS134      0.1093
    114  NZ       -28.2770  -21.7690   21.2770 N.3   134  LYS134     -0.1314
    115  N        -22.8870  -20.6940   13.8350 N.3   136  LEU136     -0.1245
    116  CA       -24.0110  -20.3720   12.9480 C.3   136  LEU136      0.1561
    117  C        -23.5420  -19.7790   11.6070 C.2   136  LEU136      0.2260
    118  O        -24.3070  -19.7670   10.6360 O.2   136  LEU136     -0.2867
    119  CB       -25.0540  -19.4720   13.6460 C.3   136  LEU136      0.0270
    120  CG       -25.6480  -19.9680   14.9830 C.3   136  LEU136      0.0019
    121  CD1      -26.7130  -18.9920   15.5050 C.3   136  LEU136      0.0001
    122  CD2      -26.2220  -21.3940   14.8800 C.3   136  LEU136      0.0001
    123  N        -36.1570  -21.9350   29.5220 N.3   193  ARG193     -0.1245
    124  CA       -36.2480  -22.7200   28.2880 C.3   193  ARG193      0.1563
    125  C        -35.2640  -23.8860   28.4050 C.2   193  ARG193      0.2260
    126  O        -34.3190  -23.8030   29.1900 O.2   193  ARG193     -0.2867
    127  CB       -35.8930  -21.8610   27.0520 C.3   193  ARG193      0.0307
    128  CG       -36.8070  -20.6540   26.8050 C.3   193  ARG193      0.0489
    129  CD       -38.1280  -20.9960   26.1230 C.3   193  ARG193      0.2205
    130  NE       -38.9680  -19.8080   25.9490 N.pl3 193  ARG193     -0.0865
    131  CZ       -39.8510  -19.3690   26.8420 C.cat 193  ARG193      0.5346
    132  NH1      -40.0310  -20.0200   27.9860 N.pl3 193  ARG193      0.1354
    133  NH2      -40.5620  -18.2750   26.5990 N.pl3 193  ARG193      0.1354
    134  N        -26.2070  -23.6830   26.5260 N.3   199  ASP199     -0.1239
    135  CA       -25.3790  -22.4850   26.6550 C.3   199  ASP199      0.1674
    136  C        -24.5100  -22.5790   27.9190 C.2   199  ASP199      0.2266
    137  O        -23.4410  -21.9710   27.9760 O.2   199  ASP199     -0.2867
    138  CB       -26.2520  -21.2170   26.6630 C.3   199  ASP199      0.1410
    139  CG       -27.1160  -21.0320   25.4220 C.2   199  ASP199      0.3668
    140  OD1      -26.6180  -21.2960   24.3010 O.co2 199  ASP199     -0.2456
    141  OD2      -28.2770  -20.5830   25.5680 O.co2 199  ASP199     -0.2456
@<TRIPOS>BOND
     1   118   117    2
     2    53    54    1
     3   117   116    1
     4    54    57    1
     5    54    55    1
     6   116   119    1
     7   116   115    1
     8    57    58    1
     9    49    48    2
    10    48    47    1
    11    50    47    1
    12    50    51    1
    13   119   120    1
    14    58    59    1
    15    55    56    2
    16    90    89   ar
    17    47    46    1
    18    59    60    1
    19    51    52    1
    20   105   103    1
    21    89    88    1
    22    89    91   ar
    23    88    85    1
    24    87    86    2
    25   122   120    1
    26   120   121    1
    27   103   104    1
    28   103   100    1
    29   102   101    2
    30    60    61    2
    31    52    46    1
    32    46    41   am
    33    86    85    1
    34    85    84    1
    35   109   108    2
    36   101   100    1
    37   100    99    1
    38    61    63    1
    39    61    62    1
    40    42    41    2
    41    41    40    1
    42   108   107    1
    43    84    77   am
    44    99    94   am
    45    32    30   ar
    46    32    34   ar
    47    40    43    1
    48    40    39    1
    49    43    45    1
    50    43    44    1
    51   107   110    1
    52   107   106    1
    53    38    37    2
    54    30    29   ar
    55    78    77    2
    56   110   111    1
    57    77    76    1
    58    95    94    2
    59    34    33   ar
    60    94    93    1
    61    39    37   am
    62    37    36    1
    63    29    28    1
    64    29    31   ar
    65    97    96    1
    66    76    75    1
    67    76    79    1
    68   111   112    1
    69    79    80    1
    70   112   113    1
    71    33    31   ar
    72    28    25    1
    73    93    96    1
    74    93    92    1
    75    96    98    1
    76    35    36    1
    77    35    26   am
    78    25    26    1
    79    25    24    1
    80    21    20    2
    81    26    27    2
    82    80    81    1
    83   113   114    1
    84    24    20   am
    85    20    19    1
    86    82    81   ar
    87    81    83   ar
    88    67    66    2
    89    66    65    1
    90    18    19    1
    91    19    22    1
    92    68    65    1
    93    68    69    1
    94    22    23    1
    95    65    64    1
    96    70    69    1
    97    70    71    1
    98   140   139   ar
    99    73    72    1
   100    71    72    2
   101   139   141   ar
   102   139   138    1
   103    72    74    1
   104   130   129    1
   105   130   131    2
   106   129   128    1
   107   134   135    1
   108   133   131    1
   109   135   138    1
   110   135   136    1
   111   128   127    1
   112   131   132    1
   113   127   124    1
   114   136   137    2
   115   124   125    1
   116   124   123    1
   117   125   126    2
   118    16    17    1
   119    16    15    1
   120    15    14    1
   121    14    13    1
   122     7     6   ar
   123     5     6    1
   124     5     2    1
   125     1     2    1
   126     6     8   ar
   127     2     3    1
   128    13    10    1
   129    10    11    1
   130    10     9    1
   131     3     4    2
   132    11    12    2
