@<TRIPOS>MOLECULE
tmp/5lcfA00.pdb
 124 122 0 0 0
SMALL
GASTEIGER

@<TRIPOS>ATOM
      1  N        -34.1350   98.1070   14.7080 N.3    24  PHE24      -0.1241
      2  CA       -34.0200   97.8840   16.1420 C.3    24  PHE24       0.1605
      3  C        -33.1220   98.9720   16.7020 C.2    24  PHE24       0.2264
      4  O        -32.0430   99.2250   16.1620 O.2    24  PHE24      -0.2867
      5  CB       -33.4540   96.4900   16.4360 C.3    24  PHE24       0.0534
      6  CG       -33.2120   96.2120   17.8890 C.ar   24  PHE24      -0.0203
      7  CD1      -34.2720   96.0600   18.7650 C.ar   24  PHE24      -0.0042
      8  CD2      -31.9200   96.0470   18.3700 C.ar   24  PHE24      -0.0042
      9  CE1      -34.0530   95.7940   20.0920 C.ar   24  PHE24      -0.0003
     10  CE2      -31.6940   95.7670   19.7030 C.ar   24  PHE24      -0.0003
     11  CZ       -32.7620   95.6420   20.5670 C.ar   24  PHE24      -0.0000
     12  N        -31.2050   95.9560   10.9210 N.3    29  TYR29      -0.1241
     13  CA       -30.5630   94.6840   11.1930 C.3    29  TYR29       0.1605
     14  C        -31.2250   93.5700   10.4020 C.2    29  TYR29       0.2264
     15  O        -32.4380   93.6070   10.1510 O.2    29  TYR29      -0.2867
     16  CB       -30.6490   94.2920   12.6770 C.3    29  TYR29       0.0534
     17  CG       -29.8230   95.1360   13.5920 C.ar   29  TYR29      -0.0201
     18  CD1      -30.3730   96.2270   14.2330 C.ar   29  TYR29      -0.0009
     19  CD2      -28.4910   94.8400   13.8160 C.ar   29  TYR29      -0.0009
     20  CE1      -29.6230   97.0080   15.0620 C.ar   29  TYR29       0.0417
     21  CE2      -27.7280   95.6150   14.6520 C.ar   29  TYR29       0.0417
     22  CZ       -28.2990   96.6980   15.2740 C.ar   29  TYR29       0.1957
     23  OH       -27.5370   97.4710   16.1110 O.3    29  TYR29      -0.2866
     24  N        -40.1900   89.2680   11.3580 N.3    49  TRP49      -0.1241
     25  CA       -39.9820   90.5210   12.0800 C.3    49  TRP49       0.1605
     26  C        -40.9970   91.5800   11.6520 C.2    49  TRP49       0.2264
     27  O        -40.6340   92.6080   11.0720 O.2    49  TRP49      -0.2867
     28  CB       -38.5410   91.0190   11.8830 C.3    49  TRP49       0.0550
     29  CG       -38.0900   91.9790   12.9480 C.ar   49  TRP49       0.0003
     30  CD1      -38.8700   92.5800   13.9050 C.ar   49  TRP49       0.0946
     31  CD2      -36.7560   92.4450   13.1750 C.ar   49  TRP49       0.0152
     32  NE1      -38.1010   93.3850   14.7060 N.ar   49  TRP49      -0.2442
     33  CE2      -36.8010   93.3220   14.2760 C.ar   49  TRP49       0.0810
     34  CE3      -35.5330   92.2150   12.5480 C.ar   49  TRP49       0.0012
     35  CZ2      -35.6650   93.9670   14.7640 C.ar   49  TRP49       0.0191
     36  CZ3      -34.4020   92.8600   13.0370 C.ar   49  TRP49       0.0001
     37  CH2      -34.4790   93.7240   14.1240 C.ar   49  TRP49       0.0015
     38  N        -39.6950   87.9670   21.7000 N.3    78  HIS78      -0.1226
     39  CA       -39.3550   89.2510   21.1210 C.3    78  HIS78       0.1752
     40  C        -40.0630   89.4500   19.7840 C.2    78  HIS78       0.2596
     41  O        -40.4090   88.5010   19.0840 O.2    78  HIS78      -0.2718
     42  CB       -37.8540   89.3730   20.9300 C.3    78  HIS78       0.0759
     43  CG       -37.1030   89.6220   22.1950 C.ar   78  HIS78       0.0818
     44  ND1      -35.7520   89.3800   22.3110 N.ar   78  HIS78      -0.2268
     45  CD2      -37.5020   90.1250   23.3870 C.ar   78  HIS78       0.1154
     46  CE1      -35.3540   89.7060   23.5300 C.ar   78  HIS78       0.1986
     47  NE2      -36.3950   90.1650   24.2000 N.ar   78  HIS78      -0.2212
     48  N        -40.2350   90.7220   19.4260 N.am   79  ASP79      -0.1960
     49  CA       -41.0150   91.0830   18.2410 C.3    79  ASP79       0.1840
     50  C        -40.4070   90.5320   16.9480 C.2    79  ASP79       0.2622
     51  O        -41.1320   90.3240   15.9670 O.2    79  ASP79      -0.2715
     52  CB       -41.1600   92.6100   18.1880 C.3    79  ASP79       0.1450
     53  CG       -42.0010   93.0960   17.0310 C.2    79  ASP79       0.3671
     54  OD1      -43.1650   92.6610   16.8960 O.co2  79  ASP79      -0.2456
     55  OD2      -41.4950   93.9390   16.2550 O.co2  79  ASP79      -0.2456
     56  N        -39.0940   90.2700   16.9130 N.am   80  ASP80      -0.1971
     57  CA       -38.5340   89.6880   15.6910 C.3    80  ASP80       0.1709
     58  C        -38.8850   88.2130   15.5400 C.2    80  ASP80       0.2293
     59  O        -38.6730   87.6440   14.4610 O.2    80  ASP80      -0.2864
     60  CB       -37.0110   89.8970   15.6210 C.3    80  ASP80       0.1436
     61  CG       -36.2570   89.2600   16.7770 C.2    80  ASP80       0.3671
     62  OD1      -36.6670   89.4480   17.9350 O.co2  80  ASP80      -0.2456
     63  OD2      -35.2290   88.5990   16.5210 O.co2  80  ASP80      -0.2456
     64  N        -30.1800   84.2320   25.8130 N.3   141  HIS141     -0.1241
     65  CA       -30.6220   85.5260   25.2930 C.3   141  HIS141      0.1621
     66  C        -31.9140   85.9820   25.9590 C.2   141  HIS141      0.2264
     67  O        -32.0960   87.1760   26.2460 O.2   141  HIS141     -0.2867
     68  CB       -30.7880   85.3910   23.7840 C.3   141  HIS141      0.0745
     69  CG       -31.4880   86.5360   23.1160 C.ar  141  HIS141      0.0817
     70  ND1      -30.8280   87.6790   22.7230 N.ar  141  HIS141     -0.2268
     71  CD2      -32.7680   86.6750   22.6870 C.ar  141  HIS141      0.1154
     72  CE1      -31.6800   88.4910   22.1210 C.ar  141  HIS141      0.1986
     73  NE2      -32.8650   87.9030   22.0780 N.ar  141  HIS141     -0.2212
     74  N        -31.8710   83.3670   18.6190 N.3   160  CYS160     -0.1235
     75  CA       -31.1410   84.5330   19.0890 C.3   160  CYS160      0.1677
     76  C        -30.2990   84.2370   20.3160 C.2   160  CYS160      0.2270
     77  O        -29.5660   85.1230   20.7730 O.2   160  CYS160     -0.2867
     78  CB       -32.1240   85.6750   19.3260 C.3   160  CYS160      0.0956
     79  SG       -33.1090   85.9720   17.8000 S.3   160  CYS160     -0.0801
     80  N        -24.9990   83.6670   18.5300 N.3   163  TYR163     -0.1241
     81  CA       -24.4540   84.8100   17.8170 C.3   163  TYR163      0.1605
     82  C        -23.6730   84.3770   16.5820 C.2   163  TYR163      0.2264
     83  O        -23.0790   83.2980   16.5520 O.2   163  TYR163     -0.2867
     84  CB       -23.5080   85.5960   18.7220 C.3   163  TYR163      0.0534
     85  CG       -24.1380   86.4430   19.7980 C.ar  163  TYR163     -0.0201
     86  CD1      -25.4210   86.9510   19.6660 C.ar  163  TYR163     -0.0009
     87  CD2      -23.4150   86.7830   20.9350 C.ar  163  TYR163     -0.0009
     88  CE1      -25.9750   87.7500   20.6630 C.ar  163  TYR163      0.0417
     89  CE2      -23.9530   87.5710   21.9220 C.ar  163  TYR163      0.0417
     90  CZ       -25.2300   88.0560   21.7840 C.ar  163  TYR163      0.1957
     91  OH       -25.7440   88.8570   22.7770 O.3   163  TYR163     -0.2866
     92  N        -19.6050   88.8690   15.3920 N.3   167  ARG167     -0.1245
     93  CA       -19.8930   89.6480   16.5870 C.3   167  ARG167      0.1563
     94  C        -18.8060   89.4120   17.6280 C.2   167  ARG167      0.2260
     95  O        -18.4570   88.2670   17.9310 O.2   167  ARG167     -0.2867
     96  CB       -21.2730   89.2810   17.1470 C.3   167  ARG167      0.0307
     97  CG       -21.5640   89.9060   18.5110 C.3   167  ARG167      0.0489
     98  CD       -23.0300   89.7910   18.9010 C.3   167  ARG167      0.2205
     99  NE       -23.8670   90.6160   18.0460 N.pl3 167  ARG167     -0.0865
    100  CZ       -24.1210   91.9070   18.2420 C.cat 167  ARG167      0.5346
    101  NH1      -23.6150   92.5590   19.2840 N.pl3 167  ARG167      0.1354
    102  NH2      -24.8960   92.5480   17.3820 N.pl3 167  ARG167      0.1354
    103  N        -24.7180   91.6670   22.6330 N.3   171  GLY171     -0.1210
    104  CA       -25.6610   92.6330   22.1210 C.3   171  GLY171      0.1956
    105  C        -26.6660   93.0260   23.1740 C.2   171  GLY171      0.2611
    106  O        -26.3090   93.4970   24.2570 O.2   171  GLY171     -0.2717
    107  N        -27.9320   92.8130   22.8510 N.am  172  ASN172     -0.1974
    108  CA       -29.0370   93.1010   23.7500 C.3   172  ASN172      0.1688
    109  C        -29.0710   92.0610   24.8600 C.2   172  ASN172      0.2292
    110  O        -29.3720   90.8910   24.6070 O.2   172  ASN172     -0.2864
    111  CB       -30.3300   93.0840   22.9490 C.3   172  ASN172      0.1181
    112  CG       -31.5550   93.1990   23.8190 C.2   172  ASN172      0.2629
    113  OD1      -31.4740   93.5890   24.9830 O.2   172  ASN172     -0.2716
    114  ND2      -32.7020   92.8640   23.2540 N.am  172  ASN172     -0.0877
    115  N        -29.4940   86.3710   14.2270 N.3   202  HIS202     -0.1241
    116  CA       -29.1510   87.5520   13.4450 C.3   202  HIS202      0.1621
    117  C        -27.7670   87.3560   12.8480 C.2   202  HIS202      0.2264
    118  O        -26.8070   87.0940   13.5750 O.2   202  HIS202     -0.2867
    119  CB       -29.2060   88.8060   14.3180 C.3   202  HIS202      0.0745
    120  CG       -30.5340   88.9920   14.9920 C.ar  202  HIS202      0.0817
    121  ND1      -31.6200   89.5520   14.3490 N.ar  202  HIS202     -0.2268
    122  CD2      -30.9690   88.6430   16.2260 C.ar  202  HIS202      0.1154
    123  CE1      -32.6600   89.5520   15.1640 C.ar  202  HIS202      0.1986
    124  NE2      -32.2930   89.0080   16.3110 N.ar  202  HIS202     -0.2212
@<TRIPOS>BOND
     1    15    14    2
     2    14    13    1
     3    12    13    1
     4    27    26    2
     5    13    16    1
     6    24    25    1
     7    26    25    1
     8    28    25    1
     9    28    29    1
    10    34    36   ar
    11    34    31   ar
    12    16    17    1
    13   117   116    1
    14   117   118    2
    15    29    31   ar
    16    29    30   ar
    17    36    37   ar
    18    31    33   ar
    19   116   115    1
    20   116   119    1
    21    17    19   ar
    22    17    18   ar
    23    19    21   ar
    24    30    32   ar
    25    37    35   ar
    26    18    20   ar
    27    33    32   ar
    28    33    35   ar
    29   119   120    1
    30   121   120   ar
    31   121   123   ar
    32    59    58    2
    33    21    22   ar
    34     1     2    1
    35   120   122   ar
    36    20    22   ar
    37   123   124   ar
    38    22    23    1
    39    92    93    1
    40    58    57    1
    41    60    57    1
    42    60    61    1
    43    57    56    1
    44    51    50    2
    45     2     5    1
    46     2     3    1
    47     4     3    2
    48   122   124   ar
    49    55    53   ar
    50     5     6    1
    51    63    61   ar
    52    83    82    2
    53    82    81    1
    54    93    96    1
    55    93    94    1
    56    61    62   ar
    57    54    53   ar
    58    56    50   am
    59    50    49    1
    60    53    52    1
    61    96    97    1
    62   102   100    1
    63    94    95    2
    64    79    78    1
    65    81    80    1
    66    81    84    1
    67     6     8   ar
    68     6     7   ar
    69    99   100    2
    70    99    98    1
    71    52    49    1
    72    49    48    1
    73   100   101    1
    74     8    10   ar
    75    97    98    1
    76    74    75    1
    77    84    85    1
    78     7     9   ar
    79    41    40    2
    80    75    78    1
    81    75    76    1
    82    48    40   am
    83    86    85   ar
    84    86    88   ar
    85    10    11   ar
    86    40    39    1
    87    85    87   ar
    88     9    11   ar
    89    76    77    2
    90    88    90   ar
    91    42    39    1
    92    42    43    1
    93    87    89   ar
    94    39    38    1
    95    90    89   ar
    96    90    91    1
    97    73    72   ar
    98    73    71   ar
    99   104   103    1
   100   104   105    1
   101    72    70   ar
   102    43    44   ar
   103    43    45   ar
   104    44    46   ar
   105    71    69   ar
   106    70    69   ar
   107   107   105   am
   108   107   108    1
   109   111   108    1
   110   111   112    1
   111    69    68    1
   112   105   106    2
   113   114   112   am
   114    45    47   ar
   115    46    47   ar
   116   108   109    1
   117    68    65    1
   118   112   113    2
   119   110   109    2
   120    65    64    1
   121    65    66    1
   122    66    67    2
