@<TRIPOS>MOLECULE
tmp/5lchA00.pdb
 144 142 0 0 0
SMALL
GASTEIGER

@<TRIPOS>ATOM
      1  N         39.5790  -70.1800   55.0670 N.3    30  PHE30      -0.1241
      2  CA        38.1650  -69.8530   55.2260 C.3    30  PHE30       0.1605
      3  C         37.3510  -70.8640   54.4320 C.2    30  PHE30       0.2264
      4  O         37.4610  -70.9090   53.2060 O.2    30  PHE30      -0.2867
      5  CB        37.8710  -68.4270   54.7320 C.3    30  PHE30       0.0534
      6  CG        36.4370  -68.0170   54.8910 C.ar   30  PHE30      -0.0203
      7  CD1       36.0080  -67.4340   56.0630 C.ar   30  PHE30      -0.0042
      8  CD2       35.5210  -68.2240   53.8750 C.ar   30  PHE30      -0.0042
      9  CE1       34.6820  -67.0570   56.2270 C.ar   30  PHE30      -0.0003
     10  CE2       34.1940  -67.8590   54.0310 C.ar   30  PHE30      -0.0003
     11  CZ        33.7760  -67.2710   55.2160 C.ar   30  PHE30      -0.0000
     12  N         43.1710  -67.7450   51.5260 N.3    35  TYR35      -0.1228
     13  CA        43.0500  -66.4570   50.8680 C.3    35  TYR35       0.1721
     14  C         44.0640  -65.4760   51.4320 C.2    35  TYR35       0.2437
     15  O         44.3320  -65.4840   52.6440 O.2    35  TYR35      -0.2733
     16  CB        41.6630  -65.8520   51.0700 C.3    35  TYR35       0.0547
     17  CG        40.5630  -66.7060   50.5530 C.ar   35  TYR35      -0.0200
     18  CD1       39.9740  -67.6580   51.3660 C.ar   35  TYR35      -0.0009
     19  CD2       40.1090  -66.5670   49.2550 C.ar   35  TYR35      -0.0009
     20  CE1       38.9610  -68.4460   50.9060 C.ar   35  TYR35       0.0417
     21  CE2       39.0920  -67.3540   48.7750 C.ar   35  TYR35       0.0417
     22  CZ        38.5250  -68.2950   49.5990 C.ar   35  TYR35       0.1957
     23  OH        37.5080  -69.0770   49.1310 O.3    35  TYR35      -0.2866
     24  N         44.5970  -64.5920   50.5940 N.am   36  PRO36      -0.2729
     25  CA        45.3840  -63.4640   51.0930 C.3    36  PRO36       0.1401
     26  C         44.4800  -62.3240   51.5380 C.2    36  PRO36       0.2269
     27  O         43.3310  -62.1990   51.1050 O.2    36  PRO36      -0.2865
     28  CB        46.2100  -63.0600   49.8710 C.3    36  PRO36       0.0296
     29  CG        45.2780  -63.3200   48.7390 C.3    36  PRO36       0.0237
     30  CD        44.4530  -64.5430   49.1300 C.3    36  PRO36       0.0939
     31  N         43.5890  -60.9550   60.2100 N.3    55  TRP55      -0.1241
     32  CA        42.6460  -62.0520   60.0240 C.3    55  TRP55       0.1605
     33  C         42.9590  -63.2170   60.9550 C.2    55  TRP55       0.2264
     34  O         43.3230  -64.3050   60.5010 O.2    55  TRP55      -0.2867
     35  CB        42.6480  -62.4980   58.5630 C.3    55  TRP55       0.0550
     36  CG        41.4650  -63.3360   58.1210 C.ar   55  TRP55       0.0003
     37  CD1       40.4320  -63.8260   58.8910 C.ar   55  TRP55       0.0946
     38  CD2       41.2000  -63.7680   56.7830 C.ar   55  TRP55       0.0152
     39  NE1       39.5550  -64.5320   58.1030 N.ar   55  TRP55      -0.2442
     40  CE2       40.0090  -64.5210   56.8090 C.ar   55  TRP55       0.0810
     41  CE3       41.8660  -63.6000   55.5670 C.ar   55  TRP55       0.0012
     42  CZ2       39.4690  -65.0970   55.6650 C.ar   55  TRP55       0.0191
     43  CZ3       41.3240  -64.1790   54.4250 C.ar   55  TRP55       0.0001
     44  CH2       40.1380  -64.9150   54.4860 C.ar   55  TRP55       0.0015
     45  N         33.6950  -58.1790   59.2460 N.3    84  HIS84      -0.1226
     46  CA        34.1360  -59.5320   58.9450 C.3    84  HIS84       0.1752
     47  C         35.4370  -59.8590   59.6790 C.2    84  HIS84       0.2596
     48  O         36.2250  -58.9790   60.0310 O.2    84  HIS84      -0.2718
     49  CB        34.3280  -59.7150   57.4340 C.3    84  HIS84       0.0759
     50  CG        33.0470  -59.7890   56.6670 C.ar   84  HIS84       0.0818
     51  ND1       32.9850  -59.5850   55.3050 N.ar   84  HIS84      -0.2268
     52  CD2       31.7800  -60.0610   57.0680 C.ar   84  HIS84       0.1154
     53  CE1       31.7340  -59.7290   54.8990 C.ar   84  HIS84       0.1986
     54  NE2       30.9830  -60.0180   55.9490 N.ar   84  HIS84      -0.2212
     55  N         35.6600  -61.1650   59.8690 N.am   85  ASP85      -0.1960
     56  CA        36.7950  -61.6630   60.6430 C.3    85  ASP85       0.1840
     57  C         38.1470  -61.2120   60.0830 C.2    85  ASP85       0.2622
     58  O         39.1260  -61.1280   60.8380 O.2    85  ASP85      -0.2715
     59  CB        36.7370  -63.1900   60.6950 C.3    85  ASP85       0.1450
     60  CG        37.5920  -63.7850   61.8040 C.2    85  ASP85       0.3671
     61  OD1       37.5770  -63.2380   62.9300 O.co2  85  ASP85      -0.2456
     62  OD2       38.2560  -64.8260   61.5500 O.co2  85  ASP85      -0.2456
     63  N         38.2510  -60.9710   58.7710 N.am   86  ASP86      -0.1971
     64  CA        39.5330  -60.5150   58.2410 C.3    86  ASP86       0.1709
     65  C         39.8390  -59.0750   58.6390 C.2    86  ASP86       0.2293
     66  O         40.9810  -58.6320   58.4580 O.2    86  ASP86      -0.2864
     67  CB        39.6090  -60.7020   56.7100 C.3    86  ASP86       0.1436
     68  CG        38.5170  -59.9610   55.9320 C.2    86  ASP86       0.3671
     69  OD1       37.3460  -59.9820   56.3600 O.co2  86  ASP86      -0.2456
     70  OD2       38.8230  -59.3950   54.8510 O.co2  86  ASP86      -0.2456
     71  N         30.4600  -53.8340   49.6690 N.3   147  HIS147     -0.1241
     72  CA        30.8060  -55.1890   50.1030 C.3   147  HIS147      0.1621
     73  C         30.0270  -55.5710   51.3550 C.2   147  HIS147      0.2264
     74  O         29.6220  -56.7280   51.5160 O.2   147  HIS147     -0.2867
     75  CB        32.3150  -55.2610   50.3620 C.3   147  HIS147      0.0745
     76  CG        32.7750  -56.5090   51.0650 C.ar  147  HIS147      0.0817
     77  ND1       33.0490  -57.6840   50.3990 N.ar  147  HIS147     -0.2268
     78  CD2       33.0550  -56.7460   52.3690 C.ar  147  HIS147      0.1154
     79  CE1       33.4630  -58.5950   51.2640 C.ar  147  HIS147      0.1986
     80  NE2       33.4720  -58.0530   52.4690 N.ar  147  HIS147     -0.2212
     81  N         37.6060  -53.9830   51.5700 N.3   166  CYS166     -0.1235
     82  CA        37.0160  -55.0760   50.8090 C.3   166  CYS166      0.1677
     83  C         35.8870  -54.6060   49.9050 C.2   166  CYS166      0.2270
     84  O         35.3680  -55.4060   49.1180 O.2   166  CYS166     -0.2867
     85  CB        36.5730  -56.1860   51.7640 C.3   166  CYS166      0.0956
     86  SG        37.9950  -56.7600   52.7480 S.3   166  CYS166     -0.0801
     87  N         37.9120  -54.2720   44.6950 N.3   169  TYR169     -0.1241
     88  CA        38.4790  -55.5010   44.1640 C.3   169  TYR169      0.1605
     89  C         39.7950  -55.2410   43.4250 C.2   169  TYR169      0.2264
     90  O         39.9930  -54.1820   42.8190 O.2   169  TYR169     -0.2867
     91  CB        37.4930  -56.1540   43.1910 C.3   169  TYR169      0.0534
     92  CG        36.2740  -56.8580   43.7740 C.ar  169  TYR169     -0.0201
     93  CD1       36.2780  -57.3930   45.0600 C.ar  169  TYR169     -0.0009
     94  CD2       35.1300  -57.0160   43.0090 C.ar  169  TYR169     -0.0009
     95  CE1       35.1630  -58.0750   45.5620 C.ar  169  TYR169      0.0417
     96  CE2       34.0170  -57.6860   43.4970 C.ar  169  TYR169      0.0417
     97  CZ        34.0360  -58.2170   44.7750 C.ar  169  TYR169      0.1957
     98  OH        32.9210  -58.8810   45.2480 O.3   169  TYR169     -0.2866
     99  N         40.5210  -59.8390   39.3320 N.3   173  ARG173     -0.1245
    100  CA        39.2230  -60.4500   39.5760 C.3   173  ARG173      0.1563
    101  C         38.2440  -60.0610   38.4730 C.2   173  ARG173      0.2260
    102  O         38.0970  -58.8780   38.1390 O.2   173  ARG173     -0.2867
    103  CB        38.6870  -60.0240   40.9440 C.3   173  ARG173      0.0307
    104  CG        37.2670  -60.4880   41.2330 C.3   173  ARG173      0.0489
    105  CD        36.8800  -60.2440   42.6860 C.3   173  ARG173      0.2205
    106  NE        37.5750  -61.1390   43.5940 N.pl3 173  ARG173     -0.0865
    107  CZ        37.2370  -62.4070   43.8120 C.cat 173  ARG173      0.5346
    108  NH1       36.2050  -62.9600   43.1780 N.pl3 173  ARG173      0.1354
    109  NH2       37.9470  -63.1320   44.6600 N.pl3 173  ARG173      0.1354
    110  N         32.8590  -61.6650   44.2250 N.3   177  GLY177     -0.1210
    111  CA        33.2140  -62.6620   45.2080 C.3   177  GLY177      0.1956
    112  C         32.0620  -62.9790   46.1340 C.2   177  GLY177      0.2611
    113  O         30.9440  -63.2740   45.6910 O.2   177  GLY177     -0.2717
    114  N         32.3250  -62.9260   47.4330 N.am  178  ASN178     -0.1974
    115  CA        31.2810  -63.1690   48.4130 C.3   178  ASN178      0.1688
    116  C         30.3810  -61.9420   48.5120 C.2   178  ASN178      0.2292
    117  O         30.8470  -60.8520   48.8630 O.2   178  ASN178     -0.2864
    118  CB        31.8830  -63.5020   49.7670 C.3   178  ASN178      0.1181
    119  CG        30.8330  -63.9570   50.7430 C.2   178  ASN178      0.2629
    120  OD1       29.9910  -63.1710   51.1590 O.2   178  ASN178     -0.2716
    121  ND2       30.8480  -65.2370   51.0840 N.am  178  ASN178     -0.0877
    122  N         27.2500  -62.1690   50.1840 N.3   180  ALA180     -0.1231
    123  CA        26.2450  -62.4840   51.1930 C.3   180  ALA180      0.1694
    124  C         25.8050  -61.2510   51.9750 C.2   180  ALA180      0.2592
    125  O         24.6130  -61.0810   52.2610 O.2   180  ALA180     -0.2718
    126  CB        26.8010  -63.5380   52.1460 C.3   180  ALA180      0.0304
    127  N         26.7500  -60.3930   52.3500 N.am  181  ASP181     -0.1974
    128  CA        26.4620  -59.2230   53.1730 C.3   181  ASP181      0.1709
    129  C         26.4420  -57.9320   52.3680 C.2   181  ASP181      0.2293
    130  O         26.3350  -56.8490   52.9440 O.2   181  ASP181     -0.2864
    131  CB        27.4830  -59.1320   54.3070 C.3   181  ASP181      0.1436
    132  CG        27.3940  -60.3080   55.2430 C.2   181  ASP181      0.3671
    133  OD1       26.2670  -60.7880   55.4560 O.co2 181  ASP181     -0.2456
    134  OD2       28.4330  -60.7790   55.7390 O.co2 181  ASP181     -0.2456
    135  N         41.7010  -57.5170   49.3690 N.3   208  HIS208     -0.1241
    136  CA        42.3520  -58.7660   49.0120 C.3   208  HIS208      0.1621
    137  C         43.0000  -58.6000   47.6470 C.2   208  HIS208      0.2264
    138  O         42.3400  -58.1750   46.6930 O.2   208  HIS208     -0.2867
    139  CB        41.3410  -59.9190   48.9930 C.3   208  HIS208      0.0745
    140  CG        40.5390  -60.0240   50.2560 C.ar  208  HIS208      0.0817
    141  ND1       40.9830  -60.7190   51.3620 N.ar  208  HIS208     -0.2268
    142  CD2       39.3300  -59.5090   50.5930 C.ar  208  HIS208      0.1154
    143  CE1       40.0840  -60.6210   52.3260 C.ar  208  HIS208      0.1986
    144  NE2       39.0730  -59.8910   51.8860 N.ar  208  HIS208     -0.2212
@<TRIPOS>BOND
     1   102   101    2
     2   101   100    1
     3    99   100    1
     4   100   103    1
     5   103   104    1
     6   104   105    1
     7   105   106    1
     8    90    89    2
     9    94    96   ar
    10    94    92   ar
    11   108   107    1
    12    91    92    1
    13    91    88    1
    14    89    88    1
    15    96    97   ar
    16   106   107    2
    17    92    93   ar
    18   107   109    1
    19    88    87    1
    20   110   111    1
    21    97    98    1
    22    97    95   ar
    23    93    95   ar
    24   111   112    1
    25   113   112    2
    26   112   114   am
    27   138   137    2
    28   114   115    1
    29   137   136    1
    30   115   116    1
    31   115   118    1
    32   116   117    2
    33    29    30    1
    34    29    28    1
    35    21    19   ar
    36    21    22   ar
    37   139   136    1
    38   139   140    1
    39   136   135    1
    40    84    83    2
    41    30    24    1
    42    23    22    1
    43    19    17   ar
    44    22    20   ar
    45    71    72    1
    46   118   119    1
    47    28    25    1
    48    83    82    1
    49    72    75    1
    50    72    73    1
    51   122   123    1
    52   140   142   ar
    53   140   141   ar
    54    75    76    1
    55    77    76   ar
    56    77    79   ar
    57    17    16    1
    58    17    18   ar
    59   142   144   ar
    60    24    25    1
    61    24    14   am
    62   119   121   am
    63   119   120    2
    64    82    81    1
    65    82    85    1
    66    13    16    1
    67    13    14    1
    68    13    12    1
    69    20    18   ar
    70    76    78   ar
    71    25    26    1
    72    27    26    2
    73   123   124    1
    74   123   126    1
    75    79    80   ar
    76    73    74    2
    77   141   143   ar
    78    14    15    2
    79    85    86    1
    80   144   143   ar
    81   124   125    2
    82   124   127   am
    83   127   128    1
    84   129   130    2
    85   129   128    1
    86    78    80   ar
    87   128   131    1
    88     4     3    2
    89     8    10   ar
    90     8     6   ar
    91    10    11   ar
    92   131   132    1
    93    43    44   ar
    94    43    41   ar
    95     3     2    1
    96    44    42   ar
    97     5     6    1
    98     5     2    1
    99    70    68   ar
   100     6     7   ar
   101    53    51   ar
   102    53    54   ar
   103     1     2    1
   104    11     9   ar
   105   132   133   ar
   106   132   134   ar
   107    51    50   ar
   108    41    38   ar
   109    42    40   ar
   110    68    69   ar
   111    68    67    1
   112    54    52   ar
   113     7     9   ar
   114    50    52   ar
   115    50    49    1
   116    67    64    1
   117    38    40   ar
   118    38    36   ar
   119    40    39   ar
   120    49    46    1
   121    39    37   ar
   122    36    35    1
   123    36    37   ar
   124    64    65    1
   125    64    63    1
   126    66    65    2
   127    35    32    1
   128    63    57   am
   129    46    45    1
   130    46    47    1
   131    47    55   am
   132    47    48    2
   133    55    56    1
   134    32    31    1
   135    32    33    1
   136    57    56    1
   137    57    58    2
   138    34    33    2
   139    56    59    1
   140    59    60    1
   141    62    60   ar
   142    60    61   ar
