@<TRIPOS>MOLECULE
tmp/5lcjA00.pdb
 156 146 0 0 0
SMALL
GASTEIGER

@<TRIPOS>ATOM
      1  N         14.5040   15.1780   46.4740 N.3    21  ILE21      -0.1231
      2  CA        14.2920   14.6560   45.1190 C.3    21  ILE21       0.1692
      3  C         13.2060   15.4920   44.4490 C.2    21  ILE21       0.2593
      4  O         13.4750   16.1150   43.4220 O.2    21  ILE21      -0.2718
      5  CB        13.9470   13.1470   45.0470 C.3    21  ILE21       0.0266
      6  CG1       15.0240   12.2720   45.6820 C.3    21  ILE21       0.0019
      7  CG2       13.6660   12.7310   43.5700 C.3    21  ILE21       0.0020
      8  CD1       14.5850   10.8510   45.8390 C.3    21  ILE21       0.0001
      9  N         12.0040   15.4880   45.0340 N.am   22  GLY22      -0.1942
     10  CA        10.8770   16.2920   44.5830 C.3    22  GLY22       0.2014
     11  C          9.6780   16.2640   45.5090 C.2    22  GLY22       0.2639
     12  O          9.7870   15.8970   46.6820 O.2    22  GLY22      -0.2714
     13  N          8.5300   16.6760   44.9800 N.am   23  GLU23      -0.1963
     14  CA         7.2180   16.4850   45.5900 C.3    23  GLU23       0.1733
     15  C          6.5020   15.4340   44.7610 C.2    23  GLU23       0.2616
     16  O          6.4020   15.5610   43.5380 O.2    23  GLU23      -0.2715
     17  CB         6.3650   17.7810   45.5870 C.3    23  GLU23       0.0429
     18  CG         6.9280   18.9500   46.3700 C.3    23  GLU23       0.1163
     19  CD         7.0600   18.7450   47.8620 C.2    23  GLU23       0.3649
     20  OE1        6.0490   18.3880   48.5120 O.co2  23  GLU23      -0.2457
     21  OE2        8.1760   18.9690   48.3840 O.co2  23  GLU23      -0.2457
     22  N          6.0270   14.4080   45.4420 N.am   24  GLY24      -0.1955
     23  CA         5.1370   13.4100   44.8690 C.3    24  GLY24       0.1869
     24  C          3.7140   13.7150   45.2770 C.2    24  GLY24       0.2309
     25  O          3.4580   14.7440   45.9200 O.2    24  GLY24      -0.2863
     26  N          9.5440   13.9340   49.0640 N.3    29  VAL29      -0.1245
     27  CA        10.3680   12.7570   48.8130 C.3    29  VAL29       0.1561
     28  C         11.8320   13.1960   48.8310 C.2    29  VAL29       0.2260
     29  O         12.1870   14.1970   48.2050 O.2    29  VAL29      -0.2867
     30  CB         9.9950   12.0470   47.5020 C.3    29  VAL29       0.0252
     31  CG1       10.7040   10.7000   47.4040 C.3    29  VAL29       0.0019
     32  CG2        8.4780   11.8670   47.3870 C.3    29  VAL29       0.0019
     33  N         15.0130    5.9170   48.4800 N.3    42  ALA42      -0.1245
     34  CA        14.0440    6.9950   48.3800 C.3    42  ALA42       0.1562
     35  C         13.1710    6.9160   49.6420 C.2    42  ALA42       0.2260
     36  O         12.8300    5.8230   50.0610 O.2    42  ALA42      -0.2867
     37  CB        13.1660    6.8070   47.1560 C.3    42  ALA42       0.0290
     38  N          9.6040    8.7420   51.2340 N.3    44  LYS44      -0.1245
     39  CA         8.4920    9.6700   51.1560 C.3    44  LYS44       0.1561
     40  C          7.8080    9.8510   52.5170 C.2    44  LYS44       0.2260
     41  O          7.5420    8.8650   53.2110 O.2    44  LYS44      -0.2867
     42  CB         7.5040    9.3270   50.0340 C.3    44  LYS44       0.0271
     43  CG         6.4870    8.2420   50.3180 C.3    44  LYS44       0.0035
     44  CD         5.9330    7.7280   48.9760 C.3    44  LYS44       0.0206
     45  CE         4.7600    6.8040   49.1250 C.3    44  LYS44       0.1093
     46  NZ         4.0970    6.5740   47.8110 N.3    44  LYS44      -0.1314
     47  N          7.0800   -1.5400   42.6770 N.3    74  ILE74      -0.1245
     48  CA         7.9610   -0.9990   43.7410 C.3    74  ILE74       0.1561
     49  C          7.6080   -1.7070   45.0960 C.2    74  ILE74       0.2260
     50  O          6.4260   -1.8930   45.4380 O.2    74  ILE74      -0.2867
     51  CB         7.8340    0.5670   43.8360 C.3    74  ILE74       0.0252
     52  CG1        9.0080    1.2160   44.5630 C.3    74  ILE74       0.0019
     53  CG2        6.4970    0.9980   44.4570 C.3    74  ILE74       0.0019
     54  CD1       10.4110    1.0400   43.8070 C.3    74  ILE74       0.0001
     55  N         11.7860    3.2540   49.9980 N.3    95  GLN95      -0.1231
     56  CA        11.6940    2.3890   48.8070 C.3    95  GLN95       0.1698
     57  C         13.0070    2.4690   48.0410 C.2    95  GLN95       0.2592
     58  O         13.8080    3.3900   48.2790 O.2    95  GLN95      -0.2718
     59  CB        10.4870    2.8160   47.9260 C.3    95  GLN95       0.0381
     60  CG         9.1280    2.7660   48.6640 C.3    95  GLN95       0.0905
     61  CD         7.9770    3.3390   47.8530 C.2    95  GLN95       0.2608
     62  OE1        7.9890    4.5000   47.5130 O.2    95  GLN95      -0.2717
     63  NE2        7.0120    2.4920   47.4190 N.am   95  GLN95      -0.0878
     64  N         13.2480    1.4910   47.1210 N.am   96  ASP96      -0.1960
     65  CA        14.4550    1.5140   46.2700 C.3    96  ASP96       0.1840
     66  C         14.5380    2.8790   45.5810 C.2    96  ASP96       0.2622
     67  O         13.5120    3.4300   45.1400 O.2    96  ASP96      -0.2715
     68  CB        14.4210    0.3930   45.2030 C.3    96  ASP96       0.1450
     69  CG        14.4030   -1.0080   45.7650 C.2    96  ASP96       0.3671
     70  OD1       13.9490   -1.9120   45.0560 O.co2  96  ASP96      -0.2456
     71  OD2       14.8400   -1.1980   46.9350 O.co2  96  ASP96      -0.2456
     72  N         15.7550    3.4370   45.5140 N.am   97  LEU97      -0.1963
     73  CA        15.9570    4.7150   44.8370 C.3    97  LEU97       0.1728
     74  C         16.0950    4.4010   43.3560 C.2    97  LEU97       0.2616
     75  O         16.8860    3.5130   42.9780 O.2    97  LEU97      -0.2715
     76  CB        17.1940    5.4720   45.3890 C.3    97  LEU97       0.0311
     77  CG        17.5400    6.8280   44.7270 C.3    97  LEU97       0.0022
     78  CD1       16.4120    7.8260   44.8170 C.3    97  LEU97       0.0001
     79  CD2       18.8440    7.4020   45.2680 C.3    97  LEU97       0.0001
     80  N         15.3160    5.1160   42.5200 N.am   98  MET98      -0.1963
     81  CA        15.2990    4.8490   41.0770 C.3    98  MET98       0.1736
     82  C         15.8650    6.0800   40.4020 C.2    98  MET98       0.2616
     83  O         15.8770    7.1190   41.0220 O.2    98  MET98      -0.2715
     84  CB        13.8470    4.5710   40.6120 C.3    98  MET98       0.0427
     85  CG        13.2110    3.3780   41.3240 C.3    98  MET98       0.0599
     86  SD        13.9330    1.8030   40.7950 S.3    98  MET98      -0.1393
     87  CE        12.9250    1.4480   39.3120 C.3    98  MET98       0.0692
     88  N         16.3320    5.9820   39.1570 N.am   99  GLU99      -0.1963
     89  CA        17.0180    7.1390   38.5390 C.3    99  GLU99       0.1733
     90  C         16.0160    8.1940   38.0900 C.2    99  GLU99       0.2617
     91  O         16.3410    9.3820   38.0780 O.2    99  GLU99      -0.2715
     92  CB        17.9340    6.7200   37.3540 C.3    99  GLU99       0.0429
     93  CG        18.9270    7.8120   36.9630 C.3    99  GLU99       0.1163
     94  CD        19.4390    7.9500   35.5360 C.2    99  GLU99       0.3649
     95  OE1       19.9390    9.0490   35.2020 O.co2  99  GLU99      -0.2457
     96  OE2       19.3760    6.9710   34.7610 O.co2  99  GLU99      -0.2457
     97  N         14.7960    7.7740   37.7130 N.am  100  THR100     -0.1937
     98  CA        13.8440    8.6760   37.0540 C.3   100  THR100      0.2028
     99  C         12.4470    8.0390   37.0620 C.2   100  THR100      0.2642
    100  O         12.2390    6.9390   37.5670 O.2   100  THR100     -0.2714
    101  CB        14.3710    9.0500   35.6240 C.3   100  THR100      0.1808
    102  OG1       13.5740   10.0860   35.0760 O.3   100  THR100     -0.2208
    103  CG2       14.4610    7.8340   34.6530 C.3   100  THR100      0.0379
    104  N         11.4850    8.7490   36.5240 N.am  101  ASP101     -0.1971
    105  CA        10.2080    8.1320   36.2160 C.3   101  ASP101      0.1709
    106  C          9.9520    8.2820   34.7210 C.2   101  ASP101      0.2293
    107  O         10.6950    8.9920   34.0460 O.2   101  ASP101     -0.2864
    108  CB         9.0910    8.7220   37.1030 C.3   101  ASP101      0.1436
    109  CG         8.9080   10.2210   36.9920 C.2   101  ASP101      0.3671
    110  OD1        8.9730   10.7360   35.8820 O.co2 101  ASP101     -0.2456
    111  OD2        8.6230   10.8500   38.0100 O.co2 101  ASP101     -0.2456
    112  N          9.4240   12.1050   33.4600 N.3   104  LYS104     -0.1245
    113  CA        10.6320   12.9170   33.2640 C.3   104  LYS104      0.1561
    114  C         11.3880   12.4510   32.0420 C.2   104  LYS104      0.2260
    115  O         11.9490   13.2530   31.2980 O.2   104  LYS104     -0.2867
    116  CB        11.5440   12.7880   34.4720 C.3   104  LYS104      0.0271
    117  CG        10.9910   13.4290   35.7430 C.3   104  LYS104      0.0035
    118  CD        12.0500   14.3390   36.4050 C.3   104  LYS104      0.0206
    119  CE        13.0140   13.5910   37.2920 C.3   104  LYS104      0.1093
    120  NZ        13.7870   14.5080   38.1880 N.3   104  LYS104     -0.1314
    121  N          4.1800    9.1370   35.3300 N.3   143  SER143     -0.1202
    122  CA         4.7800    9.5550   36.6250 C.3   143  SER143      0.2020
    123  C          4.6670    8.4050   37.6500 C.2   143  SER143      0.2618
    124  O          5.3540    8.4580   38.6670 O.2   143  SER143     -0.2717
    125  CB         4.1820   10.8770   37.1400 C.3   143  SER143      0.2103
    126  OG         2.7930   10.7020   37.3310 O.3   143  SER143     -0.2182
    127  N          3.8210    7.3650   37.3710 N.am  144  ASN144     -0.1974
    128  CA         3.6710    6.2270   38.2580 C.3   144  ASN144      0.1688
    129  C          4.5060    5.0150   37.8000 C.2   144  ASN144      0.2292
    130  O          4.2800    3.8920   38.2570 O.2   144  ASN144     -0.2864
    131  CB         2.1870    5.8730   38.4880 C.3   144  ASN144      0.1181
    132  CG         1.5800    6.8220   39.4910 C.2   144  ASN144      0.2629
    133  OD1        2.3000    7.5380   40.2500 O.2   144  ASN144     -0.2716
    134  ND2        0.2800    6.9560   39.4150 N.am  144  ASN144     -0.0877
    135  N          8.4660    4.0080   37.5410 N.3   146  LEU146     -0.1245
    136  CA         9.8290    4.3720   37.9150 C.3   146  LEU146      0.1561
    137  C         10.8200    3.5280   37.1510 C.2   146  LEU146      0.2260
    138  O         10.5520    2.3620   36.8670 O.2   146  LEU146     -0.2867
    139  CB        10.0270    4.0850   39.4060 C.3   146  LEU146      0.0270
    140  CG         9.0830    4.8090   40.3880 C.3   146  LEU146      0.0019
    141  CD1        9.4190    4.4090   41.8900 C.3   146  LEU146      0.0001
    142  CD2        9.1600    6.3640   40.1950 C.3   146  LEU146      0.0001
    143  N          4.4040    2.1000   40.5360 N.3   155  CYS155     -0.1221
    144  CA         4.2550    2.5870   41.8820 C.3   155  CYS155      0.1808
    145  C          2.9020    3.2630   42.0790 C.2   155  CYS155      0.2601
    146  O          2.1060    3.3730   41.1440 O.2   155  CYS155     -0.2717
    147  CB         5.4090    3.5210   42.1920 C.3   155  CYS155      0.0970
    148  SG         5.3020    5.1110   41.3520 S.3   155  CYS155     -0.0800
    149  N          2.6860    3.7310   43.2960 N.am  156  ASP156     -0.1973
    150  CA         1.4910    4.4450   43.7690 C.3   156  ASP156      0.1709
    151  C          0.1700    3.6740   43.6250 C.2   156  ASP156      0.2293
    152  O         -0.5810    3.8680   42.6630 O.2   156  ASP156     -0.2864
    153  CB         1.3630    5.8220   43.1630 C.3   156  ASP156      0.1436
    154  CG         0.4280    6.6940   44.0060 C.2   156  ASP156      0.3671
    155  OD1       -0.1220    6.1820   45.0310 O.co2 156  ASP156     -0.2456
    156  OD2        0.2400    7.8460   43.6550 O.co2 156  ASP156     -0.2456
@<TRIPOS>BOND
     1   115   114    2
     2   114   113    1
     3   113   112    1
     4   113   116    1
     5   107   106    2
     6   116   117    1
     7   103   101    1
     8   106   105    1
     9    96    94   ar
    10   102   101    1
    11    95    94   ar
    12   121   122    1
    13    94    93    1
    14   101    98    1
    15   117   118    1
    16   110   109   ar
    17   105   104    1
    18   105   108    1
    19   118   119    1
    20   104    99   am
    21   122   125    1
    22   122   123    1
    23   138   137    2
    24    93    92    1
    25   109   108    1
    26   109   111   ar
    27    98    99    1
    28    98    97    1
    29    99   100    2
    30   125   126    1
    31   137   136    1
    32   119   120    1
    33    92    89    1
    34   127   123   am
    35   127   128    1
    36   135   136    1
    37   123   124    2
    38    97    90   am
    39   129   130    2
    40   129   128    1
    41   136   139    1
    42    91    90    2
    43    90    89    1
    44   128   131    1
    45   131   132    1
    46    89    88    1
    47    88    82   am
    48    87    86    1
    49   139   140    1
    50   134   132   am
    51   132   133    2
    52   142   140    1
    53   140   141    1
    54    82    83    2
    55    82    81    1
    56   143   144    1
    57    84    81    1
    58    84    85    1
    59    86    85    1
    60    81    80    1
    61   146   145    2
    62   148   147    1
    63   144   145    1
    64   144   147    1
    65   145   149   am
    66    80    74   am
    67   152   151    2
    68    47    48    1
    69    75    74    2
    70   153   150    1
    71   153   154    1
    72   149   150    1
    73    74    73    1
    74     4     3    2
    75    16    15    2
    76     7     5    1
    77   151   150    1
    78   156   154   ar
    79    48    51    1
    80    48    49    1
    81    54    52    1
    82    51    53    1
    83    51    52    1
    84   154   155   ar
    85     3     9   am
    86     3     2    1
    87    10     9    1
    88    10    11    1
    89    77    78    1
    90    77    79    1
    91    77    76    1
    92    15    22   am
    93    15    14    1
    94    73    76    1
    95    73    72    1
    96    23    24    1
    97    23    22    1
    98    13    11   am
    99    13    14    1
   100     5     2    1
   101     5     6    1
   102    70    69   ar
   103    49    50    2
   104     2     1    1
   105    67    66    2
   106    68    69    1
   107    68    65    1
   108    24    25    2
   109    11    12    2
   110    72    66   am
   111    66    65    1
   112    17    14    1
   113    17    18    1
   114     6     8    1
   115    69    71   ar
   116    65    64    1
   117    18    19    1
   118    64    57   am
   119    37    34    1
   120    32    30    1
   121    31    30    1
   122    63    61   am
   123    30    27    1
   124    62    61    2
   125    46    45    1
   126    61    60    1
   127    19    21   ar
   128    19    20   ar
   129    59    60    1
   130    59    56    1
   131    57    58    2
   132    57    56    1
   133    29    28    2
   134    34    33    1
   135    34    35    1
   136    56    55    1
   137    27    28    1
   138    27    26    1
   139    44    45    1
   140    44    43    1
   141    35    36    2
   142    42    43    1
   143    42    39    1
   144    39    38    1
   145    39    40    1
   146    40    41    2
