@<TRIPOS>MOLECULE
tmp/5lckA00.pdb
 169 160 0 0 0
SMALL
GASTEIGER

@<TRIPOS>ATOM
      1  N         14.4980   15.1930   46.7190 N.3    21  ILE21      -0.1231
      2  CA        14.2260   14.7300   45.3600 C.3    21  ILE21       0.1692
      3  C         13.1960   15.6680   44.7240 C.2    21  ILE21       0.2593
      4  O         13.5290   16.3830   43.7780 O.2    21  ILE21      -0.2718
      5  CB        13.8260   13.2260   45.2650 C.3    21  ILE21       0.0266
      6  CG1       14.9170   12.3150   45.8600 C.3    21  ILE21       0.0019
      7  CG2       13.5200   12.8390   43.7960 C.3    21  ILE21       0.0020
      8  CD1       14.5220   10.8120   45.9530 C.3    21  ILE21       0.0001
      9  N         11.9730   15.6520   45.2500 N.am   22  GLY22      -0.1942
     10  CA        10.8690   16.4760   44.7770 C.3    22  GLY22       0.2014
     11  C          9.6270   16.3350   45.6300 C.2    22  GLY22       0.2639
     12  O          9.6930   15.8330   46.7540 O.2    22  GLY22      -0.2714
     13  N          8.4870   16.7880   45.1060 N.am   23  GLU23      -0.1963
     14  CA         7.1830   16.5420   45.7230 C.3    23  GLU23       0.1733
     15  C          6.4470   15.4900   44.9040 C.2    23  GLU23       0.2617
     16  O          6.3380   15.6100   43.6790 O.2    23  GLU23      -0.2715
     17  CB         6.3380   17.8300   45.8340 C.3    23  GLU23       0.0429
     18  CG         6.9620   18.9450   46.6610 C.3    23  GLU23       0.1163
     19  CD         7.1110   18.6720   48.1420 C.2    23  GLU23       0.3649
     20  OE1        6.1010   18.3120   48.7890 O.co2  23  GLU23      -0.2457
     21  OE2        8.2370   18.8430   48.6610 O.co2  23  GLU23      -0.2457
     22  N          5.9680   14.4660   45.5920 N.am   24  GLY24      -0.1940
     23  CA         5.0820   13.4570   45.0290 C.3    24  GLY24       0.2014
     24  C          3.6360   13.7850   45.3360 C.2    24  GLY24       0.2638
     25  O          3.3510   14.8910   45.8070 O.2    24  GLY24      -0.2714
     26  N          2.7150   12.8210   45.0820 N.am   25  ALA25      -0.1977
     27  CA         1.2600   12.9650   45.2500 C.3    25  ALA25       0.1597
     28  C          0.8370   13.6680   46.5490 C.2    25  ALA25       0.2287
     29  O          0.0090   14.5800   46.4710 O.2    25  ALA25      -0.2864
     30  CB         0.5620   11.6180   45.1170 C.3    25  ALA25       0.0319
     31  N          9.5670   13.9160   49.2430 N.3    29  VAL29      -0.1245
     32  CA        10.3850   12.7280   48.9920 C.3    29  VAL29       0.1561
     33  C         11.8600   13.1320   49.0420 C.2    29  VAL29       0.2260
     34  O         12.2520   14.1040   48.3970 O.2    29  VAL29      -0.2867
     35  CB        10.0330   12.0430   47.6480 C.3    29  VAL29       0.0252
     36  CG1       10.7060   10.6760   47.5300 C.3    29  VAL29       0.0019
     37  CG2        8.5240   11.9200   47.4740 C.3    29  VAL29       0.0019
     38  N         14.9440    5.7340   48.7300 N.3    42  ALA42      -0.1231
     39  CA        13.9580    6.8060   48.5840 C.3    42  ALA42       0.1694
     40  C         13.0730    6.7490   49.8290 C.2    42  ALA42       0.2592
     41  O         12.7680    5.6490   50.3060 O.2    42  ALA42      -0.2718
     42  CB        13.0980    6.5710   47.3430 C.3    42  ALA42       0.0304
     43  N         12.6780    7.9330   50.3570 N.am   43  ILE43      -0.1966
     44  CA        11.8220    8.0730   51.5440 C.3    43  ILE43       0.1727
     45  C         10.7620    9.1150   51.2600 C.2    43  ILE43       0.2616
     46  O         11.1020   10.2700   50.9740 O.2    43  ILE43      -0.2715
     47  CB        12.6230    8.3440   52.8770 C.3    43  ILE43       0.0290
     48  CG1       13.6940    7.2700   53.1130 C.3    43  ILE43       0.0022
     49  CG2       11.6590    8.4390   54.0920 C.3    43  ILE43       0.0023
     50  CD1       14.6940    7.4780   54.3590 C.3    43  ILE43       0.0001
     51  N          9.4700    8.7160   51.3250 N.am   44  LYS44      -0.1977
     52  CA         8.3670    9.6710   51.2660 C.3    44  LYS44       0.1596
     53  C          7.7000    9.8660   52.6390 C.2    44  LYS44       0.2287
     54  O          7.4480    8.8860   53.3530 O.2    44  LYS44      -0.2864
     55  CB         7.3480    9.3360   50.1600 C.3    44  LYS44       0.0298
     56  CG         6.4520    8.1260   50.4010 C.3    44  LYS44       0.0038
     57  CD         5.4970    7.9030   49.2400 C.3    44  LYS44       0.0206
     58  CE         4.9840    6.4850   49.2340 C.3    44  LYS44       0.1093
     59  NZ         4.1070    6.2220   48.0660 N.3    44  LYS44      -0.1314
     60  N          6.9820   -1.5440   42.7720 N.3    74  ILE74      -0.1245
     61  CA         7.7950   -0.9850   43.8640 C.3    74  ILE74       0.1561
     62  C          7.4300   -1.6630   45.2410 C.2    74  ILE74       0.2260
     63  O          6.2490   -1.8530   45.5770 O.2    74  ILE74      -0.2867
     64  CB         7.7100    0.5800   43.9390 C.3    74  ILE74       0.0252
     65  CG1        8.8590    1.1560   44.7820 C.3    74  ILE74       0.0019
     66  CG2        6.3850    0.9940   44.5590 C.3    74  ILE74       0.0019
     67  CD1       10.2400    1.0680   44.1470 C.3    74  ILE74       0.0001
     68  N         11.5960    3.1150   50.2420 N.3    95  GLN95      -0.1231
     69  CA        11.5050    2.3260   49.0090 C.3    95  GLN95       0.1698
     70  C         12.8220    2.4100   48.2270 C.2    95  GLN95       0.2592
     71  O         13.6280    3.3270   48.4540 O.2    95  GLN95      -0.2718
     72  CB        10.3160    2.8120   48.1340 C.3    95  GLN95       0.0381
     73  CG         8.9430    2.6970   48.8260 C.3    95  GLN95       0.0905
     74  CD         7.8070    3.3280   48.0450 C.2    95  GLN95       0.2608
     75  OE1        7.7290    4.5310   47.9160 O.2    95  GLN95      -0.2717
     76  NE2        6.8600    2.5250   47.5690 N.am   95  GLN95      -0.0878
     77  N         13.0440    1.4490   47.3060 N.am   96  ASP96      -0.1960
     78  CA        14.2280    1.4600   46.4260 C.3    96  ASP96       0.1840
     79  C         14.3220    2.8150   45.7500 C.2    96  ASP96       0.2622
     80  O         13.3100    3.3900   45.3180 O.2    96  ASP96      -0.2715
     81  CB        14.1790    0.3390   45.3540 C.3    96  ASP96       0.1450
     82  CG        14.1530   -1.0660   45.9060 C.2    96  ASP96       0.3671
     83  OD1       13.6940   -1.9750   45.1870 O.co2  96  ASP96      -0.2456
     84  OD2       14.5480   -1.2540   47.0740 O.co2  96  ASP96      -0.2456
     85  N         15.5410    3.3330   45.6870 N.am   97  LEU97      -0.1963
     86  CA        15.7650    4.5930   45.0010 C.3    97  LEU97       0.1728
     87  C         15.8590    4.2800   43.5090 C.2    97  LEU97       0.2616
     88  O         16.5730    3.3530   43.1310 O.2    97  LEU97      -0.2715
     89  CB        17.0610    5.2650   45.5230 C.3    97  LEU97       0.0311
     90  CG        17.3870    6.6400   44.9370 C.3    97  LEU97       0.0022
     91  CD1       16.2810    7.6490   45.1920 C.3    97  LEU97       0.0001
     92  CD2       18.7600    7.1480   45.4290 C.3    97  LEU97       0.0001
     93  N         15.1470    5.0350   42.6780 N.am   98  MET98      -0.1963
     94  CA        15.1150    4.7950   41.2150 C.3    98  MET98       0.1736
     95  C         15.6980    6.0290   40.5120 C.2    98  MET98       0.2616
     96  O         15.6450    7.0820   41.1030 O.2    98  MET98      -0.2715
     97  CB        13.6680    4.4860   40.7690 C.3    98  MET98       0.0427
     98  CG        13.0570    3.2920   41.5110 C.3    98  MET98       0.0599
     99  SD        13.7940    1.7060   41.0100 S.3    98  MET98      -0.1393
    100  CE        12.8340    1.4320   39.4750 C.3    98  MET98       0.0692
    101  N         16.2620    5.9240   39.2880 N.am   99  GLU99      -0.1963
    102  CA        16.9040    7.1060   38.6630 C.3    99  GLU99       0.1733
    103  C         15.8830    8.1800   38.2940 C.2    99  GLU99       0.2617
    104  O         16.1380    9.3650   38.4720 O.2    99  GLU99      -0.2715
    105  CB        17.7490    6.7410   37.4030 C.3    99  GLU99       0.0429
    106  CG        18.7050    7.8710   37.0070 C.3    99  GLU99       0.1163
    107  CD        19.4130    7.8960   35.6580 C.2    99  GLU99       0.3649
    108  OE1       20.3180    8.7450   35.4970 O.co2  99  GLU99      -0.2457
    109  OE2       19.0400    7.1250   34.7480 O.co2  99  GLU99      -0.2457
    110  N         14.7340    7.7620   37.7770 N.am  100  THR100     -0.1937
    111  CA        13.7430    8.6690   37.1910 C.3   100  THR100      0.2028
    112  C         12.3600    8.0130   37.1100 C.2   100  THR100      0.2642
    113  O         12.1220    6.9310   37.6470 O.2   100  THR100     -0.2714
    114  CB        14.2770    9.1900   35.8420 C.3   100  THR100      0.1808
    115  OG1       13.4810   10.2790   35.4110 O.3   100  THR100     -0.2208
    116  CG2       14.4150    8.0850   34.7580 C.3   100  THR100      0.0379
    117  N         11.4370    8.6870   36.4580 N.am  101  ASP101     -0.1971
    118  CA        10.1670    8.0930   36.1490 C.3   101  ASP101      0.1709
    119  C          9.8810    8.3180   34.6830 C.2   101  ASP101      0.2293
    120  O         10.5630    9.1230   34.0590 O.2   101  ASP101     -0.2864
    121  CB         9.0770    8.6610   37.0710 C.3   101  ASP101      0.1436
    122  CG         8.8210   10.1550   36.9240 C.2   101  ASP101      0.3671
    123  OD1        8.6330   10.6070   35.7990 O.co2 101  ASP101     -0.2456
    124  OD2        8.6100   10.8130   37.9360 O.co2 101  ASP101     -0.2456
    125  N          9.2280   12.1160   33.5310 N.3   104  LYS104     -0.1245
    126  CA        10.4750   12.9050   33.3270 C.3   104  LYS104      0.1561
    127  C         11.2490   12.4450   32.1310 C.2   104  LYS104      0.2260
    128  O         11.7970   13.2700   31.4240 O.2   104  LYS104     -0.2867
    129  CB        11.3780   12.8880   34.5650 C.3   104  LYS104      0.0271
    130  CG        10.7620   13.6430   35.7530 C.3   104  LYS104      0.0035
    131  CD        11.7310   13.7210   36.9210 C.3   104  LYS104      0.0206
    132  CE        11.9020   15.1410   37.4250 C.3   104  LYS104      0.1093
    133  NZ        13.0980   15.2840   38.3110 N.3   104  LYS104     -0.1314
    134  N          4.0750    9.2070   35.3510 N.3   142  SER142     -0.1202
    135  CA         4.6920    9.5510   36.6480 C.3   142  SER142      0.2020
    136  C          4.5790    8.4270   37.7060 C.2   142  SER142      0.2618
    137  O          5.2890    8.4790   38.7070 O.2   142  SER142     -0.2717
    138  CB         4.1530   10.8820   37.1700 C.3   142  SER142      0.2103
    139  OG         2.7870   10.6880   37.4970 O.3   142  SER142     -0.2182
    140  N          3.7130    7.4020   37.4820 N.am  143  ASN143     -0.1974
    141  CA         3.6120    6.2450   38.3650 C.3   143  ASN143      0.1688
    142  C          4.4190    5.0450   37.8850 C.2   143  ASN143      0.2292
    143  O          4.2040    3.9300   38.3640 O.2   143  ASN143     -0.2864
    144  CB         2.1240    5.8720   38.6440 C.3   143  ASN143      0.1181
    145  CG         1.4780    6.9090   39.5480 C.2   143  ASN143      0.2629
    146  OD1        2.1590    7.6150   40.3270 O.2   143  ASN143     -0.2716
    147  ND2        0.1560    7.0280   39.4630 N.am  143  ASN143     -0.0877
    148  N          8.3370    4.0270   37.5880 N.3   145  LEU145     -0.1245
    149  CA         9.6900    4.3780   37.9700 C.3   145  LEU145      0.1561
    150  C         10.7220    3.5790   37.1930 C.2   145  LEU145      0.2260
    151  O         10.4880    2.4180   36.9010 O.2   145  LEU145     -0.2867
    152  CB         9.8650    4.0750   39.4730 C.3   145  LEU145      0.0270
    153  CG         8.9190    4.8110   40.4540 C.3   145  LEU145      0.0019
    154  CD1        9.2050    4.3680   41.9190 C.3   145  LEU145      0.0001
    155  CD2        9.0070    6.3750   40.2860 C.3   145  LEU145      0.0001
    156  N          4.2870    2.1430   40.6580 N.3   154  CYS154     -0.1221
    157  CA         4.1430    2.6500   42.0080 C.3   154  CYS154      0.1808
    158  C          2.7820    3.3200   42.2050 C.2   154  CYS154      0.2601
    159  O          1.9900    3.4410   41.2700 O.2   154  CYS154     -0.2717
    160  CB         5.2940    3.6040   42.3020 C.3   154  CYS154      0.0970
    161  SG         5.1100    5.2190   41.5140 S.3   154  CYS154     -0.0800
    162  N          2.5220    3.7490   43.4450 N.am  155  ASP155     -0.1973
    163  CA         1.3420    4.4930   43.9000 C.3   155  ASP155      0.1709
    164  C          0.0220    3.7340   43.7150 C.2   155  ASP155      0.2293
    165  O         -0.6970    3.9040   42.7260 O.2   155  ASP155     -0.2864
    166  CB         1.2590    5.9070   43.2930 C.3   155  ASP155      0.1436
    167  CG         0.2780    6.7900   44.0630 C.2   155  ASP155      0.3671
    168  OD1       -0.3520    6.2890   45.0300 O.co2 155  ASP155     -0.2456
    169  OD2        0.1480    7.9620   43.7130 O.co2 155  ASP155     -0.2456
@<TRIPOS>BOND
     1   128   127    2
     2   127   126    1
     3   126   125    1
     4   126   129    1
     5   120   119    2
     6   129   130    1
     7   119   118    1
     8   109   107   ar
     9   116   114    1
    10   134   135    1
    11   115   114    1
    12   108   107   ar
    13   107   106    1
    14   130   131    1
    15   123   122   ar
    16   114   111    1
    17   118   117    1
    18   118   121    1
    19   117   112   am
    20   135   138    1
    21   135   136    1
    22   151   150    2
    23   131   132    1
    24   122   121    1
    25   122   124   ar
    26   106   105    1
    27   112   111    1
    28   112   113    2
    29   138   139    1
    30   111   110    1
    31   150   149    1
    32   105   102    1
    33   132   133    1
    34   140   136   am
    35   140   141    1
    36   148   149    1
    37   136   137    2
    38   110   103   am
    39   142   143    2
    40   142   141    1
    41   149   152    1
    42   103   104    2
    43   103   102    1
    44   141   144    1
    45   144   145    1
    46   102   101    1
    47   101    95   am
    48   147   145   am
    49   152   153    1
    50   100    99    1
    51   145   146    2
    52   155   153    1
    53   153   154    1
    54    95    96    2
    55    95    94    1
    56   156   157    1
    57    97    94    1
    58    97    98    1
    59    99    98    1
    60    94    93    1
    61   159   158    2
    62   161   160    1
    63   157   158    1
    64   157   160    1
    65   158   162   am
    66    93    87   am
    67   165   164    2
    68    60    61    1
    69    88    87    2
    70   166   163    1
    71   166   167    1
    72   162   163    1
    73    87    86    1
    74    16    15    2
    75   169   167   ar
    76   164   163    1
    77     4     3    2
    78     7     5    1
    79    61    64    1
    80    61    62    1
    81    64    66    1
    82    64    65    1
    83   167   168   ar
    84    67    65    1
    85     3     9   am
    86     3     2    1
    87    10     9    1
    88    10    11    1
    89    15    22   am
    90    15    14    1
    91    90    91    1
    92    90    92    1
    93    90    89    1
    94    86    89    1
    95    86    85    1
    96    23    24    1
    97    23    22    1
    98    26    27    1
    99    26    24   am
   100    13    11   am
   101    13    14    1
   102    30    27    1
   103    83    82   ar
   104    62    63    2
   105    27    28    1
   106     5     2    1
   107     5     6    1
   108    80    79    2
   109    24    25    2
   110    81    82    1
   111    81    78    1
   112     2     1    1
   113    11    12    2
   114    85    79   am
   115    14    17    1
   116    79    78    1
   117    17    18    1
   118     6     8    1
   119    82    84   ar
   120    78    77    1
   121    29    28    2
   122    18    19    1
   123    77    70   am
   124    42    39    1
   125    37    35    1
   126    36    35    1
   127    76    74   am
   128    35    32    1
   129    75    74    2
   130    74    73    1
   131    59    58    1
   132    72    73    1
   133    72    69    1
   134    19    21   ar
   135    19    20   ar
   136    70    71    2
   137    70    69    1
   138    34    33    2
   139    39    38    1
   140    39    40    1
   141    32    33    1
   142    32    31    1
   143    69    68    1
   144    58    57    1
   145    57    56    1
   146    40    41    2
   147    40    43   am
   148    55    56    1
   149    55    52    1
   150    43    44    1
   151    46    45    2
   152    45    51   am
   153    45    44    1
   154    52    51    1
   155    52    53    1
   156    44    47    1
   157    53    54    2
   158    47    48    1
   159    47    49    1
   160    48    50    1
