@<TRIPOS>MOLECULE
tmp/5lcnD00.pdb
 138 133 0 0 0
SMALL
GASTEIGER

@<TRIPOS>ATOM
      1  N         44.7260  104.5460  -23.5890 N.3    56  GLY56      -0.1210
      2  CA        44.0800  104.5990  -22.2910 C.3    56  GLY56       0.1956
      3  C         42.6210  104.9990  -22.3810 C.2    56  GLY56       0.2612
      4  O         42.1090  105.2780  -23.4650 O.2    56  GLY56      -0.2717
      5  N         41.9500  105.0390  -21.2350 N.am   57  TYR57      -0.1962
      6  CA        40.5130  105.2750  -21.2160 C.3    57  TYR57       0.1771
      7  C         40.1500  106.7600  -21.1180 C.2    57  TYR57       0.2620
      8  O         38.9830  107.1300  -21.2500 O.2    57  TYR57      -0.2715
      9  CB        39.8670  104.4980  -20.0670 C.3    57  TYR57       0.0574
     10  CG        38.3640  104.5090  -20.1430 C.ar   57  TYR57      -0.0198
     11  CD1       37.7130  104.1330  -21.3100 C.ar   57  TYR57      -0.0009
     12  CD2       37.5950  104.9150  -19.0630 C.ar   57  TYR57      -0.0009
     13  CE1       36.3430  104.1530  -21.3970 C.ar   57  TYR57       0.0417
     14  CE2       36.2220  104.9340  -19.1400 C.ar   57  TYR57       0.0417
     15  CZ        35.6030  104.5540  -20.3090 C.ar   57  TYR57       0.1957
     16  OH        34.2380  104.5790  -20.3940 O.3    57  TYR57      -0.2866
     17  N         41.1460  107.6100  -20.8990 N.am   58  THR58      -0.1951
     18  CA        40.9100  109.0500  -20.8550 C.3    58  THR58       0.1897
     19  C         41.6350  109.7660  -21.9890 C.2    58  THR58       0.2313
     20  O         41.7560  110.9910  -21.9850 O.2    58  THR58      -0.2863
     21  CB        41.3610  109.6610  -19.5160 C.3    58  THR58       0.1794
     22  OG1       42.7460  109.3680  -19.2970 O.3    58  THR58      -0.2208
     23  CG2       40.5360  109.1000  -18.3690 C.3    58  THR58       0.0378
     24  N         52.6890  107.9670  -24.8810 N.3    66  TYR66      -0.1241
     25  CA        52.8920  106.5490  -25.1690 C.3    66  TYR66       0.1605
     26  C         52.3750  106.1180  -26.5400 C.2    66  TYR66       0.2264
     27  O         52.8990  105.1740  -27.1250 O.2    66  TYR66      -0.2867
     28  CB        52.2520  105.6800  -24.0780 C.3    66  TYR66       0.0534
     29  CG        50.7680  105.8910  -23.8740 C.ar   66  TYR66      -0.0201
     30  CD1       49.8360  105.1530  -24.5920 C.ar   66  TYR66      -0.0009
     31  CD2       50.3000  106.8110  -22.9450 C.ar   66  TYR66      -0.0009
     32  CE1       48.4790  105.3360  -24.4010 C.ar   66  TYR66       0.0417
     33  CE2       48.9450  107.0010  -22.7480 C.ar   66  TYR66       0.0417
     34  CZ        48.0390  106.2610  -23.4790 C.ar   66  TYR66       0.1957
     35  OH        46.6900  106.4470  -23.2870 O.3    66  TYR66      -0.2866
     36  N         47.6800  100.7370  -19.8990 N.3   131  SER131     -0.1202
     37  CA        46.7620  100.9280  -18.7760 C.3   131  SER131      0.2020
     38  C         45.4830  100.1080  -18.9460 C.2   131  SER131      0.2618
     39  O         45.5210   98.8790  -18.9170 O.2   131  SER131     -0.2717
     40  CB        46.4250  102.4100  -18.6040 C.3   131  SER131      0.2103
     41  OG        45.6500  102.6230  -17.4370 O.3   131  SER131     -0.2182
     42  N         44.3540  100.7870  -19.1220 N.am  132  MET132     -0.1979
     43  CA        43.0850  100.0970  -19.3350 C.3   132  MET132      0.1605
     44  C         43.0370   99.4790  -20.7280 C.2   132  MET132      0.2287
     45  O         42.3190   98.5060  -20.9630 O.2   132  MET132     -0.2864
     46  CB        41.9040  101.0490  -19.1330 C.3   132  MET132      0.0413
     47  CG        41.7100  101.5040  -17.6930 C.3   132  MET132      0.0598
     48  SD        41.3600  100.1460  -16.5580 S.3   132  MET132     -0.1393
     49  CE        39.7300   99.6480  -17.1080 C.3   132  MET132      0.0692
     50  N         45.9130   97.2650  -14.8940 N.3   156  PRO156     -0.2116
     51  CA        45.2890   97.2130  -13.5690 C.3   156  PRO156      0.1372
     52  C         44.7190   95.8280  -13.2790 C.2   156  PRO156      0.2244
     53  O         43.8240   95.3740  -13.9890 O.2   156  PRO156     -0.2868
     54  CB        44.1740   98.2590  -13.6620 C.3   156  PRO156      0.0268
     55  CG        44.6180   99.1880  -14.7430 C.3   156  PRO156      0.0207
     56  CD        45.3330   98.3240  -15.7370 C.3   156  PRO156      0.0892
     57  N         43.0990   99.8550   -7.3760 N.3   162  THR162     -0.1203
     58  CA        43.6300  100.8950   -8.2520 C.3   162  THR162      0.1994
     59  C         42.8180  102.1820   -8.1280 C.2   162  THR162      0.2618
     60  O         43.3780  103.2780   -8.0660 O.2   162  THR162     -0.2717
     61  CB        43.6440  100.4360   -9.7240 C.3   162  THR162      0.1784
     62  OG1       44.4770   99.2780   -9.8580 O.3   162  THR162     -0.2211
     63  CG2       44.1750  101.5400  -10.6280 C.3   162  THR162      0.0376
     64  N         41.4980  102.0400   -8.0860 N.am  163  GLY163     -0.1956
     65  CA        40.6120  103.1800   -7.9390 C.3   163  GLY163      0.1869
     66  C         40.7640  103.8560   -6.5910 C.2   163  GLY163      0.2309
     67  O         40.6420  105.0760   -6.4800 O.2   163  GLY163     -0.2863
     68  N         43.8960  105.9530   -6.6760 N.3   166  GLY166     -0.1210
     69  CA        43.6450  107.1600   -7.4390 C.3   166  GLY166      0.1956
     70  C         42.9440  108.2100   -6.6000 C.2   166  GLY166      0.2611
     71  O         43.2140  109.4040   -6.7290 O.2   166  GLY166     -0.2717
     72  N         42.0480  107.7550   -5.7290 N.am  167  MET167     -0.1979
     73  CA        41.2860  108.6450   -4.8600 C.3   167  MET167      0.1605
     74  C         42.1790  109.4230   -3.9010 C.2   167  MET167      0.2287
     75  O         41.9450  110.6060   -3.6470 O.2   167  MET167     -0.2864
     76  CB        40.2450  107.8510   -4.0670 C.3   167  MET167      0.0413
     77  CG        38.9250  107.6310   -4.7950 C.3   167  MET167      0.0598
     78  SD        37.9070  109.1190   -4.9040 S.3   167  MET167     -0.1393
     79  CE        38.4070  109.7860   -6.4900 C.3   167  MET167      0.0692
     80  N         43.5010  112.2380   -5.8040 N.3   170  PHE170     -0.1241
     81  CA        42.4400  113.1920   -6.1040 C.3   170  PHE170      0.1605
     82  C         42.1310  114.0430   -4.8770 C.2   170  PHE170      0.2264
     83  O         41.7780  115.2170   -4.9930 O.2   170  PHE170     -0.2867
     84  CB        41.1710  112.4740   -6.5740 C.3   170  PHE170      0.0534
     85  CG        41.1010  112.2630   -8.0610 C.ar  170  PHE170     -0.0203
     86  CD1       40.8690  113.3300   -8.9140 C.ar  170  PHE170     -0.0042
     87  CD2       41.2440  110.9970   -8.6040 C.ar  170  PHE170     -0.0042
     88  CE1       40.7940  113.1410  -10.2800 C.ar  170  PHE170     -0.0003
     89  CE2       41.1710  110.8010   -9.9710 C.ar  170  PHE170     -0.0003
     90  CZ        40.9450  111.8740  -10.8100 C.ar  170  PHE170     -0.0000
     91  N         36.9110  110.7490  -12.2610 N.3   185  SER185     -0.1217
     92  CA        36.8700  109.7650  -11.1860 C.3   185  SER185      0.1889
     93  C         35.6990  108.8000  -11.3350 C.2   185  SER185      0.2288
     94  O         35.8500  107.5930  -11.1540 O.2   185  SER185     -0.2866
     95  CB        36.7910  110.4660   -9.8300 C.3   185  SER185      0.2089
     96  OG        36.3070  109.5820   -8.8350 O.3   185  SER185     -0.2183
     97  N         35.7410  105.8800  -14.0730 N.3   188  PHE188     -0.1227
     98  CA        36.3820  104.5960  -13.8080 C.3   188  PHE188      0.1736
     99  C         35.5740  103.7530  -12.8250 C.2   188  PHE188      0.2596
    100  O         35.9550  102.6270  -12.5040 O.2   188  PHE188     -0.2718
    101  CB        37.7990  104.8060  -13.2670 C.3   188  PHE188      0.0547
    102  CG        38.7660  105.3390  -14.2860 C.ar  188  PHE188     -0.0202
    103  CD1       39.4480  104.4790  -15.1310 C.ar  188  PHE188     -0.0042
    104  CD2       38.9990  106.7000  -14.3950 C.ar  188  PHE188     -0.0042
    105  CE1       40.3400  104.9660  -16.0690 C.ar  188  PHE188     -0.0003
    106  CE2       39.8890  107.1930  -15.3300 C.ar  188  PHE188     -0.0003
    107  CZ        40.5610  106.3250  -16.1680 C.ar  188  PHE188     -0.0000
    108  N         34.4570  104.2990  -12.3540 N.am  189  SER189     -0.1952
    109  CA        33.6370  103.6190  -11.3560 C.3   189  SER189      0.1924
    110  C         32.4290  102.9250  -11.9780 C.2   189  SER189      0.2314
    111  O         31.5550  102.4310  -11.2660 O.2   189  SER189     -0.2863
    112  CB        33.1710  104.6090  -10.2870 C.3   189  SER189      0.2116
    113  OG        34.2740  105.2350   -9.6530 O.3   189  SER189     -0.2180
    114  N         49.5060  103.3790   -9.0670 N.3   215  LEU215     -0.1245
    115  CA        48.1700  102.8210   -9.2470 C.3   215  LEU215      0.1561
    116  C         48.1570  101.2950   -9.2290 C.2   215  LEU215      0.2260
    117  O         47.2180  100.6840   -8.7200 O.2   215  LEU215     -0.2867
    118  CB        47.5610  103.3260  -10.5560 C.3   215  LEU215      0.0270
    119  CG        47.2430  104.8210  -10.5950 C.3   215  LEU215      0.0019
    120  CD1       46.7590  105.2290  -11.9740 C.3   215  LEU215      0.0001
    121  CD2       46.2100  105.1690   -9.5370 C.3   215  LEU215      0.0001
    122  N         53.5130  104.8740  -13.9150 N.3   244  HIS244     -0.1226
    123  CA        52.4510  104.2670  -14.7100 C.3   244  HIS244      0.1752
    124  C         52.6620  104.5270  -16.2010 C.2   244  HIS244      0.2595
    125  O         52.8500  105.6700  -16.6120 O.2   244  HIS244     -0.2718
    126  CB        51.0870  104.8030  -14.2650 C.3   244  HIS244      0.0759
    127  CG        49.9260  104.0020  -14.7680 C.ar  244  HIS244      0.0818
    128  ND1       49.6200  102.7490  -14.2830 N.ar  244  HIS244     -0.2268
    129  CD2       48.9920  104.2800  -15.7090 C.ar  244  HIS244      0.1154
    130  CE1       48.5490  102.2870  -14.9060 C.ar  244  HIS244      0.1986
    131  NE2       48.1490  103.1970  -15.7760 N.ar  244  HIS244     -0.2212
    132  N         52.6330  103.4510  -16.9890 N.am  245  VAL245     -0.1980
    133  CA        52.8280  103.4540  -18.4500 C.3   245  VAL245      0.1595
    134  C         53.8800  104.4300  -19.0020 C.2   245  VAL245      0.2287
    135  O         53.7820  104.8690  -20.1490 O.2   245  VAL245     -0.2864
    136  CB        51.4830  103.7220  -19.2020 C.3   245  VAL245      0.0276
    137  CG1       50.4340  102.7000  -18.8000 C.3   245  VAL245      0.0022
    138  CG2       50.9640  105.1410  -18.9720 C.3   245  VAL245      0.0022
@<TRIPOS>BOND
     1    27    26    2
     2    26    25    1
     3    25    24    1
     4    25    28    1
     5    30    32   ar
     6    30    29   ar
     7    32    34   ar
     8    28    29    1
     9    29    31   ar
    10     1     2    1
    11    34    35    1
    12    34    33   ar
    13     4     3    2
    14    31    33   ar
    15     3     2    1
    16     3     5   am
    17    19    20    2
    18    19    18    1
    19    13    11   ar
    20    13    15   ar
    21    11    10   ar
    22     8     7    2
    23     5     6    1
    24     6     7    1
    25     6     9    1
    26     7    17   am
    27    45    44    2
    28    17    18    1
    29    18    21    1
    30    44    43    1
    31    16    15    1
    32    15    14   ar
    33   135   134    2
    34    10     9    1
    35    10    12   ar
    36    36    37    1
    37    21    22    1
    38    21    23    1
    39    43    46    1
    40    43    42    1
    41   136   138    1
    42   136   137    1
    43   136   133    1
    44    14    12   ar
    45    46    47    1
    46    42    38   am
    47   134   133    1
    48    38    39    2
    49    38    37    1
    50    37    40    1
    51    40    41    1
    52   133   132    1
    53    47    48    1
    54    49    48    1
    55   132   124   am
    56   125   124    2
    57   124   123    1
    58   107   105   ar
    59   107   106   ar
    60   105   103   ar
    61   131   129   ar
    62   131   130   ar
    63    56    50    1
    64    56    55    1
    65   129   127   ar
    66   106   104   ar
    67   103   102   ar
    68   130   128   ar
    69    50    51    1
    70   127   128   ar
    71   127   126    1
    72    55    54    1
    73   123   126    1
    74   123   122    1
    75   104   102   ar
    76   102   101    1
    77    97    98    1
    78    53    52    2
    79    98   101    1
    80    98    99    1
    81    54    51    1
    82    51    52    1
    83    99   100    2
    84    99   108   am
    85   108   109    1
    86    91    92    1
    87   110   109    1
    88   110   111    2
    89   120   119    1
    90   109   112    1
    91    93    92    1
    92    93    94    2
    93    92    95    1
    94    90    88   ar
    95    90    89   ar
    96    63    61    1
    97   119   118    1
    98   119   121    1
    99   118   115    1
   100   112   113    1
   101    88    86   ar
   102    89    87   ar
   103    62    61    1
   104    95    96    1
   105    61    58    1
   106   115   116    1
   107   115   114    1
   108   116   117    2
   109    86    85   ar
   110    87    85   ar
   111    58    59    1
   112    58    57    1
   113    59    64   am
   114    59    60    2
   115    64    65    1
   116    85    84    1
   117    65    66    1
   118    69    68    1
   119    69    70    1
   120    71    70    2
   121    70    72   am
   122    66    67    2
   123    84    81    1
   124    79    78    1
   125    81    80    1
   126    81    82    1
   127    72    73    1
   128    83    82    2
   129    78    77    1
   130    73    76    1
   131    73    74    1
   132    77    76    1
   133    74    75    2
