@<TRIPOS>MOLECULE
tmp/5lcrA00.pdb
 158 149 0 0 0
SMALL
GASTEIGER

@<TRIPOS>ATOM
      1  N        -17.2620  -29.0520   31.6330 N.3    51  LEU51      -0.1231
      2  CA       -16.2790  -29.2040   30.5670 C.3    51  LEU51       0.1693
      3  C        -14.9290  -28.5950   30.9000 C.2    51  LEU51       0.2593
      4  O        -13.9320  -28.9760   30.2900 O.2    51  LEU51      -0.2718
      5  CB       -16.7870  -28.5390   29.2860 C.3    51  LEU51       0.0284
      6  CG       -18.1190  -29.0630   28.7540 C.3    51  LEU51       0.0019
      7  CD1      -18.6870  -28.1280   27.6570 C.3    51  LEU51       0.0001
      8  CD2      -17.9560  -30.4570   28.2270 C.3    51  LEU51       0.0001
      9  N        -14.8890  -27.6310   31.8050 N.am   52  GLY52      -0.1942
     10  CA       -13.6440  -26.9880   32.1790 C.3    52  GLY52       0.2014
     11  C        -13.8890  -26.0030   33.3000 C.2    52  GLY52       0.2640
     12  O        -15.0000  -25.5010   33.4870 O.2    52  GLY52      -0.2714
     13  N        -12.8220  -25.7330   34.0450 N.am   53  THR53      -0.1936
     14  CA       -12.8930  -24.8530   35.2040 C.3    53  THR53       0.2028
     15  C        -11.7550  -23.8440   35.1630 C.2    53  THR53       0.2642
     16  O        -10.6860  -24.1100   34.6130 O.2    53  THR53      -0.2714
     17  CB       -12.8130  -25.6370   36.5240 C.3    53  THR53       0.1808
     18  OG1      -11.5710  -26.3550   36.5870 O.3    53  THR53      -0.2208
     19  CG2      -13.9430  -26.6060   36.6390 C.3    53  THR53       0.0379
     20  N        -12.0050  -22.6810   35.7550 N.am   54  GLY54      -0.1954
     21  CA       -11.0220  -21.6310   35.8990 C.3    54  GLY54       0.1869
     22  C        -11.2860  -20.8770   37.1850 C.2    54  GLY54       0.2309
     23  O        -12.2250  -21.1850   37.9190 O.2    54  GLY54      -0.2863
     24  N        -12.5250  -18.0950   37.7110 N.3    56  PHE56      -0.1241
     25  CA       -13.7560  -17.3120   37.6320 C.3    56  PHE56       0.1605
     26  C        -15.0160  -18.1270   37.9030 C.2    56  PHE56       0.2264
     27  O        -16.0580  -17.5460   38.2420 O.2    56  PHE56      -0.2867
     28  CB       -13.8910  -16.7440   36.2210 C.3    56  PHE56       0.0534
     29  CG       -13.9490  -17.8150   35.1810 C.ar   56  PHE56      -0.0203
     30  CD1      -15.1440  -18.4610   34.8960 C.ar   56  PHE56      -0.0042
     31  CD2      -12.8010  -18.2190   34.5300 C.ar   56  PHE56      -0.0042
     32  CE1      -15.1920  -19.4680   33.9800 C.ar   56  PHE56      -0.0003
     33  CE2      -12.8420  -19.2280   33.6070 C.ar   56  PHE56      -0.0003
     34  CZ       -14.0390  -19.8540   33.3210 C.ar   56  PHE56      -0.0000
     35  N        -17.1790  -23.8750   32.7150 N.3    59  VAL59      -0.1245
     36  CA       -17.9560  -24.0630   31.5010 C.3    59  VAL59       0.1561
     37  C        -18.6310  -25.4200   31.5870 C.2    59  VAL59       0.2260
     38  O        -17.9730  -26.4290   31.8490 O.2    59  VAL59      -0.2867
     39  CB       -17.0830  -23.9550   30.2340 C.3    59  VAL59       0.0252
     40  CG1      -17.9390  -24.1790   28.9920 C.3    59  VAL59       0.0019
     41  CG2      -16.4140  -22.5850   30.1520 C.3    59  VAL59       0.0019
     42  N        -22.3850  -24.9840   25.2640 N.3    72  ALA72      -0.1245
     43  CA       -21.4080  -24.8250   26.3290 C.3    72  ALA72       0.1562
     44  C        -21.7270  -23.5270   27.0490 C.2    72  ALA72       0.2260
     45  O        -21.6730  -22.4570   26.4410 O.2    72  ALA72      -0.2867
     46  CB       -19.9830  -24.7720   25.7770 C.3    72  ALA72       0.0290
     47  N        -20.7220  -20.9040   29.8720 N.3    74  LYS74      -0.1245
     48  CA       -19.7180  -20.3550   30.7660 C.3    74  LYS74       0.1561
     49  C        -20.4580  -19.6460   31.8920 C.2    74  LYS74       0.2260
     50  O        -21.3200  -18.7980   31.6350 O.2    74  LYS74      -0.2867
     51  CB       -18.7820  -19.4050   30.0260 C.3    74  LYS74       0.0271
     52  CG       -17.6430  -18.8780   30.8800 C.3    74  LYS74       0.0035
     53  CD       -16.6460  -18.0780   30.0410 C.3    74  LYS74       0.0206
     54  CE       -15.4240  -17.7200   30.8450 C.3    74  LYS74       0.1093
     55  NZ       -14.4340  -17.0160   29.9970 N.3    74  LYS74      -0.1314
     56  N        -15.9350  -19.0080   18.0070 N.3   106  VAL106     -0.1245
     57  CA       -17.1340  -19.5940   18.5960 C.3   106  VAL106      0.1561
     58  C        -18.2750  -18.5860   18.6400 C.2   106  VAL106      0.2260
     59  O        -18.0790  -17.3820   18.8630 O.2   106  VAL106     -0.2867
     60  CB       -16.8250  -20.1620   19.9900 C.3   106  VAL106      0.0252
     61  CG1      -16.7780  -19.0690   21.0880 C.3   106  VAL106      0.0019
     62  CG2      -17.8820  -21.1860   20.3610 C.3   106  VAL106      0.0019
     63  N        -22.5480  -20.6140   24.5430 N.3   122  MET122     -0.1230
     64  CA       -21.8580  -20.6990   23.2700 C.3   122  MET122      0.1702
     65  C        -22.1580  -22.0270   22.6030 C.2   122  MET122      0.2592
     66  O        -22.5590  -22.9880   23.2510 O.2   122  MET122     -0.2718
     67  CB       -20.3470  -20.5630   23.4760 C.3   122  MET122      0.0401
     68  CG       -19.9460  -19.1760   23.8720 C.3   122  MET122      0.0596
     69  SD       -18.3230  -19.1200   24.6200 S.3   122  MET122     -0.1393
     70  CE       -18.6870  -19.7390   26.2460 C.3   122  MET122      0.0692
     71  N        -21.9200  -22.0960   21.2990 N.am  123  GLU123     -0.1966
     72  CA       -21.9800  -23.3930   20.6470 C.3   123  GLU123      0.1733
     73  C        -21.0730  -24.3580   21.3920 C.2   123  GLU123      0.2616
     74  O        -19.9770  -23.9950   21.8310 O.2   123  GLU123     -0.2715
     75  CB       -21.5460  -23.3600   19.1740 C.3   123  GLU123      0.0429
     76  CG       -21.5140  -22.0610   18.4370 C.3   123  GLU123      0.1163
     77  CD       -20.7830  -22.2360   17.1030 C.2   123  GLU123      0.3649
     78  OE1      -19.6620  -21.6540   16.9270 O.co2 123  GLU123     -0.2457
     79  OE2      -21.3180  -23.0120   16.2650 O.co2 123  GLU123     -0.2457
     80  N        -21.5490  -25.5880   21.5320 N.am  124  TYR124     -0.1960
     81  CA       -20.7430  -26.6800   22.0630 C.3   124  TYR124      0.1771
     82  C        -19.8110  -27.1850   20.9660 C.2   124  TYR124      0.2619
     83  O        -20.2610  -27.5500   19.8680 O.2   124  TYR124     -0.2715
     84  CB       -21.6510  -27.7990   22.5660 C.3   124  TYR124      0.0574
     85  CG       -20.8820  -29.0040   23.0530 C.ar  124  TYR124     -0.0198
     86  CD1      -19.7850  -28.8550   23.8970 C.ar  124  TYR124     -0.0009
     87  CD2      -21.2280  -30.2870   22.6570 C.ar  124  TYR124     -0.0009
     88  CE1      -19.0820  -29.9460   24.3430 C.ar  124  TYR124      0.0417
     89  CE2      -20.5310  -31.3920   23.1150 C.ar  124  TYR124      0.0417
     90  CZ       -19.4630  -31.2140   23.9500 C.ar  124  TYR124      0.1957
     91  OH       -18.7690  -32.3010   24.3910 O.3   124  TYR124     -0.2866
     92  N        -18.5170  -27.1820   21.2510 N.am  125  VAL125     -0.1977
     93  CA       -17.4970  -27.6450   20.3150 C.3   125  VAL125      0.1596
     94  C        -17.0230  -28.9910   20.8370 C.2   125  VAL125      0.2287
     95  O        -16.2430  -29.0420   21.7990 O.2   125  VAL125     -0.2864
     96  CB       -16.3570  -26.6310   20.1850 C.3   125  VAL125      0.0276
     97  CG1      -15.4000  -27.0350   19.0540 C.3   125  VAL125      0.0022
     98  CG2      -16.9390  -25.2360   19.9270 C.3   125  VAL125      0.0022
     99  N         -9.8940  -29.9020   23.2690 N.3   129  GLU129     -0.1245
    100  CA        -8.7630  -29.0240   23.0260 C.3   129  GLU129      0.1567
    101  C         -7.7530  -29.6590   22.0910 C.2   129  GLU129      0.2260
    102  O         -7.4380  -30.8420   22.1900 O.2   129  GLU129     -0.2867
    103  CB        -8.0470  -28.6870   24.3380 C.3   129  GLU129      0.0388
    104  CG        -8.8880  -27.9330   25.3530 C.3   129  GLU129      0.1160
    105  CD        -8.1130  -27.5930   26.6170 C.2   129  GLU129      0.3649
    106  OE1       -6.9400  -28.0100   26.7540 O.co2 129  GLU129     -0.2457
    107  OE2       -8.6640  -26.8680   27.4670 O.co2 129  GLU129     -0.2457
    108  N         -4.0040  -25.2000   24.2220 N.3   172  GLU172     -0.1231
    109  CA        -5.0170  -25.3110   25.2500 C.3   172  GLU172      0.1699
    110  C         -6.2500  -24.4830   24.9390 C.2   172  GLU172      0.2592
    111  O         -7.3300  -24.7750   25.4570 O.2   172  GLU172     -0.2718
    112  CB        -4.4340  -24.8410   26.5760 C.3   172  GLU172      0.0402
    113  CG        -3.3460  -25.6810   27.1500 C.3   172  GLU172      0.1161
    114  CD        -1.9480  -25.2430   26.7930 C.2   172  GLU172      0.3649
    115  OE1       -1.6950  -24.9160   25.6080 O.co2 172  GLU172     -0.2457
    116  OE2       -1.0920  -25.2370   27.7030 O.co2 172  GLU172     -0.2457
    117  N         -6.1060  -23.4470   24.1190 N.am  173  ASN173     -0.1974
    118  CA        -7.1780  -22.5090   23.8610 C.3   173  ASN173      0.1688
    119  C         -7.7900  -22.6970   22.4890 C.2   173  ASN173      0.2292
    120  O         -8.5830  -21.8660   22.0670 O.2   173  ASN173     -0.2864
    121  CB        -6.6790  -21.0730   24.0420 C.3   173  ASN173      0.1181
    122  CG        -6.5650  -20.6850   25.5030 C.2   173  ASN173      0.2629
    123  OD1       -6.9540  -21.4530   26.3930 O.2   173  ASN173     -0.2716
    124  ND2       -6.0140  -19.5040   25.7610 N.am  173  ASN173     -0.0877
    125  N        -10.1380  -25.2650   20.2830 N.3   175  LEU175     -0.1245
    126  CA       -10.9640  -26.4570   20.2790 C.3   175  LEU175      0.1561
    127  C        -11.1030  -26.9800   18.8640 C.2   175  LEU175      0.2260
    128  O        -10.9280  -26.2520   17.8830 O.2   175  LEU175     -0.2867
    129  CB       -12.3440  -26.1720   20.8660 C.3   175  LEU175      0.0270
    130  CG       -12.3410  -25.4960   22.2510 C.3   175  LEU175      0.0019
    131  CD1      -13.7430  -25.2390   22.7480 C.3   175  LEU175      0.0001
    132  CD2      -11.6090  -26.3600   23.2750 C.3   175  LEU175      0.0001
    133  N        -12.2910  -19.5950   21.3970 N.3   185  THR185     -0.1203
    134  CA       -13.3600  -19.2950   22.3510 C.3   185  THR185      0.1994
    135  C        -13.0470  -18.1750   23.3360 C.2   185  THR185      0.2617
    136  O        -13.9820  -17.5000   23.8050 O.2   185  THR185     -0.2717
    137  CB       -13.6950  -20.5370   23.1750 C.3   185  THR185      0.1784
    138  OG1      -12.5190  -20.9830   23.8550 O.3   185  THR185     -0.2211
    139  CG2      -14.1680  -21.6360   22.3090 C.3   185  THR185      0.0376
    140  N        -11.7870  -17.9880   23.7140 N.am  186  ASP186     -0.1973
    141  CA       -11.4340  -17.1260   24.8340 C.3   186  ASP186      0.1709
    142  C        -11.0320  -15.7360   24.3490 C.2   186  ASP186      0.2293
    143  O        -10.1300  -15.5900   23.5090 O.2   186  ASP186     -0.2864
    144  CB       -10.2810  -17.7430   25.6250 C.3   186  ASP186      0.1436
    145  CG       -10.6850  -19.0000   26.3800 C.2   186  ASP186      0.3671
    146  OD1      -11.7990  -19.4990   26.1610 O.co2 186  ASP186     -0.2456
    147  OD2       -9.8690  -19.4890   27.1970 O.co2 186  ASP186     -0.2456
    148  N        -13.3400  -34.2520   26.4560 N.3   328  PHE328     -0.1241
    149  CA       -13.0540  -33.3440   27.5550 C.3   328  PHE328      0.1605
    150  C        -12.7290  -34.1160   28.8230 C.2   328  PHE328      0.2264
    151  O        -13.1190  -35.2700   29.0020 O.2   328  PHE328     -0.2867
    152  CB       -14.2370  -32.4130   27.8080 C.3   328  PHE328      0.0534
    153  CG       -14.4340  -31.4290   26.7190 C.ar  328  PHE328     -0.0203
    154  CD1      -13.7670  -30.2200   26.7400 C.ar  328  PHE328     -0.0042
    155  CD2      -15.2520  -31.7210   25.6480 C.ar  328  PHE328     -0.0042
    156  CE1      -13.9260  -29.3090   25.7140 C.ar  328  PHE328     -0.0003
    157  CE2      -15.4190  -30.8120   24.6270 C.ar  328  PHE328     -0.0003
    158  CZ       -14.7550  -29.6040   24.6620 C.ar  328  PHE328     -0.0000
@<TRIPOS>BOND
     1    79    77   ar
     2    78    77   ar
     3    77    76    1
     4   128   127    2
     5    56    57    1
     6    76    75    1
     7    57    58    1
     8    57    60    1
     9    58    59    2
    10   127   126    1
    11    97    96    1
    12    75    72    1
    13    83    82    2
    14    98    96    1
    15    60    62    1
    16    60    61    1
    17    96    93    1
    18   126   125    1
    19   126   129    1
    20    93    94    1
    21    93    92    1
    22    72    71    1
    23    72    73    1
    24    94    95    2
    25   129   130    1
    26    82    92   am
    27    82    81    1
    28    71    65   am
    29    73    80   am
    30    73    74    2
    31   133   134    1
    32    80    81    1
    33    81    84    1
    34   120   119    2
    35   101   102    2
    36   101   100    1
    37   130   131    1
    38   130   132    1
    39   139   137    1
    40   134   137    1
    41   134   135    1
    42   119   118    1
    43    84    85    1
    44    65    66    2
    45    65    64    1
    46    87    85   ar
    47    87    89   ar
    48   100    99    1
    49   100   103    1
    50    85    86   ar
    51    89    90   ar
    52   137   138    1
    53    64    67    1
    54    64    63    1
    55   135   140   am
    56   135   136    2
    57    67    68    1
    58   143   142    2
    59   140   141    1
    60   118   121    1
    61   118   117    1
    62    68    69    1
    63    86    88   ar
    64    90    88   ar
    65    90    91    1
    66   121   122    1
    67   117   110   am
    68   108   109    1
    69   103   104    1
    70   142   141    1
    71    69    70    1
    72   157   158   ar
    73   157   155   ar
    74   158   156   ar
    75   141   144    1
    76   110   109    1
    77   110   111    2
    78   109   112    1
    79    42    43    1
    80   104   105    1
    81   122   124   am
    82   122   123    2
    83   115   114   ar
    84   144   145    1
    85   155   153   ar
    86   156   154   ar
    87    46    43    1
    88   146   145   ar
    89    43    44    1
    90   145   147   ar
    91    45    44    2
    92   148   149    1
    93   112   113    1
    94   105   106   ar
    95   105   107   ar
    96   153   154   ar
    97   153   152    1
    98   114   113    1
    99   114   116   ar
   100   149   152    1
   101   149   150    1
   102     7     6    1
   103     8     6    1
   104     6     5    1
   105   150   151    2
   106    40    39    1
   107     5     2    1
   108    47    48    1
   109    55    54    1
   110    51    48    1
   111    51    52    1
   112    53    54    1
   113    53    52    1
   114    41    39    1
   115    39    36    1
   116     4     3    2
   117     2     3    1
   118     2     1    1
   119    48    49    1
   120     3     9   am
   121    36    37    1
   122    36    35    1
   123    37    38    2
   124    50    49    2
   125     9    10    1
   126    10    11    1
   127    11    12    2
   128    11    13   am
   129    34    33   ar
   130    34    32   ar
   131    33    31   ar
   132    32    30   ar
   133    13    14    1
   134    31    29   ar
   135    16    15    2
   136    30    29   ar
   137    15    14    1
   138    15    20   am
   139    29    28    1
   140    14    17    1
   141    20    21    1
   142    21    22    1
   143    28    25    1
   144    17    18    1
   145    17    19    1
   146    22    23    2
   147    25    24    1
   148    25    26    1
   149    26    27    2
