@<TRIPOS>MOLECULE
tmp/5lcxA01.pdb
 125 119 0 0 0
SMALL
GASTEIGER

@<TRIPOS>ATOM
      1  N         15.0380   -9.9780  -10.8430 N.3    93  SER93      -0.1217
      2  CA        13.7450   -9.9230  -10.1450 C.3    93  SER93       0.1889
      3  C         13.0510   -8.5670  -10.1900 C.2    93  SER93       0.2288
      4  O         11.8520   -8.5030   -9.8890 O.2    93  SER93      -0.2866
      5  CB        13.9090  -10.2940   -8.6790 C.3    93  SER93       0.2089
      6  OG        14.5830   -9.2660   -7.9710 O.3    93  SER93      -0.2183
      7  N         12.5480  -11.0350    1.2040 N.3   104  PHE104     -0.1241
      8  CA        12.3440  -11.5320   -0.1700 C.3   104  PHE104      0.1605
      9  C         11.7240  -12.9350   -0.1300 C.2   104  PHE104      0.2264
     10  O         10.7360  -13.2250   -0.8270 O.2   104  PHE104     -0.2867
     11  CB        13.7040  -11.5360   -0.8840 C.3   104  PHE104      0.0534
     12  CG        13.6540  -11.7040   -2.3860 C.ar  104  PHE104     -0.0203
     13  CD1       13.4860  -10.6320   -3.1860 C.ar  104  PHE104     -0.0042
     14  CD2       13.8340  -12.9460   -2.9840 C.ar  104  PHE104     -0.0042
     15  CE1       13.4750  -10.7650   -4.5910 C.ar  104  PHE104     -0.0003
     16  CE2       13.8400  -13.0720   -4.3690 C.ar  104  PHE104     -0.0003
     17  CZ        13.6540  -11.9480   -5.1530 C.ar  104  PHE104     -0.0000
     18  N          8.0540  -14.5310   -1.4430 N.3   108  ILE108     -0.1245
     19  CA         7.9610  -15.7210   -2.2820 C.3   108  ILE108      0.1561
     20  C          6.9930  -16.7250   -1.6750 C.2   108  ILE108      0.2260
     21  O          6.1100  -17.2540   -2.3630 O.2   108  ILE108     -0.2867
     22  CB         9.3570  -16.3510   -2.5040 C.3   108  ILE108      0.0252
     23  CG1       10.1960  -15.4290   -3.3680 C.3   108  ILE108      0.0019
     24  CG2        9.2270  -17.7370   -3.1880 C.3   108  ILE108      0.0019
     25  CD1       11.6880  -15.8000   -3.5020 C.3   108  ILE108      0.0001
     26  N          3.4620  -18.0890   -3.4030 N.3   112  PHE112     -0.1241
     27  CA         3.1330  -19.4740   -3.7420 C.3   112  PHE112      0.1605
     28  C          1.8390  -19.9060   -3.0720 C.2   112  PHE112      0.2264
     29  O          1.0030  -20.5940   -3.6820 O.2   112  PHE112     -0.2867
     30  CB         4.2740  -20.4210   -3.3670 C.3   112  PHE112      0.0534
     31  CG         5.3430  -20.5340   -4.4300 C.ar  112  PHE112     -0.0203
     32  CD1        5.0380  -21.0850   -5.6710 C.ar  112  PHE112     -0.0042
     33  CD2        6.6610  -20.1370   -4.1980 C.ar  112  PHE112     -0.0042
     34  CE1        6.0040  -21.2160   -6.6440 C.ar  112  PHE112     -0.0003
     35  CE2        7.6150  -20.2770   -5.1910 C.ar  112  PHE112     -0.0003
     36  CZ         7.2760  -20.7990   -6.4090 C.ar  112  PHE112     -0.0000
     37  N          8.7050  -18.2910  -14.5550 N.3   178  SER178     -0.1202
     38  CA         8.4710  -18.6520  -13.1680 C.3   178  SER178      0.2020
     39  C          6.9730  -18.8630  -12.9820 C.2   178  SER178      0.2619
     40  O          6.1510  -18.4220  -13.7910 O.2   178  SER178     -0.2717
     41  CB         9.0030  -17.5920  -12.1890 C.3   178  SER178      0.2103
     42  OG         8.0870  -16.5480  -12.0540 O.3   178  SER178     -0.2182
     43  N          6.6260  -19.5260  -11.8840 N.am  179  SER179     -0.1937
     44  CA         5.2140  -19.6990  -11.5380 C.3   179  SER179      0.2055
     45  C          4.5000  -18.3630  -11.3670 C.2   179  SER179      0.2643
     46  O          3.2660  -18.2900  -11.5310 O.2   179  SER179     -0.2714
     47  CB         5.1040  -20.4960  -10.2710 C.3   179  SER179      0.2130
     48  OG         5.4120  -21.8800  -10.5130 O.3   179  SER179     -0.2179
     49  N          5.2350  -17.3150  -11.0520 N.am  180  PHE180     -0.1973
     50  CA         4.6330  -16.0120  -10.8070 C.3   180  PHE180      0.1639
     51  C          4.2310  -15.3030  -12.0960 C.2   180  PHE180      0.2290
     52  O          3.5720  -14.2540  -12.0180 O.2   180  PHE180     -0.2864
     53  CB         5.5750  -15.1500   -9.9390 C.3   180  PHE180      0.0560
     54  CG         5.8510  -15.7320   -8.5730 C.ar  180  PHE180     -0.0200
     55  CD1        5.0160  -16.6670   -8.0040 C.ar  180  PHE180     -0.0042
     56  CD2        6.9420  -15.2870   -7.8390 C.ar  180  PHE180     -0.0042
     57  CE1        5.2620  -17.1830   -6.7190 C.ar  180  PHE180     -0.0003
     58  CE2        7.2000  -15.8090   -6.5550 C.ar  180  PHE180     -0.0003
     59  CZ         6.3630  -16.7400   -6.0070 C.ar  180  PHE180     -0.0000
     60  N          6.1680   -7.8000   -6.4310 N.3   231  PHE231     -0.1241
     61  CA         6.7920   -8.5680   -7.5310 C.3   231  PHE231      0.1605
     62  C          6.1680   -8.1670   -8.8620 C.2   231  PHE231      0.2264
     63  O          5.9160   -8.9820   -9.7310 O.2   231  PHE231     -0.2867
     64  CB         6.6760  -10.0650   -7.3030 C.3   231  PHE231      0.0534
     65  CG         7.8010  -10.6450   -6.4590 C.ar  231  PHE231     -0.0203
     66  CD1        9.1270  -10.4050   -6.7630 C.ar  231  PHE231     -0.0042
     67  CD2        7.5060  -11.4600   -5.3760 C.ar  231  PHE231     -0.0042
     68  CE1       10.1530  -10.9830   -5.9630 C.ar  231  PHE231     -0.0003
     69  CE2        8.4980  -12.0270   -4.6030 C.ar  231  PHE231     -0.0003
     70  CZ         9.8230  -11.7900   -4.8990 C.ar  231  PHE231     -0.0000
     71  N          8.3990   -8.7620  -12.0360 N.3   234  GLU234     -0.1245
     72  CA         8.5680  -10.2100  -12.1930 C.3   234  GLU234      0.1567
     73  C          7.3190  -10.8330  -12.7930 C.2   234  GLU234      0.2260
     74  O          7.3880  -11.5910  -13.7700 O.2   234  GLU234     -0.2867
     75  CB         8.9030  -10.8490  -10.8350 C.3   234  GLU234      0.0388
     76  CG         8.8590  -12.4080  -10.8090 C.3   234  GLU234      0.1160
     77  CD        10.0110  -13.1020  -11.5070 C.2   234  GLU234      0.3649
     78  OE1       10.9130  -12.4150  -12.0160 O.co2 234  GLU234     -0.2457
     79  OE2        9.9810  -14.3750  -11.5300 O.co2 234  GLU234     -0.2457
     80  N          7.3570  -12.2440  -16.6700 N.3   238  LYS238     -0.1245
     81  CA         7.2310  -13.6840  -16.8610 C.3   238  LYS238      0.1561
     82  C          5.9050  -14.0510  -17.5300 C.2   238  LYS238      0.2260
     83  O          5.8580  -14.9900  -18.3400 O.2   238  LYS238     -0.2867
     84  CB         7.4060  -14.4170  -15.5270 C.3   238  LYS238      0.0271
     85  CG         8.8250  -14.2550  -14.9050 C.3   238  LYS238      0.0035
     86  CD         9.9900  -14.8640  -15.7150 C.3   238  LYS238      0.0206
     87  CE        11.2490  -15.0650  -14.8590 C.3   238  LYS238      0.1093
     88  NZ        12.4190  -15.6020  -15.6180 N.3   238  LYS238     -0.1314
     89  N          8.8240  -23.4470  -15.0700 N.3   261  CYS261     -0.1235
     90  CA         9.2590  -22.9610  -13.7670 C.3   261  CYS261      0.1677
     91  C         10.0830  -24.0570  -13.1140 C.2   261  CYS261      0.2270
     92  O          9.6090  -25.2100  -13.0170 O.2   261  CYS261     -0.2867
     93  CB         8.0810  -22.5970  -12.8680 C.3   261  CYS261      0.0956
     94  SG         8.5660  -22.1010  -11.1580 S.3   261  CYS261     -0.0801
     95  N         10.9190  -24.4150  -10.0390 N.3   263  GLY263     -0.1210
     96  CA        10.6610  -24.5370   -8.6320 C.3   263  GLY263      0.1956
     97  C         11.4820  -23.5320   -7.8580 C.2   263  GLY263      0.2611
     98  O         12.3650  -22.8710   -8.3840 O.2   263  GLY263     -0.2717
     99  N         11.1860  -23.4360   -6.5700 N.am  264  TYR264     -0.1976
    100  CA        11.8520  -22.4960   -5.6720 C.3   264  TYR264      0.1639
    101  C         13.1760  -23.0930   -5.2140 C.2   264  TYR264      0.2290
    102  O         13.1990  -24.1020   -4.5000 O.2   264  TYR264     -0.2864
    103  CB        10.9050  -22.2130   -4.5120 C.3   264  TYR264      0.0560
    104  CG        11.3380  -21.1960   -3.4900 C.ar  264  TYR264     -0.0198
    105  CD1       12.3100  -20.2790   -3.7460 C.ar  264  TYR264     -0.0009
    106  CD2       10.7200  -21.1670   -2.2380 C.ar  264  TYR264     -0.0009
    107  CE1       12.7080  -19.3370   -2.7660 C.ar  264  TYR264      0.0417
    108  CE2       11.1090  -20.2690   -1.2770 C.ar  264  TYR264      0.0417
    109  CZ        12.0950  -19.3600   -1.5530 C.ar  264  TYR264      0.1957
    110  OH        12.4520  -18.4360   -0.5920 O.3   264  TYR264     -0.2866
    111  N         19.6290  -15.2170   -6.6180 N.3   269  ILE269     -0.1231
    112  CA        18.4210  -14.4030   -6.7440 C.3   269  ILE269      0.1692
    113  C         17.4810  -14.5980   -5.5630 C.2   269  ILE269      0.2592
    114  O         16.7270  -13.6670   -5.2220 O.2   269  ILE269     -0.2718
    115  CB        17.7370  -14.6730   -8.1050 C.3   269  ILE269      0.0266
    116  CG1       16.9990  -13.4400   -8.5540 C.3   269  ILE269      0.0019
    117  CG2       16.8430  -15.9020   -8.0910 C.3   269  ILE269      0.0020
    118  CD1       16.5790  -13.5380  -10.0400 C.3   269  ILE269      0.0001
    119  N         17.5380  -15.7540   -4.8900 N.am  270  THR270     -0.1953
    120  CA        16.6980  -16.0610   -3.7270 C.3   270  THR270      0.1897
    121  C         17.4870  -15.9820   -2.4320 C.2   270  THR270      0.2313
    122  O         17.0200  -16.4670   -1.3970 O.2   270  THR270     -0.2863
    123  CB        16.0790  -17.4550   -3.8210 C.3   270  THR270      0.1794
    124  OG1       17.1340  -18.4210   -3.8560 O.3   270  THR270     -0.2208
    125  CG2       15.1800  -17.6040   -5.0310 C.3   270  THR270      0.0378
@<TRIPOS>BOND
     1    83    82    2
     2    82    81    1
     3    81    80    1
     4    81    84    1
     5    86    85    1
     6    86    87    1
     7    88    87    1
     8    84    85    1
     9    89    90    1
    10    37    38    1
    11    40    39    2
    12    74    73    2
    13    90    91    1
    14    90    93    1
    15    38    39    1
    16    38    41    1
    17    91    92    2
    18    39    43   am
    19    93    94    1
    20    73    72    1
    21    72    71    1
    22    72    75    1
    23    41    42    1
    24    51    52    2
    25    51    50    1
    26    78    77   ar
    27    43    44    1
    28    44    45    1
    29    44    47    1
    30    46    45    2
    31    79    77   ar
    32    77    76    1
    33    45    49   am
    34    49    50    1
    35     1     2    1
    36    75    76    1
    37    50    53    1
    38    48    47    1
    39     3     2    1
    40     3     4    2
    41     2     5    1
    42   118   116    1
    43    95    96    1
    44    53    54    1
    45    63    62    2
    46    62    61    1
    47     5     6    1
    48    96    97    1
    49    54    55   ar
    50    54    56   ar
    51   116   115    1
    52    98    97    2
    53   115   117    1
    54   115   112    1
    55    55    57   ar
    56    97    99   am
    57    56    58   ar
    58    61    64    1
    59    61    60    1
    60    64    65    1
    61    66    65   ar
    62    66    68   ar
    63   112   111    1
    64   112   113    1
    65    57    59   ar
    66    34    36   ar
    67    34    32   ar
    68    99   100    1
    69    58    59   ar
    70    65    67   ar
    71    36    35   ar
    72    68    70   ar
    73   100   101    1
    74   100   103    1
    75    32    31   ar
    76   113   114    2
    77   113   119   am
    78    67    69   ar
    79   101   102    2
    80    35    33   ar
    81    17    15   ar
    82    17    16   ar
    83   125   123    1
    84    70    69   ar
    85   119   120    1
    86    15    13   ar
    87   103   104    1
    88    31    33   ar
    89    31    30    1
    90    16    14   ar
    91   124   123    1
    92   123   120    1
    93   105   104   ar
    94   105   107   ar
    95    27    26    1
    96    27    30    1
    97    27    28    1
    98   120   121    1
    99    29    28    2
   100    25    23    1
   101   104   106   ar
   102    23    22    1
   103    24    22    1
   104    13    12   ar
   105    14    12   ar
   106   107   109   ar
   107    22    19    1
   108   121   122    2
   109    12    11    1
   110    21    20    2
   111    19    20    1
   112    19    18    1
   113   106   108   ar
   114   109   108   ar
   115   109   110    1
   116    11     8    1
   117    10     9    2
   118     8     9    1
   119     8     7    1
