@<TRIPOS>MOLECULE
tmp/5lcxA02.pdb
 85 78 0 0 0
SMALL
GASTEIGER

@<TRIPOS>ATOM
      1  N         -1.3430  -15.8100  -15.0700 N.3   183  LEU183     -0.1245
      2  CA        -2.2930  -14.7010  -15.2330 C.3   183  LEU183      0.1561
      3  C         -3.1670  -14.5150  -14.0010 C.2   183  LEU183      0.2260
      4  O         -3.6870  -13.4160  -13.7780 O.2   183  LEU183     -0.2867
      5  CB        -3.1300  -14.9370  -16.4950 C.3   183  LEU183      0.0270
      6  CG        -2.3840  -14.9280  -17.8090 C.3   183  LEU183      0.0019
      7  CD1       -3.4020  -15.0440  -18.9660 C.3   183  LEU183      0.0001
      8  CD2       -1.4990  -13.6940  -18.0290 C.3   183  LEU183      0.0001
      9  N         -3.1000  -11.0470  -22.8970 N.3   195  LEU195     -0.1231
     10  CA        -2.1460  -12.1440  -22.9040 C.3   195  LEU195      0.1693
     11  C         -2.8320  -13.5020  -22.9740 C.2   195  LEU195      0.2592
     12  O         -2.2140  -14.4960  -23.4070 O.2   195  LEU195     -0.2718
     13  CB        -1.2700  -12.0660  -21.6530 C.3   195  LEU195      0.0284
     14  CG        -0.4170  -10.8260  -21.5330 C.3   195  LEU195      0.0019
     15  CD1        0.4850  -10.9550  -20.3080 C.3   195  LEU195      0.0001
     16  CD2        0.4430  -10.5290  -22.7650 C.3   195  LEU195      0.0001
     17  N         -4.0970  -13.5690  -22.5630 N.am  196  GLY196     -0.1957
     18  CA        -4.8530  -14.8070  -22.6030 C.3   196  GLY196      0.1869
     19  C         -5.5790  -15.0880  -23.9060 C.2   196  GLY196      0.2309
     20  O         -6.0310  -16.2070  -24.1110 O.2   196  GLY196     -0.2863
     21  N         -5.5010  -16.1100  -27.0960 N.3   198  GLU198     -0.1245
     22  CA        -4.4640  -16.7340  -27.9180 C.3   198  GLU198      0.1567
     23  C         -4.7040  -16.5280  -29.4060 C.2   198  GLU198      0.2260
     24  O         -3.7430  -16.4320  -30.1730 O.2   198  GLU198     -0.2867
     25  CB        -4.3540  -18.2330  -27.6200 C.3   198  GLU198      0.0388
     26  CG        -3.8200  -18.5040  -26.2400 C.3   198  GLU198      0.1160
     27  CD        -3.8000  -19.9730  -25.8550 C.2   198  GLU198      0.3649
     28  OE1       -3.7500  -20.8540  -26.7570 O.co2 198  GLU198     -0.2457
     29  OE2       -3.8120  -20.2330  -24.6300 O.co2 198  GLU198     -0.2457
     30  N         -3.1610  -13.1390  -30.1680 N.3   201  LEU201     -0.1245
     31  CA        -1.8410  -12.8680  -29.6200 C.3   201  LEU201      0.1561
     32  C         -0.8250  -12.6280  -30.7020 C.2   201  LEU201      0.2260
     33  O         -0.6600  -13.4500  -31.6120 O.2   201  LEU201     -0.2867
     34  CB        -1.3350  -14.0390  -28.7790 C.3   201  LEU201      0.0270
     35  CG        -1.3110  -14.0200  -27.2750 C.3   201  LEU201      0.0019
     36  CD1       -0.5840  -15.2660  -26.7640 C.3   201  LEU201      0.0001
     37  CD2       -0.7280  -12.7630  -26.7150 C.3   201  LEU201      0.0001
     38  N          4.8170  -13.3040  -17.2520 N.3   239  ALA239     -0.1245
     39  CA         3.5980  -13.5110  -18.0320 C.3   239  ALA239      0.1562
     40  C          3.8470  -13.2000  -19.5120 C.2   239  ALA239      0.2260
     41  O          3.3730  -13.9140  -20.4140 O.2   239  ALA239     -0.2867
     42  CB         2.4800  -12.6420  -17.4840 C.3   239  ALA239      0.0290
     43  N          5.7570  -16.0320  -21.0950 N.3   242  ASN242     -0.1225
     44  CA         4.8740  -17.1660  -21.3790 C.3   242  ASN242      0.1785
     45  C          4.0590  -16.9090  -22.6300 C.2   242  ASN242      0.2597
     46  O          3.8520  -17.8160  -23.4400 O.2   242  ASN242     -0.2718
     47  CB         3.9250  -17.4220  -20.2120 C.3   242  ASN242      0.1169
     48  CG         4.6160  -17.9140  -18.9650 C.2   242  ASN242      0.2627
     49  OD1        5.7930  -18.2940  -18.9670 O.2   242  ASN242     -0.2716
     50  ND2        3.8620  -17.9310  -17.8790 N.am  242  ASN242     -0.0877
     51  N          3.5840  -15.6710  -22.7980 N.am  243  ALA243     -0.1979
     52  CA         2.8010  -15.3510  -23.9940 C.3   243  ALA243      0.1597
     53  C          3.6460  -15.4350  -25.2410 C.2   243  ALA243      0.2287
     54  O          3.2130  -15.9860  -26.2710 O.2   243  ALA243     -0.2864
     55  CB         2.2060  -13.9430  -23.8660 C.3   243  ALA243      0.0319
     56  N          4.1170  -18.9190  -26.4830 N.3   246  LYS246     -0.1245
     57  CA         3.0040  -19.3770  -27.2940 C.3   246  LYS246      0.1561
     58  C          3.0860  -18.8030  -28.7030 C.2   246  LYS246      0.2260
     59  O          2.8760  -19.5270  -29.6830 O.2   246  LYS246     -0.2867
     60  CB         1.6820  -18.9750  -26.6370 C.3   246  LYS246      0.0271
     61  CG         0.4380  -19.3590  -27.4510 C.3   246  LYS246      0.0035
     62  CD         0.2130  -20.8810  -27.5080 C.3   246  LYS246      0.0206
     63  CE        -0.3430  -21.3860  -26.1570 C.3   246  LYS246      0.1093
     64  NZ        -0.4700  -22.8830  -26.1290 N.3   246  LYS246     -0.1314
     65  N          4.6300  -24.6130  -27.0450 N.3   298  GLY298     -0.1210
     66  CA         3.8860  -23.4160  -26.7470 C.3   298  GLY298      0.1956
     67  C          3.3130  -23.3430  -25.3510 C.2   298  GLY298      0.2612
     68  O          2.4960  -22.4540  -25.0940 O.2   298  GLY298     -0.2717
     69  N          3.7400  -24.2150  -24.4380 N.am  299  CYS299     -0.1956
     70  CA         3.1380  -24.4100  -23.1220 C.3   299  CYS299      0.1843
     71  C          4.0140  -23.8150  -22.0240 C.2   299  CYS299      0.2625
     72  O          5.2100  -23.5900  -22.2210 O.2   299  CYS299     -0.2714
     73  CB         2.9620  -25.8740  -22.7950 C.3   299  CYS299      0.0997
     74  SG         1.7740  -26.6640  -23.9490 S.3   299  CYS299     -0.0797
     75  N          3.3980  -23.6140  -20.8570 N.am  300  PHE300     -0.1974
     76  CA         4.1130  -23.3470  -19.6000 C.3   300  PHE300      0.1639
     77  C          3.9590  -24.5620  -18.6930 C.2   300  PHE300      0.2290
     78  O          2.8360  -25.0480  -18.4940 O.2   300  PHE300     -0.2864
     79  CB         3.6030  -22.0900  -18.8750 C.3   300  PHE300      0.0560
     80  CG         4.0850  -21.9980  -17.4570 C.ar  300  PHE300     -0.0200
     81  CD1        5.3520  -21.5310  -17.1690 C.ar  300  PHE300     -0.0042
     82  CD2        3.2970  -22.4570  -16.4200 C.ar  300  PHE300     -0.0042
     83  CE1        5.8200  -21.5040  -15.8660 C.ar  300  PHE300     -0.0003
     84  CE2        3.7560  -22.4390  -15.1240 C.ar  300  PHE300     -0.0003
     85  CZ         5.0260  -21.9620  -14.8450 C.ar  300  PHE300     -0.0000
@<TRIPOS>BOND
     1    33    32    2
     2    32    31    1
     3    24    23    2
     4    30    31    1
     5    59    58    2
     6    31    34    1
     7    23    22    1
     8    34    35    1
     9    58    57    1
    10    22    25    1
    11    22    21    1
    12    25    26    1
    13    62    61    1
    14    62    63    1
    15    61    60    1
    16    57    60    1
    17    57    56    1
    18    35    36    1
    19    35    37    1
    20    65    66    1
    21    28    27   ar
    22    66    67    1
    23    54    53    2
    24    26    27    1
    25    63    64    1
    26    27    29   ar
    27    67    68    2
    28    67    69   am
    29    53    52    1
    30    69    70    1
    31    20    19    2
    32    52    55    1
    33    52    51    1
    34    74    73    1
    35    19    18    1
    36    46    45    2
    37    12    11    2
    38    70    73    1
    39    70    71    1
    40    11    10    1
    41    11    17   am
    42    10     9    1
    43    10    13    1
    44    51    45   am
    45    16    14    1
    46    45    44    1
    47    18    17    1
    48    72    71    2
    49    71    75   am
    50    13    14    1
    51    14    15    1
    52    44    43    1
    53    44    47    1
    54    75    76    1
    55    41    40    2
    56    47    48    1
    57    76    79    1
    58    76    77    1
    59    40    39    1
    60    49    48    2
    61     7     6    1
    62    48    50   am
    63    79    80    1
    64    77    78    2
    65    39    42    1
    66    39    38    1
    67     8     6    1
    68     6     5    1
    69    80    81   ar
    70    80    82   ar
    71    81    83   ar
    72     5     2    1
    73    82    84   ar
    74    83    85   ar
    75     2     1    1
    76     2     3    1
    77    84    85   ar
    78     3     4    2
