@<TRIPOS>MOLECULE
tmp/5ld1B01.pdb
 105 102 0 0 0
SMALL
GASTEIGER

@<TRIPOS>ATOM
      1  N         20.1130  -58.7770  -32.1590 N.3    65  MET65      -0.1230
      2  CA        21.4250  -58.2670  -31.7130 C.3    65  MET65       0.1702
      3  C         21.5360  -56.8420  -32.3060 C.2    65  MET65       0.2592
      4  O         20.8930  -56.5420  -33.3280 O.2    65  MET65      -0.2718
      5  CB        22.5420  -59.1570  -32.3070 C.3    65  MET65       0.0401
      6  CG        22.5200  -60.5990  -31.7750 C.3    65  MET65       0.0596
      7  SD        22.5760  -60.6710  -29.9560 S.3    65  MET65      -0.1393
      8  CE        24.2640  -60.0940  -29.6650 C.3    65  MET65       0.0692
      9  N         22.2990  -55.9610  -31.6680 N.am   66  ASP66      -0.1960
     10  CA        22.4840  -54.5880  -32.1670 C.3    66  ASP66       0.1840
     11  C         22.9170  -54.6030  -33.6420 C.2    66  ASP66       0.2622
     12  O         23.7440  -55.4420  -34.0380 O.2    66  ASP66      -0.2715
     13  CB        23.4930  -53.8160  -31.2960 C.3    66  ASP66       0.1450
     14  CG        23.4300  -52.3010  -31.4790 C.2    66  ASP66       0.3671
     15  OD1       22.3930  -51.7960  -31.9930 O.co2  66  ASP66      -0.2456
     16  OD2       24.3830  -51.6190  -31.0600 O.co2  66  ASP66      -0.2456
     17  N         22.3260  -53.7030  -34.4470 N.am   67  ALA67      -0.1963
     18  CA        22.4730  -53.5820  -35.9170 C.3    67  ALA67       0.1728
     19  C         21.7100  -54.7090  -36.6750 C.2    67  ALA67       0.2617
     20  O         21.7780  -54.7800  -37.9040 O.2    67  ALA67      -0.2715
     21  CB        23.9520  -53.5190  -36.3450 C.3    67  ALA67       0.0334
     22  N         20.9420  -55.5160  -35.9370 N.am   68  GLY68      -0.1940
     23  CA        20.1670  -56.6410  -36.4770 C.3    68  GLY68       0.2014
     24  C         18.9470  -56.3160  -37.3180 C.2    68  GLY68       0.2639
     25  O         18.3440  -57.2170  -37.9030 O.2    68  GLY68      -0.2714
     26  N         18.5380  -55.0510  -37.3410 N.am   69  GLY69      -0.1939
     27  CA        17.4140  -54.6390  -38.1740 C.3    69  GLY69       0.2014
     28  C         16.1170  -54.1950  -37.5300 C.2    69  GLY69       0.2639
     29  O         15.1420  -53.9920  -38.2560 O.2    69  GLY69      -0.2714
     30  N         16.0640  -54.0170  -36.1940 N.am   70  LYS70      -0.1963
     31  CA        14.8160  -53.5900  -35.5410 C.3    70  LYS70       0.1728
     32  C         14.3600  -52.2310  -36.0570 C.2    70  LYS70       0.2616
     33  O         13.1940  -52.0620  -36.4230 O.2    70  LYS70      -0.2715
     34  CB        14.9340  -53.5770  -34.0020 C.3    70  LYS70       0.0311
     35  CG        15.2850  -54.9480  -33.3790 C.3    70  LYS70       0.0038
     36  CD        15.4300  -54.8790  -31.8540 C.3    70  LYS70       0.0206
     37  CE        16.5850  -54.0060  -31.3520 C.3    70  LYS70       0.1093
     38  NZ        17.9310  -54.5370  -31.7360 N.3    70  LYS70      -0.1314
     39  N         15.2970  -51.2920  -36.1390 N.am   71  ASP71      -0.1971
     40  CA        15.0560  -49.9240  -36.6010 C.3    71  ASP71       0.1709
     41  C         14.5590  -49.9010  -38.0620 C.2    71  ASP71       0.2293
     42  O         13.5930  -49.1960  -38.3690 O.2    71  ASP71      -0.2864
     43  CB        16.3520  -49.0890  -36.4470 C.3    71  ASP71       0.1436
     44  CG        16.1760  -47.6250  -36.8220 C.2    71  ASP71       0.3671
     45  OD1       15.5090  -46.8800  -36.0510 O.co2  71  ASP71      -0.2456
     46  OD2       16.7260  -47.2160  -37.8620 O.co2  71  ASP71      -0.2456
     47  N          9.3630  -48.7550  -27.0470 N.3    90  SER90      -0.1217
     48  CA        10.7170  -49.2880  -26.9560 C.3    90  SER90       0.1889
     49  C         11.1060  -49.5030  -25.5150 C.2    90  SER90       0.2288
     50  O         10.6660  -48.7770  -24.6150 O.2    90  SER90      -0.2866
     51  CB        11.7230  -48.3860  -27.6730 C.3    90  SER90       0.2089
     52  OG        11.6840  -47.0930  -27.1070 O.3    90  SER90      -0.2183
     53  N          9.8750  -52.5290  -29.5550 N.3   121  ASN121     -0.1225
     54  CA        11.2780  -52.5260  -29.9690 C.3   121  ASN121      0.1785
     55  C         11.9970  -52.9700  -28.6870 C.2   121  ASN121      0.2597
     56  O         12.1080  -52.1940  -27.7230 O.2   121  ASN121     -0.2718
     57  CB        11.7450  -51.1310  -30.4330 C.3   121  ASN121      0.1169
     58  CG        13.1270  -51.2310  -31.0060 C.2   121  ASN121      0.2627
     59  OD1       13.6430  -52.3150  -31.2050 O.2   121  ASN121     -0.2716
     60  ND2       13.8010  -50.1440  -31.2160 N.am  121  ASN121     -0.0877
     61  N         12.4450  -54.2430  -28.6600 N.am  122  ARG122     -0.1979
     62  CA        12.9080  -54.9560  -27.4580 C.3   122  ARG122      0.1597
     63  C         11.6120  -55.1720  -26.6510 C.2   122  ARG122      0.2287
     64  O         10.5500  -54.6870  -27.0560 O.2   122  ARG122     -0.2864
     65  CB        13.9870  -54.2260  -26.6400 C.3   122  ARG122      0.0334
     66  CG        15.2890  -54.1120  -27.4280 C.3   122  ARG122      0.0492
     67  CD        16.2810  -53.1470  -26.8340 C.3   122  ARG122      0.2205
     68  NE        16.8780  -52.3560  -27.9060 N.pl3 122  ARG122     -0.0865
     69  CZ        16.4240  -51.1800  -28.3100 C.cat 122  ARG122      0.5346
     70  NH1       17.0030  -50.5530  -29.3170 N.pl3 122  ARG122      0.1354
     71  NH2       15.4250  -50.5980  -27.6760 N.pl3 122  ARG122      0.1354
     72  N         28.7330  -47.8060  -38.7810 N.3   182  ARG182     -0.1245
     73  CA        28.2010  -46.7790  -37.8610 C.3   182  ARG182      0.1563
     74  C         29.3130  -45.8680  -37.3900 C.2   182  ARG182      0.2260
     75  O         29.1770  -44.6380  -37.4150 O.2   182  ARG182     -0.2867
     76  CB        27.5970  -47.4100  -36.6050 C.3   182  ARG182      0.0307
     77  CG        26.2730  -48.0510  -36.8200 C.3   182  ARG182      0.0489
     78  CD        25.7120  -48.4430  -35.4860 C.3   182  ARG182      0.2205
     79  NE        24.4440  -49.1230  -35.6970 N.pl3 182  ARG182     -0.0865
     80  CZ        23.7250  -49.6860  -34.7470 C.cat 182  ARG182      0.5346
     81  NH1       24.1520  -49.6810  -33.4940 N.pl3 182  ARG182      0.1354
     82  NH2       22.5820  -50.2820  -35.0460 N.pl3 182  ARG182      0.1354
     83  N         27.2770  -41.5350  -33.0110 N.3   190  TRP190     -0.1227
     84  CA        26.6480  -41.2460  -31.7230 C.3   190  TRP190      0.1737
     85  C         26.0210  -42.5140  -31.1130 C.2   190  TRP190      0.2595
     86  O         25.8320  -42.5690  -29.9010 O.2   190  TRP190     -0.2718
     87  CB        25.5840  -40.1230  -31.8560 C.3   190  TRP190      0.0564
     88  CG        24.4490  -40.4440  -32.7970 C.ar  190  TRP190      0.0003
     89  CD1       24.3910  -40.1610  -34.1290 C.ar  190  TRP190      0.0946
     90  CD2       23.2370  -41.1620  -32.4840 C.ar  190  TRP190      0.0152
     91  NE1       23.2050  -40.6150  -34.6600 N.ar  190  TRP190     -0.2442
     92  CE2       22.4700  -41.2180  -33.6690 C.ar  190  TRP190      0.0810
     93  CE3       22.6920  -41.6970  -31.2960 C.ar  190  TRP190      0.0012
     94  CZ2       21.2250  -41.8510  -33.7250 C.ar  190  TRP190      0.0191
     95  CZ3       21.4600  -42.3280  -31.3540 C.ar  190  TRP190      0.0001
     96  CH2       20.7350  -42.3950  -32.5580 C.ar  190  TRP190      0.0015
     97  N         25.6590  -43.5030  -31.9600 N.am  191  LYS191     -0.1980
     98  CA        25.0450  -44.7750  -31.5310 C.3   191  LYS191      0.1596
     99  C         26.0490  -45.6190  -30.7120 C.2   191  LYS191      0.2287
    100  O         25.6370  -46.3500  -29.8170 O.2   191  LYS191     -0.2864
    101  CB        24.5710  -45.6040  -32.7400 C.3   191  LYS191      0.0298
    102  CG        23.4130  -44.9800  -33.5080 C.3   191  LYS191      0.0038
    103  CD        22.8670  -45.8890  -34.5650 C.3   191  LYS191      0.0206
    104  CE        21.8750  -45.0980  -35.3770 C.3   191  LYS191      0.1093
    105  NZ        21.0580  -45.9450  -36.2610 N.3   191  LYS191     -0.1314
@<TRIPOS>BOND
     1    72    73    1
     2    42    41    2
     3    29    28    2
     4    27    28    1
     5    27    26    1
     6    41    40    1
     7    20    19    2
     8    25    24    2
     9    46    44   ar
    10    73    74    1
    11    73    76    1
    12    28    30   am
    13    75    74    2
    14    26    24   am
    15    24    23    1
    16    44    43    1
    17    44    45   ar
    18    77    76    1
    19    77    78    1
    20    19    22   am
    21    19    18    1
    22    40    43    1
    23    40    39    1
    24    23    22    1
    25    33    32    2
    26    21    18    1
    27   105   104    1
    28    30    31    1
    29    39    32   am
    30    32    31    1
    31    18    17    1
    32    79    78    1
    33    79    80    2
    34    31    34    1
    35   104   103    1
    36    82    80    1
    37    80    81    1
    38    91    89   ar
    39    91    92   ar
    40   103   102    1
    41    17    11   am
    42    89    88   ar
    43    12    11    2
    44    34    35    1
    45    94    92   ar
    46    94    96   ar
    47    92    90   ar
    48    11    10    1
    49   102   101    1
    50    35    36    1
    51     4     3    2
    52    83    84    1
    53    88    90   ar
    54    88    87    1
    55   101    98    1
    56    96    95   ar
    57    90    93   ar
    58     5     6    1
    59     5     2    1
    60     3     2    1
    61     3     9   am
    62    10     9    1
    63    10    13    1
    64     1     2    1
    65    15    14   ar
    66    97    98    1
    67    97    85   am
    68    87    84    1
    69    36    37    1
    70     6     7    1
    71    38    37    1
    72    84    85    1
    73    98    99    1
    74    14    13    1
    75    14    16   ar
    76    95    93   ar
    77    60    58   am
    78    59    58    2
    79    85    86    2
    80    58    57    1
    81    99   100    2
    82    57    54    1
    83    54    53    1
    84    54    55    1
    85     7     8    1
    86    70    69    1
    87    55    61   am
    88    55    56    2
    89    61    62    1
    90    69    68    2
    91    69    71    1
    92    68    67    1
    93    51    52    1
    94    51    48    1
    95    62    63    1
    96    62    65    1
    97    66    67    1
    98    66    65    1
    99    64    63    2
   100    47    48    1
   101    48    49    1
   102    49    50    2
