@<TRIPOS>MOLECULE
tmp/5ldgA01.pdb
 124 117 0 0 0
SMALL
GASTEIGER

@<TRIPOS>ATOM
      1  N        -15.0720   -9.8790   10.7150 N.3    93  SER93      -0.1217
      2  CA       -13.8390   -9.7930    9.9370 C.3    93  SER93       0.1889
      3  C        -13.1280   -8.4590   10.0280 C.2    93  SER93       0.2288
      4  O        -11.9320   -8.3950    9.7230 O.2    93  SER93      -0.2866
      5  CB       -14.1320  -10.0370    8.4450 C.3    93  SER93       0.2089
      6  OG       -14.8520   -8.9530    7.8760 O.3    93  SER93      -0.2183
      7  N        -12.3230  -11.1020   -1.3500 N.3   104  PHE104     -0.1241
      8  CA       -12.1080  -11.5800    0.0230 C.3   104  PHE104      0.1605
      9  C        -11.4410  -12.9570    0.0130 C.2   104  PHE104      0.2264
     10  O        -10.4580  -13.1970    0.7260 O.2   104  PHE104     -0.2867
     11  CB       -13.4590  -11.5880    0.7330 C.3   104  PHE104      0.0534
     12  CG       -13.3950  -11.8670    2.2130 C.ar  104  PHE104     -0.0203
     13  CD1      -13.4150  -13.1620    2.6880 C.ar  104  PHE104     -0.0042
     14  CD2      -13.3620  -10.8410    3.1350 C.ar  104  PHE104     -0.0042
     15  CE1      -13.3800  -13.4130    4.0280 C.ar  104  PHE104     -0.0003
     16  CE2      -13.3620  -11.1120    4.4760 C.ar  104  PHE104     -0.0003
     17  CZ       -13.3530  -12.3790    4.9080 C.ar  104  PHE104     -0.0000
     18  N         -7.7770  -14.5620    1.3710 N.3   108  ILE108     -0.1245
     19  CA        -7.6710  -15.7400    2.2260 C.3   108  ILE108      0.1561
     20  C         -6.6950  -16.7400    1.6210 C.2   108  ILE108      0.2260
     21  O         -5.8280  -17.2940    2.3060 O.2   108  ILE108     -0.2867
     22  CB        -9.0560  -16.3760    2.4360 C.3   108  ILE108      0.0252
     23  CG1       -9.9740  -15.4000    3.1660 C.3   108  ILE108      0.0019
     24  CG2       -8.9330  -17.7130    3.1920 C.3   108  ILE108      0.0019
     25  CD1       -9.6000  -15.2110    4.5940 C.3   108  ILE108      0.0001
     26  N         -3.1880  -18.1280    3.2880 N.3   112  PHE112     -0.1241
     27  CA        -2.8620  -19.5190    3.5860 C.3   112  PHE112      0.1605
     28  C         -1.5280  -19.9090    2.9480 C.2   112  PHE112      0.2264
     29  O         -0.6990  -20.5810    3.5790 O.2   112  PHE112     -0.2867
     30  CB        -3.9970  -20.4560    3.1450 C.3   112  PHE112      0.0534
     31  CG        -5.1420  -20.6040    4.1600 C.ar  112  PHE112     -0.0203
     32  CD1       -4.9190  -21.0430    5.4580 C.ar  112  PHE112     -0.0042
     33  CD2       -6.4460  -20.3240    3.7790 C.ar  112  PHE112     -0.0042
     34  CE1       -5.9820  -21.1860    6.3510 C.ar  112  PHE112     -0.0003
     35  CE2       -7.5060  -20.4660    4.6590 C.ar  112  PHE112     -0.0003
     36  CZ        -7.2850  -20.8770    5.9360 C.ar  112  PHE112     -0.0000
     37  N         -8.2800  -18.4870   14.6650 N.3   178  SER178     -0.1217
     38  CA        -7.9270  -18.6300   13.2690 C.3   178  SER178      0.1889
     39  C         -6.4410  -18.8890   13.1900 C.2   178  SER178      0.2288
     40  O         -5.6750  -18.2940   13.9340 O.2   178  SER178     -0.2866
     41  CB        -8.2180  -17.3250   12.4870 C.3   178  SER178      0.2089
     42  OG        -7.6970  -17.4250   11.1970 O.3   178  SER178     -0.2183
     43  N         -4.7970  -17.4770   11.0830 N.3   180  PHE180     -0.1241
     44  CA        -4.2520  -16.1700   10.7620 C.3   180  PHE180      0.1605
     45  C         -3.9090  -15.3450   11.9890 C.2   180  PHE180      0.2264
     46  O         -3.3160  -14.2760   11.8340 O.2   180  PHE180     -0.2867
     47  CB        -5.1930  -15.4330    9.8380 C.3   180  PHE180      0.0534
     48  CG        -5.4180  -16.1320    8.5220 C.ar  180  PHE180     -0.0203
     49  CD1       -4.4280  -16.9040    7.9350 C.ar  180  PHE180     -0.0042
     50  CD2       -6.6080  -15.9750    7.8360 C.ar  180  PHE180     -0.0042
     51  CE1       -4.6300  -17.5100    6.6990 C.ar  180  PHE180     -0.0003
     52  CE2       -6.8260  -16.5890    6.6340 C.ar  180  PHE180     -0.0003
     53  CZ        -5.8320  -17.3500    6.0440 C.ar  180  PHE180     -0.0000
     54  N         -6.1400   -7.7120    6.3730 N.3   231  PHE231     -0.1241
     55  CA        -6.7410   -8.4560    7.4860 C.3   231  PHE231      0.1605
     56  C         -6.0800   -8.0790    8.8090 C.2   231  PHE231      0.2264
     57  O         -5.8690   -8.9050    9.7030 O.2   231  PHE231     -0.2867
     58  CB        -6.6850   -9.9770    7.2850 C.3   231  PHE231      0.0534
     59  CG        -7.7080  -10.5200    6.3190 C.ar  231  PHE231     -0.0203
     60  CD1       -9.0510  -10.1770    6.4530 C.ar  231  PHE231     -0.0042
     61  CD2       -7.3470  -11.3930    5.3220 C.ar  231  PHE231     -0.0042
     62  CE1      -10.0140  -10.6770    5.6020 C.ar  231  PHE231     -0.0003
     63  CE2       -8.3320  -11.9180    4.4450 C.ar  231  PHE231     -0.0003
     64  CZ        -9.6510  -11.5420    4.5970 C.ar  231  PHE231     -0.0000
     65  N         -8.3220   -8.5490   12.0130 N.3   234  GLU234     -0.1245
     66  CA        -8.5630   -9.9730   12.2080 C.3   234  GLU234      0.1567
     67  C         -7.3250  -10.6520   12.7800 C.2   234  GLU234      0.2260
     68  O         -7.4140  -11.4340   13.7400 O.2   234  GLU234     -0.2867
     69  CB        -8.9950  -10.6080   10.8830 C.3   234  GLU234      0.0388
     70  CG        -9.0800  -12.1440   10.9030 C.3   234  GLU234      0.1160
     71  CD       -10.2090  -12.7150   11.6960 C.2   234  GLU234      0.3649
     72  OE1      -11.0440  -11.9370   12.2020 O.co2 234  GLU234     -0.2457
     73  OE2      -10.2870  -13.9730   11.7840 O.co2 234  GLU234     -0.2457
     74  N         -7.2290  -12.1420   16.6090 N.3   238  LYS238     -0.1245
     75  CA        -7.0820  -13.5790   16.8200 C.3   238  LYS238      0.1561
     76  C         -5.7640  -13.9220   17.5140 C.2   238  LYS238      0.2260
     77  O         -5.7140  -14.8340   18.3530 O.2   238  LYS238     -0.2867
     78  CB        -7.2880  -14.3410   15.5130 C.3   238  LYS238      0.0271
     79  CG        -8.6760  -14.2080   14.9150 C.3   238  LYS238      0.0035
     80  CD        -9.7890  -14.7980   15.7110 C.3   238  LYS238      0.0206
     81  CE       -11.0650  -14.9680   14.8560 C.3   238  LYS238      0.1093
     82  NZ       -12.2410  -15.5460   15.6200 N.3   238  LYS238     -0.1314
     83  N         -8.6300  -23.5110   15.1720 N.3   261  CYS261     -0.1235
     84  CA        -9.0350  -23.0430   13.8510 C.3   261  CYS261      0.1677
     85  C         -9.9390  -24.1050   13.2460 C.2   261  CYS261      0.2270
     86  O         -9.5360  -25.2710   13.1560 O.2   261  CYS261     -0.2867
     87  CB        -7.8310  -22.8000   12.9330 C.3   261  CYS261      0.0956
     88  SG        -8.2640  -22.1460   11.2970 S.3   261  CYS261     -0.0801
     89  N        -10.8430  -24.4620   10.1530 N.3   263  GLY263     -0.1210
     90  CA       -10.6290  -24.6200    8.7320 C.3   263  GLY263      0.1956
     91  C        -11.4080  -23.5830    7.9560 C.2   263  GLY263      0.2612
     92  O        -12.2290  -22.8490    8.4910 O.2   263  GLY263     -0.2717
     93  N        -11.1770  -23.5550    6.6660 N.am  264  TYR264     -0.1962
     94  CA       -11.7640  -22.5650    5.7730 C.3   264  TYR264      0.1771
     95  C        -13.0990  -23.1410    5.2990 C.2   264  TYR264      0.2619
     96  O        -13.1400  -24.1490    4.5690 O.2   264  TYR264     -0.2715
     97  CB       -10.7680  -22.3440    4.6420 C.3   264  TYR264      0.0574
     98  CG       -11.1420  -21.3380    3.5960 C.ar  264  TYR264     -0.0198
     99  CD1      -12.1210  -20.3710    3.8060 C.ar  264  TYR264     -0.0009
    100  CD2      -10.4670  -21.3380    2.3720 C.ar  264  TYR264     -0.0009
    101  CE1      -12.4390  -19.4450    2.8130 C.ar  264  TYR264      0.0417
    102  CE2      -10.7750  -20.4180    1.3920 C.ar  264  TYR264      0.0417
    103  CZ       -11.7440  -19.4740    1.6290 C.ar  264  TYR264      0.1957
    104  OH       -12.0390  -18.5500    0.6230 O.3   264  TYR264     -0.2866
    105  N        -14.1950  -22.5180    5.7380 N.am  265  ALA265     -0.1977
    106  CA       -15.5150  -23.1200    5.6000 C.3   265  ALA265      0.1597
    107  C        -16.5080  -22.1270    5.0180 C.2   265  ALA265      0.2287
    108  O        -16.3960  -20.9240    5.2190 O.2   265  ALA265     -0.2864
    109  CB       -16.0060  -23.5460    6.9740 C.3   265  ALA265      0.0319
    110  N        -19.3010  -15.2070    6.4820 N.3   269  ILE269     -0.1231
    111  CA       -18.0640  -14.4340    6.6090 C.3   269  ILE269      0.1692
    112  C        -17.1490  -14.6450    5.4090 C.2   269  ILE269      0.2592
    113  O        -16.3500  -13.7650    5.0770 O.2   269  ILE269     -0.2718
    114  CB       -17.3550  -14.7340    7.9490 C.3   269  ILE269      0.0266
    115  CG1      -16.5540  -13.5260    8.4060 C.3   269  ILE269      0.0019
    116  CG2      -16.4950  -15.9830    7.8800 C.3   269  ILE269      0.0020
    117  CD1      -16.0290  -13.6900    9.8310 C.3   269  ILE269      0.0001
    118  N        -17.2270  -15.7970    4.7530 N.am  270  THR270     -0.1953
    119  CA       -16.4070  -16.0950    3.5860 C.3   270  THR270      0.1897
    120  C        -17.1950  -16.0070    2.2790 C.2   270  THR270      0.2313
    121  O        -16.7140  -16.4850    1.2360 O.2   270  THR270     -0.2863
    122  CB       -15.8190  -17.4960    3.6780 C.3   270  THR270      0.1794
    123  OG1      -16.8920  -18.4340    3.6150 O.3   270  THR270     -0.2208
    124  CG2      -14.9500  -17.7060    4.8860 C.3   270  THR270      0.0378
@<TRIPOS>BOND
     1     7     8    1
     2     9     8    1
     3     9    10    2
     4     8    11    1
     5   104   103    1
     6    11    12    1
     7   121   120    2
     8    18    19    1
     9   102   103   ar
    10   102   100   ar
    11    20    19    1
    12    20    21    2
    13   103   101   ar
    14    12    13   ar
    15    12    14   ar
    16    19    22    1
    17   120   119    1
    18   100    98   ar
    19    22    23    1
    20    22    24    1
    21    13    15   ar
    22   101    99   ar
    23    28    29    2
    24    28    27    1
    25    14    16   ar
    26    30    27    1
    27    30    31    1
    28    23    25    1
    29    26    27    1
    30   119   122    1
    31   119   118    1
    32    98    99   ar
    33    98    97    1
    34   123   122    1
    35   122   124    1
    36    33    31   ar
    37    33    35   ar
    38    15    17   ar
    39    31    32   ar
    40    63    64   ar
    41    63    61   ar
    42    16    17   ar
    43    96    95    2
    44    64    62   ar
    45    97    94    1
    46    35    36   ar
    47   118   112   am
    48   107   108    2
    49   107   106    1
    50   113   112    2
    51    95   105   am
    52    95    94    1
    53    61    59   ar
    54   112   111    1
    55    32    34   ar
    56   106   105    1
    57   106   109    1
    58    62    60   ar
    59    94    93    1
    60    36    34   ar
    61    53    52   ar
    62    53    51   ar
    63    59    60   ar
    64    59    58    1
    65    54    55    1
    66   110   111    1
    67   111   114    1
    68    52    50   ar
    69    93    91   am
    70    51    49   ar
    71    58    55    1
    72    55    56    1
    73    50    48   ar
    74     6     5    1
    75   116   114    1
    76    49    48   ar
    77   114   115    1
    78    91    92    2
    79    91    90    1
    80   115   117    1
    81     5     2    1
    82    48    47    1
    83    90    89    1
    84    56    57    2
    85     4     3    2
    86    47    44    1
    87     2     3    1
    88     2     1    1
    89    44    43    1
    90    44    45    1
    91    69    70    1
    92    69    66    1
    93    70    71    1
    94    42    41    1
    95    88    87    1
    96    71    73   ar
    97    71    72   ar
    98    46    45    2
    99    65    66    1
   100    66    67    1
   101    41    38    1
   102    67    68    2
   103    87    84    1
   104    86    85    2
   105    39    38    1
   106    39    40    2
   107    85    84    1
   108    38    37    1
   109    84    83    1
   110    81    82    1
   111    81    80    1
   112    79    78    1
   113    79    80    1
   114    78    75    1
   115    74    75    1
   116    75    76    1
   117    76    77    2
