@<TRIPOS>MOLECULE
tmp/5ldlA00.pdb
 159 153 0 0 0
SMALL
GASTEIGER

@<TRIPOS>ATOM
      1  N        104.9600  -12.6660    1.6080 N.3     1  GLY1       -0.1225
      2  CA       104.4230  -13.8630    2.2480 C.3     1  GLY1        0.1811
      3  C        104.7890  -13.8990    3.7290 C.2     1  GLY1        0.2280
      4  O        104.1970  -13.1920    4.5410 O.2     1  GLY1       -0.2866
      5  N        107.0170  -12.5850    5.2900 N.3     3  GLU3       -0.1231
      6  CA       107.2730  -11.2220    5.7460 C.3     3  GLU3        0.1699
      7  C        106.0070  -10.5920    6.3290 C.2     3  GLU3        0.2592
      8  O        106.0500   -9.4920    6.8820 O.2     3  GLU3       -0.2718
      9  CB       107.7890  -10.3650    4.5870 C.3     3  GLU3        0.0402
     10  CG       109.1960  -10.8270    4.1970 C.3     3  GLU3        0.1161
     11  CD       109.6870  -10.0350    2.9910 C.2     3  GLU3        0.3649
     12  OE1      108.9140   -9.2420    2.4780 O.co2   3  GLU3       -0.2457
     13  OE2      110.8260  -10.2270    2.6020 O.co2   3  GLU3       -0.2457
     14  N        104.8850  -11.2960    6.2090 N.am    4  LEU4       -0.1980
     15  CA       103.6190  -10.8000    6.7320 C.3     4  LEU4        0.1596
     16  C        103.7240  -10.5570    8.2370 C.2     4  LEU4        0.2287
     17  O        103.2240   -9.5560    8.7510 O.2     4  LEU4       -0.2864
     18  CB       102.5170  -11.8240    6.4570 C.3     4  LEU4        0.0297
     19  CG       101.2020  -11.3340    7.0540 C.3     4  LEU4        0.0022
     20  CD1      100.0830  -11.5190    6.0320 C.3     4  LEU4        0.0001
     21  CD2      100.8810  -12.1450    8.3100 C.3     4  LEU4        0.0001
     22  N        105.0490   -7.3420    8.9360 N.3     7  HIS7       -0.1241
     23  CA       104.0970   -6.2850    8.6210 C.3     7  HIS7        0.1621
     24  C        103.1500   -6.0620    9.7930 C.2     7  HIS7        0.2264
     25  O        102.7320   -4.9370   10.0540 O.2     7  HIS7       -0.2867
     26  CB       103.2850   -6.6610    7.3830 C.3     7  HIS7        0.0745
     27  CG       104.2160   -7.0790    6.2820 C.ar    7  HIS7        0.0817
     28  ND1      103.7760   -7.7890    5.1750 N.ar    7  HIS7       -0.2268
     29  CD2      105.5680   -6.9150    6.1080 C.ar    7  HIS7        0.1154
     30  CE1      104.8440   -8.0240    4.3920 C.ar    7  HIS7        0.1986
     31  NE2      105.9620   -7.5120    4.9140 N.ar    7  HIS7       -0.2212
     32  N        104.7680   -3.9440   12.4970 N.3    10  TYR10      -0.1241
     33  CA       104.8660   -2.5970   11.9580 C.3    10  TYR10       0.1605
     34  C        103.5030   -1.9150   11.9590 C.2    10  TYR10       0.2264
     35  O        103.3590   -0.7930   12.4410 O.2    10  TYR10      -0.2867
     36  CB       105.4100   -2.6530   10.5350 C.3    10  TYR10       0.0534
     37  CG       106.8950   -2.3870   10.5560 C.ar   10  TYR10      -0.0201
     38  CD1      107.7900   -3.4000   10.9210 C.ar   10  TYR10      -0.0009
     39  CD2      107.3770   -1.1190   10.2090 C.ar   10  TYR10      -0.0009
     40  CE1      109.1670   -3.1450   10.9400 C.ar   10  TYR10       0.0417
     41  CE2      108.7540   -0.8640   10.2270 C.ar   10  TYR10       0.0417
     42  CZ       109.6480   -1.8770   10.5930 C.ar   10  TYR10       0.1957
     43  OH       111.0050   -1.6270   10.6120 O.3    10  TYR10      -0.2866
     44  N        102.6290    1.9570   13.0710 N.3    14  LEU14      -0.1245
     45  CA       102.0480    3.0140   12.2510 C.3    14  LEU14       0.1561
     46  C        100.8050    3.5860   12.9200 C.2    14  LEU14       0.2260
     47  O        100.5910    4.7970   12.9240 O.2    14  LEU14      -0.2867
     48  CB       101.6920    2.4650   10.8640 C.3    14  LEU14       0.0270
     49  CG       102.9120    2.5560    9.9270 C.3    14  LEU14       0.0019
     50  CD1      103.2130    4.0210    9.5840 C.3    14  LEU14       0.0001
     51  CD2      104.1350    1.9320   10.6080 C.3    14  LEU14       0.0001
     52  N         95.1000    1.3550    4.5550 N.3    32  LYS32      -0.1231
     53  CA        96.2280    1.4680    3.6530 C.3    32  LYS32       0.1693
     54  C         96.1800    0.3790    2.5960 C.2    32  LYS32       0.2592
     55  O         96.3490    0.6490    1.4180 O.2    32  LYS32      -0.2718
     56  CB        97.5380    1.3670    4.4330 C.3    32  LYS32       0.0285
     57  CG        98.6510    2.0980    3.6870 C.3    32  LYS32       0.0035
     58  CD        99.9110    2.0710    4.5450 C.3    32  LYS32       0.0206
     59  CE       100.9940    2.9180    3.8790 C.3    32  LYS32       0.1093
     60  NZ       102.2350    2.8840    4.7030 N.3    32  LYS32      -0.1314
     61  N         95.9790   -0.8590    3.0270 N.am   33  PHE33      -0.1976
     62  CA        95.9570   -1.9690    2.0840 C.3    33  PHE33       0.1639
     63  C         94.9960   -1.6830    0.9510 C.2    33  PHE33       0.2290
     64  O         95.4020   -1.5510   -0.1860 O.2    33  PHE33      -0.2864
     65  CB        95.5410   -3.2710    2.7620 C.3    33  PHE33       0.0560
     66  CG        96.7590   -3.9720    3.3250 C.ar   33  PHE33      -0.0200
     67  CD1       97.7960   -3.2410    3.9170 C.ar   33  PHE33      -0.0042
     68  CD2       96.8410   -5.3670    3.2500 C.ar   33  PHE33      -0.0042
     69  CE1       98.9150   -3.9050    4.4340 C.ar   33  PHE33      -0.0003
     70  CE2       97.9590   -6.0320    3.7670 C.ar   33  PHE33      -0.0003
     71  CZ        98.9960   -5.3010    4.3600 C.ar   33  PHE33      -0.0000
     72  N         96.1030    1.5220   -1.0860 N.3    36  PHE36      -0.1241
     73  CA        97.3520    1.2640   -1.8120 C.3    36  PHE36       0.1605
     74  C         97.2370    0.0570   -2.7450 C.2    36  PHE36       0.2264
     75  O         97.5120    0.1550   -3.9400 O.2    36  PHE36      -0.2867
     76  CB        98.4890    1.0180   -0.8240 C.3    36  PHE36       0.0534
     77  CG        99.0690    2.3330   -0.3810 C.ar   36  PHE36      -0.0203
     78  CD1       98.2530    3.3090    0.2040 C.ar   36  PHE36      -0.0042
     79  CD2      100.4360    2.5790   -0.5580 C.ar   36  PHE36      -0.0042
     80  CE1       98.8030    4.5300    0.6120 C.ar   36  PHE36      -0.0003
     81  CE2      100.9870    3.8000   -0.1500 C.ar   36  PHE36      -0.0003
     82  CZ       100.1700    4.7750    0.4350 C.ar   36  PHE36      -0.0000
     83  N         98.3180   -9.2640   -5.7040 N.3    46  GLN46      -0.1231
     84  CA        99.0360  -10.4190   -5.1870 C.3    46  GLN46       0.1698
     85  C        100.2290   -9.9970   -4.3330 C.2    46  GLN46       0.2592
     86  O        100.3720  -10.4580   -3.2020 O.2    46  GLN46      -0.2718
     87  CB        99.5450  -11.2670   -6.3470 C.3    46  GLN46       0.0381
     88  CG        98.3730  -11.6650   -7.2400 C.3    46  GLN46       0.0905
     89  CD        97.3950  -12.5370   -6.4620 C.2    46  GLN46       0.2608
     90  OE1       97.7880  -13.5520   -5.8890 O.2    46  GLN46      -0.2717
     91  NE2       96.1350  -12.1990   -6.4060 N.am   46  GLN46      -0.0878
     92  N        101.0800   -9.1240   -4.8760 N.am   47  GLU47      -0.1966
     93  CA       102.2590   -8.6680   -4.1280 C.3    47  GLU47       0.1733
     94  C        102.1760   -7.1740   -3.8440 C.2    47  GLU47       0.2617
     95  O        101.8450   -6.7620   -2.7310 O.2    47  GLU47      -0.2715
     96  CB       103.5300   -8.9660   -4.9290 C.3    47  GLU47       0.0429
     97  CG       104.7640   -8.7030   -4.0580 C.3    47  GLU47       0.1163
     98  CD       106.0350   -8.9860   -4.8520 C.2    47  GLU47       0.3649
     99  OE1      107.0940   -8.5920   -4.3940 O.co2  47  GLU47      -0.2457
    100  OE2      105.9300   -9.5900   -5.9070 O.co2  47  GLU47      -0.2457
    101  N        102.4850   -6.3620   -4.8500 N.am   48  GLY48      -0.1940
    102  CA       102.4480   -4.9120   -4.6940 C.3    48  GLY48       0.2014
    103  C        103.4560   -4.4300   -3.6630 C.2    48  GLY48       0.2640
    104  O        103.1390   -4.2940   -2.4810 O.2    48  GLY48      -0.2714
    105  N        104.6720   -4.1640   -4.1260 N.am   49  THR49      -0.1936
    106  CA       105.7250   -3.6830   -3.2390 C.3    49  THR49       0.2028
    107  C        105.5890   -2.1780   -3.0450 C.2    49  THR49       0.2642
    108  O        104.9050   -1.5030   -3.8140 O.2    49  THR49      -0.2714
    109  CB       107.0950   -3.9910   -3.8410 C.3    49  THR49       0.1808
    110  OG1      107.4070   -3.0070   -4.8150 O.3    49  THR49      -0.2208
    111  CG2      107.0700   -5.3790   -4.4880 C.3    49  THR49       0.0379
    112  N        106.2470   -1.6570   -2.0170 N.am   50  ILE50      -0.1977
    113  CA       106.1890   -0.2280   -1.7400 C.3    50  ILE50       0.1596
    114  C        107.0930    0.5310   -2.7090 C.2    50  ILE50       0.2287
    115  O        108.2810    0.2300   -2.8280 O.2    50  ILE50      -0.2864
    116  CB       106.6260    0.0440   -0.2980 C.3    50  ILE50       0.0276
    117  CG1      108.0530   -0.4700   -0.0900 C.3    50  ILE50       0.0022
    118  CG2      105.6920   -0.6830    0.6750 C.3    50  ILE50       0.0022
    119  CD1      109.0400    0.7020   -0.0590 C.3    50  ILE50       0.0001
    120  N        109.1390    5.9870    5.6890 N.3    88  LEU88      -0.1245
    121  CA       108.7320    4.5900    5.7620 C.3    88  LEU88       0.1561
    122  C        109.8270    3.6710    5.2430 C.2    88  LEU88       0.2260
    123  O        110.2400    2.7360    5.9280 O.2    88  LEU88      -0.2867
    124  CB       107.4540    4.3790    4.9520 C.3    88  LEU88       0.0270
    125  CG       106.2410    4.5020    5.8750 C.3    88  LEU88       0.0019
    126  CD1      104.9720    4.6510    5.0340 C.3    88  LEU88       0.0001
    127  CD2      106.1240    3.2500    6.7560 C.3    88  LEU88       0.0001
    128  N        112.1010    0.7970    7.0800 N.3    92  LYS92      -0.1245
    129  CA       111.8930   -0.4910    6.4280 C.3    92  LYS92       0.1561
    130  C        113.2250   -1.1550    6.1060 C.2    92  LYS92       0.2260
    131  O        113.2780   -2.3440    5.8280 O.2    92  LYS92      -0.2867
    132  CB       111.0980   -0.2920    5.1530 C.3    92  LYS92       0.0271
    133  CG       109.6780   -0.8150    5.3470 C.3    92  LYS92       0.0035
    134  CD       108.8370   -0.4380    4.1300 C.3    92  LYS92       0.0206
    135  CE       107.8180   -1.5410    3.8480 C.3    92  LYS92       0.1093
    136  NZ       106.9310   -1.6970    5.0370 N.3    92  LYS92      -0.1314
    137  N        112.3980   -6.0180    4.3610 N.3    96  PRO96      -0.2102
    138  CA       111.0590   -6.2640    3.7770 C.3    96  PRO96       0.1504
    139  C        111.1540   -6.9720    2.4280 C.2    96  PRO96       0.2576
    140  O        112.2180   -7.4570    2.0470 O.2    96  PRO96      -0.2718
    141  CB       110.4790   -4.8550    3.6220 C.3    96  PRO96       0.0282
    142  CG       111.6520   -3.9160    3.6160 C.3    96  PRO96       0.0208
    143  CD       112.9200   -4.7380    3.8880 C.3    96  PRO96       0.0893
    144  N        110.0380   -7.0180    1.7100 N.am   97  GLN97      -0.1966
    145  CA       110.0070   -7.6640    0.3980 C.3    97  GLN97       0.1733
    146  C        110.8590   -6.8870   -0.5970 C.2    97  GLN97       0.2616
    147  O        111.3420   -7.4430   -1.5820 O.2    97  GLN97      -0.2715
    148  CB       108.5630   -7.7400   -0.1140 C.3    97  GLN97       0.0408
    149  CG       108.4890   -8.5970   -1.3840 C.3    97  GLN97       0.0908
    150  CD       108.8080  -10.0500   -1.0470 C.2    97  GLN97       0.2608
    151  OE1      108.4490  -10.5270    0.0290 O.2    97  GLN97      -0.2717
    152  NE2      109.4550  -10.7870   -1.9080 N.am   97  GLN97      -0.0878
    153  N        111.0400   -5.5990   -0.3340 N.am   98  VAL98      -0.1977
    154  CA       111.8310   -4.7590   -1.2210 C.3    98  VAL98       0.1596
    155  C        113.2460   -5.3090   -1.3420 C.2    98  VAL98       0.2287
    156  O        113.7950   -5.4030   -2.4400 O.2    98  VAL98      -0.2864
    157  CB       111.8810   -3.3310   -0.6730 C.3    98  VAL98       0.0276
    158  CG1      112.9920   -2.5450   -1.3690 C.3    98  VAL98       0.0022
    159  CG2      110.5400   -2.6340   -0.9180 C.3    98  VAL98       0.0022
@<TRIPOS>BOND
     1    88    89    1
     2    88    87    1
     3    89    91   am
     4    89    90    2
     5    87    84    1
     6   100    98   ar
     7    83    84    1
     8    84    85    1
     9    96    93    1
    10    96    97    1
    11    92    85   am
    12    92    93    1
    13    98    99   ar
    14    98    97    1
    15   101   102    1
    16   101    94   am
    17   110   109    1
    18   102   103    1
    19   111   109    1
    20    85    86    2
    21    93    94    1
    22   105   103   am
    23   105   106    1
    24    75    74    2
    25    94    95    2
    26   109   106    1
    27   108   107    2
    28   103   104    2
    29   106   107    1
    30   107   112   am
    31   115   114    2
    32    74    73    1
    33   114   113    1
    34   156   155    2
    35   112   113    1
    36   152   150   am
    37    73    72    1
    38    73    76    1
    39   113   116    1
    40   147   146    2
    41   149   150    1
    42   149   148    1
    43   158   157    1
    44   155   154    1
    45   154   157    1
    46   154   153    1
    47   150   151    2
    48   159   157    1
    49    76    77    1
    50   146   153   am
    51   146   145    1
    52    79    77   ar
    53    79    81   ar
    54    77    78   ar
    55   116   117    1
    56   116   118    1
    57    64    63    2
    58    81    82   ar
    59   148   145    1
    60   117   119    1
    61    78    80   ar
    62   145   144    1
    63    82    80   ar
    64    63    62    1
    65    55    54    2
    66     1     2    1
    67   144   139   am
    68   140   139    2
    69    62    65    1
    70    62    61    1
    71     2     3    1
    72   139   138    1
    73    12    11   ar
    74    54    61   am
    75    54    53    1
    76    13    11   ar
    77    65    66    1
    78    11    10    1
    79    68    66   ar
    80    68    70   ar
    81    66    67   ar
    82   142   141    1
    83   142   143    1
    84   141   138    1
    85    53    56    1
    86    53    52    1
    87    57    56    1
    88    57    58    1
    89     3     4    2
    90    70    71   ar
    91   138   137    1
    92   135   134    1
    93   135   136    1
    94    59    58    1
    95    59    60    1
    96   143   137    1
    97    67    69   ar
    98   134   133    1
    99    10     9    1
   100    71    69   ar
   101    30    31   ar
   102    30    28   ar
   103     9     6    1
   104    31    29   ar
   105   124   121    1
   106   124   125    1
   107   126   125    1
   108   132   133    1
   109   132   129    1
   110    28    27   ar
   111   122   121    1
   112   122   123    2
   113     5     6    1
   114   120   121    1
   115     6     7    1
   116   131   130    2
   117   125   127    1
   118    20    19    1
   119   130   129    1
   120    29    27   ar
   121    14     7   am
   122    14    15    1
   123    27    26    1
   124     7     8    2
   125   129   128    1
   126    18    15    1
   127    18    19    1
   128    15    16    1
   129    19    21    1
   130    26    23    1
   131    16    17    2
   132    23    22    1
   133    23    24    1
   134    50    49    1
   135    24    25    2
   136    49    51    1
   137    49    48    1
   138    39    41   ar
   139    39    37   ar
   140    41    42   ar
   141    36    37    1
   142    36    33    1
   143    37    38   ar
   144    42    43    1
   145    42    40   ar
   146    48    45    1
   147    38    40   ar
   148    33    34    1
   149    33    32    1
   150    34    35    2
   151    45    46    1
   152    45    44    1
   153    46    47    2
