@<TRIPOS>MOLECULE
tmp/5ldoA00.pdb
 120 113 0 0 0
SMALL
GASTEIGER

@<TRIPOS>ATOM
      1  N         88.5510  -13.6080  -14.9730 N.3     4  ARG4       -0.1245
      2  CA        88.2800  -13.0790  -13.6410 C.3     4  ARG4        0.1563
      3  C         89.2110  -13.7320  -12.6160 C.2     4  ARG4        0.2260
      4  O         89.0970  -14.9230  -12.3230 O.2     4  ARG4       -0.2867
      5  CB        86.8150  -13.3110  -13.2640 C.3     4  ARG4        0.0307
      6  CG        86.4020  -12.6860  -11.9450 C.3     4  ARG4        0.0489
      7  CD        84.8950  -12.7390  -11.7670 C.3     4  ARG4        0.2205
      8  NE        84.2320  -12.0340  -12.8580 N.pl3   4  ARG4       -0.0865
      9  CZ        84.0130  -10.7230  -12.8750 C.cat   4  ARG4        0.5346
     10  NH1       84.4210   -9.9670  -11.8650 N.pl3   4  ARG4        0.1354
     11  NH2       83.4000  -10.1640  -13.9110 N.pl3   4  ARG4        0.1354
     12  N         91.8470  -13.6480   -8.8950 N.3     6  PHE6       -0.1241
     13  CA        92.0460  -13.1950   -7.5160 C.3     6  PHE6        0.1605
     14  C         93.2010  -13.9460   -6.8470 C.2     6  PHE6        0.2264
     15  O         93.5100  -15.0800   -7.2170 O.2     6  PHE6       -0.2867
     16  CB        90.7610  -13.3620   -6.6950 C.3     6  PHE6        0.0534
     17  CG        90.3380  -14.7910   -6.4960 C.ar    6  PHE6       -0.0203
     18  CD1       90.6970  -15.4790   -5.3450 C.ar    6  PHE6       -0.0042
     19  CD2       89.5640  -15.4400   -7.4460 C.ar    6  PHE6       -0.0042
     20  CE1       90.3040  -16.7900   -5.1540 C.ar    6  PHE6       -0.0003
     21  CE2       89.1700  -16.7540   -7.2600 C.ar    6  PHE6       -0.0003
     22  CZ        89.5400  -17.4270   -6.1110 C.ar    6  PHE6       -0.0000
     23  N         88.8720  -21.0500    0.7600 N.3    41  HIS41      -0.1241
     24  CA        90.0820  -20.2630    0.5760 C.3    41  HIS41       0.1621
     25  C         89.9960  -18.9170    1.2800 C.2    41  HIS41       0.2264
     26  O         88.9140  -18.4690    1.6570 O.2    41  HIS41      -0.2867
     27  CB        90.3360  -20.0490   -0.9170 C.3    41  HIS41       0.0745
     28  CG        89.2970  -19.2020   -1.5870 C.ar   41  HIS41       0.0817
     29  ND1       88.1690  -19.7350   -2.1710 N.ar   41  HIS41      -0.2268
     30  CD2       89.2090  -17.8600   -1.7530 C.ar   41  HIS41       0.1154
     31  CE1       87.4340  -18.7590   -2.6750 C.ar   41  HIS41       0.1986
     32  NE2       88.0420  -17.6130   -2.4350 N.ar   41  HIS41      -0.2212
     33  N         90.6850  -15.1560    0.4610 N.3    43  THR43      -0.1218
     34  CA        90.9730  -14.2060   -0.6070 C.3    43  THR43       0.1862
     35  C         91.8520  -13.0670   -0.1000 C.2    43  THR43       0.2287
     36  O         91.5320  -12.4150    0.8970 O.2    43  THR43      -0.2866
     37  CB        89.6770  -13.6210   -1.1990 C.3    43  THR43       0.1770
     38  OG1       88.8900  -14.6740   -1.7730 O.3    43  THR43      -0.2211
     39  CG2       89.9940  -12.5880   -2.2690 C.3    43  THR43       0.0375
     40  N         91.0460   -9.1890   -4.7370 N.3    46  PHE46      -0.1241
     41  CA        90.2390   -9.4240   -5.9300 C.3    46  PHE46       0.1605
     42  C         90.6680   -8.4750   -7.0430 C.2    46  PHE46       0.2264
     43  O         90.8380   -7.2750   -6.8140 O.2    46  PHE46      -0.2867
     44  CB        88.7500   -9.2680   -5.6140 C.3    46  PHE46       0.0534
     45  CG        87.8460   -9.5900   -6.7690 C.ar   46  PHE46      -0.0203
     46  CD1       87.6010  -10.9060   -7.1320 C.ar   46  PHE46      -0.0042
     47  CD2       87.2170   -8.5770   -7.4740 C.ar   46  PHE46      -0.0042
     48  CE1       86.7630  -11.2030   -8.1940 C.ar   46  PHE46      -0.0003
     49  CE2       86.3750   -8.8680   -8.5320 C.ar   46  PHE46      -0.0003
     50  CZ        86.1490  -10.1820   -8.8930 C.ar   46  PHE46      -0.0000
     51  N         76.9460  -13.5130    3.9820 N.3    85  VAL85      -0.1245
     52  CA        77.8390  -14.6660    4.0560 C.3    85  VAL85       0.1561
     53  C         78.0710  -15.0870    5.5040 C.2    85  VAL85       0.2260
     54  O         77.9850  -14.2670    6.4210 O.2    85  VAL85      -0.2867
     55  CB        79.2100  -14.3870    3.3850 C.3    85  VAL85       0.0252
     56  CG1       79.0360  -14.1330    1.8980 C.3    85  VAL85       0.0019
     57  CG2       79.9010  -13.2050    4.0490 C.3    85  VAL85       0.0019
     58  N         89.9830   -2.9470  -10.6670 N.3   114  PHE114     -0.1241
     59  CA        88.7500   -2.5200  -10.0190 C.3   114  PHE114      0.1605
     60  C         88.9160   -2.4290   -8.5060 C.2   114  PHE114      0.2264
     61  O         89.3960   -3.3630   -7.8620 O.2   114  PHE114     -0.2867
     62  CB        87.6180   -3.4880  -10.3710 C.3   114  PHE114      0.0534
     63  CG        86.3880   -3.3210   -9.5290 C.ar  114  PHE114     -0.0203
     64  CD1       85.6480   -2.1510   -9.5760 C.ar  114  PHE114     -0.0042
     65  CD2       85.9670   -4.3430   -8.6920 C.ar  114  PHE114     -0.0042
     66  CE1       84.5130   -2.0020   -8.7980 C.ar  114  PHE114     -0.0003
     67  CE2       84.8350   -4.2000   -7.9140 C.ar  114  PHE114     -0.0003
     68  CZ        84.1070   -3.0280   -7.9680 C.ar  114  PHE114     -0.0000
     69  N         87.4610   -1.4700   -4.5310 N.3   116  SER116     -0.1217
     70  CA        86.2840   -1.4660   -3.6690 C.3   116  SER116      0.1889
     71  C         86.4220   -0.4060   -2.5840 C.2   116  SER116      0.2288
     72  O         85.4230    0.0760   -2.0460 O.2   116  SER116     -0.2866
     73  CB        86.0700   -2.8420   -3.0310 C.3   116  SER116      0.2089
     74  OG        87.0330   -3.0940   -2.0220 O.3   116  SER116     -0.2183
     75  N         89.0560  -13.5310    5.8400 N.3   123  HIS123     -0.1241
     76  CA        87.9930  -14.4620    6.1830 C.3   123  HIS123      0.1621
     77  C         87.9080  -15.6120    5.1910 C.2   123  HIS123      0.2264
     78  O         88.3460  -15.4920    4.0490 O.2   123  HIS123     -0.2867
     79  CB        86.6460  -13.7330    6.2450 C.3   123  HIS123      0.0745
     80  CG        86.1410  -13.2770    4.9090 C.ar  123  HIS123      0.0817
     81  ND1       86.5350  -12.0900    4.3290 N.ar  123  HIS123     -0.2268
     82  CD2       85.2760  -13.8510    4.0390 C.ar  123  HIS123      0.1154
     83  CE1       85.9330  -11.9510    3.1600 C.ar  123  HIS123      0.1986
     84  NE2       85.1650  -13.0070    2.9610 N.ar  123  HIS123     -0.2212
     85  N         84.9480  -17.8370    3.5570 N.3   125  THR125     -0.1218
     86  CA        83.4970  -17.9090    3.4160 C.3   125  THR125      0.1862
     87  C         83.0260  -19.3570    3.4260 C.2   125  THR125      0.2287
     88  O         83.5180  -20.1850    2.6550 O.2   125  THR125     -0.2866
     89  CB        83.0150  -17.2200    2.1190 C.3   125  THR125      0.1770
     90  OG1       83.3460  -15.8260    2.1620 O.3   125  THR125     -0.2211
     91  CG2       81.5100  -17.3660    1.9590 C.3   125  THR125      0.0375
     92  N         77.2000  -18.9440    1.3970 N.3   128  ARG128     -0.1245
     93  CA        76.8070  -17.8050    0.5770 C.3   128  ARG128      0.1563
     94  C         75.2910  -17.7250    0.5470 C.2   128  ARG128      0.2260
     95  O         74.6100  -18.7110    0.8450 O.2   128  ARG128     -0.2867
     96  CB        77.3780  -17.9150   -0.8400 C.3   128  ARG128      0.0307
     97  CG        78.8960  -18.0410   -0.8700 C.3   128  ARG128      0.0489
     98  CD        79.4760  -17.6010   -2.2000 C.3   128  ARG128      0.2205
     99  NE        80.9290  -17.7660   -2.2410 N.pl3 128  ARG128     -0.0865
    100  CZ        81.8050  -16.8350   -1.8680 C.cat 128  ARG128      0.5346
    101  NH1       81.3820  -15.6630   -1.4140 N.pl3 128  ARG128      0.1354
    102  NH2       83.1050  -17.0790   -1.9470 N.pl3 128  ARG128      0.1354
    103  N         88.4420  -17.5400  -11.8070 N.3   155  SER155     -0.1217
    104  CA        87.0880  -17.9130  -11.4070 C.3   155  SER155      0.1889
    105  C         86.2220  -18.2540  -12.6160 C.2   155  SER155      0.2288
    106  O         86.1900  -17.5130  -13.5980 O.2   155  SER155     -0.2866
    107  CB        86.4460  -16.7810  -10.6020 C.3   155  SER155      0.2089
    108  OG        85.1370  -17.1210  -10.1890 O.3   155  SER155     -0.2183
    109  N         87.3950  -22.7660   -9.2140 N.3   164  TYR164     -0.1241
    110  CA        88.5950  -21.9550   -9.1670 C.3   164  TYR164      0.1605
    111  C         89.7260  -22.7410   -9.8080 C.2   164  TYR164      0.2264
    112  O         89.9710  -23.8950   -9.4530 O.2   164  TYR164     -0.2867
    113  CB        88.9260  -21.5800   -7.7210 C.3   164  TYR164      0.0534
    114  CG        87.8210  -20.8030   -7.0420 C.ar  164  TYR164     -0.0201
    115  CD1       87.2950  -19.6590   -7.6250 C.ar  164  TYR164     -0.0009
    116  CD2       87.2920  -21.2230   -5.8300 C.ar  164  TYR164     -0.0009
    117  CE1       86.2830  -18.9450   -7.0130 C.ar  164  TYR164      0.0417
    118  CE2       86.2780  -20.5170   -5.2110 C.ar  164  TYR164      0.0417
    119  CZ        85.7780  -19.3780   -5.8070 C.ar  164  TYR164      0.1957
    120  OH        84.7680  -18.6690   -5.1970 O.3   164  TYR164     -0.2866
@<TRIPOS>BOND
     1     1     2    1
     2    11     9    1
     3     2     5    1
     4     2     3    1
     5   106   105    2
     6     5     6    1
     7     9     8    2
     8     9    10    1
     9     8     7    1
    10   105   104    1
    11     3     4    2
    12     6     7    1
    13   103   104    1
    14   104   107    1
    15    58    59    1
    16   107   108    1
    17    62    59    1
    18    62    63    1
    19    59    60    1
    20   111   112    2
    21   111   110    1
    22    64    63   ar
    23    64    66   ar
    24    63    65   ar
    25   109   110    1
    26   110   113    1
    27    12    13    1
    28    50    49   ar
    29    50    48   ar
    30    66    68   ar
    31    65    67   ar
    32    49    47   ar
    33    60    61    2
    34    48    46   ar
    35    68    67   ar
    36   113   114    1
    37   115   114   ar
    38   115   117   ar
    39    13    14    1
    40    13    16    1
    41    47    45   ar
    42    19    21   ar
    43    19    17   ar
    44    21    22   ar
    45    15    14    2
    46    46    45   ar
    47    42    43    2
    48    42    41    1
    49   114   116   ar
    50   117   119   ar
    51    45    44    1
    52    16    17    1
    53    17    18   ar
    54    22    20   ar
    55    41    44    1
    56    41    40    1
    57   116   118   ar
    58   119   118   ar
    59   119   120    1
    60    18    20   ar
    61    69    70    1
    62    70    73    1
    63    70    71    1
    64    73    74    1
    65    31    32   ar
    66    31    29   ar
    67    71    72    2
    68    32    30   ar
    69    39    37    1
    70    99    98    1
    71    99   100    2
    72    98    97    1
    73    29    28   ar
    74   102   100    1
    75   100   101    1
    76    38    37    1
    77    30    28   ar
    78    28    27    1
    79    37    34    1
    80    27    24    1
    81    97    96    1
    82    96    93    1
    83    34    35    1
    84    34    33    1
    85    35    36    2
    86    94    93    1
    87    94    95    2
    88    24    23    1
    89    24    25    1
    90    93    92    1
    91    25    26    2
    92    56    55    1
    93    91    89    1
    94    89    90    1
    95    89    86    1
    96    88    87    2
    97    84    83   ar
    98    84    82   ar
    99    83    81   ar
   100    55    57    1
   101    55    52    1
   102    86    87    1
   103    86    85    1
   104    51    52    1
   105    82    80   ar
   106    78    77    2
   107    52    53    1
   108    81    80   ar
   109    80    79    1
   110    77    76    1
   111    53    54    2
   112    75    76    1
   113    76    79    1
