@<TRIPOS>MOLECULE
tmp/5ldpA00.pdb
 142 133 0 0 0
SMALL
GASTEIGER

@<TRIPOS>ATOM
      1  N        -31.8190   -1.8700   16.9380 N.3     5  ARG5       -0.1245
      2  CA       -30.7880   -1.4050   17.8490 C.3     5  ARG5        0.1563
      3  C        -29.5290   -1.0170   17.0510 C.2     5  ARG5        0.2260
      4  O        -28.8170   -1.8930   16.5570 O.2     5  ARG5       -0.2867
      5  CB       -30.4790   -2.5000   18.8610 C.3     5  ARG5        0.0307
      6  CG       -29.4170   -2.1890   19.8770 C.3     5  ARG5        0.0489
      7  CD       -29.3130   -3.3750   20.8330 C.3     5  ARG5        0.2205
      8  NE       -28.3810   -3.1190   21.9190 N.pl3   5  ARG5       -0.0865
      9  CZ       -28.7320   -2.5290   23.0560 C.cat   5  ARG5        0.5346
     10  NH1      -27.8290   -2.3270   24.0060 N.pl3   5  ARG5        0.1354
     11  NH2      -29.9910   -2.1390   23.2340 N.pl3   5  ARG5        0.1354
     12  N        -25.8840    1.3740   15.8380 N.3     7  PHE7       -0.1241
     13  CA       -24.6960    2.1570   16.1740 C.3     7  PHE7        0.1605
     14  C        -23.8380    2.3600   14.9360 C.2     7  PHE7        0.2264
     15  O        -23.9090    1.5780   13.9900 O.2     7  PHE7       -0.2867
     16  CB       -23.8600    1.4980   17.2860 C.3     7  PHE7        0.0534
     17  CG       -23.2540    0.1720   16.8980 C.ar    7  PHE7       -0.0203
     18  CD1      -21.9420    0.1050   16.4370 C.ar    7  PHE7       -0.0042
     19  CD2      -23.9900   -1.0030   16.9980 C.ar    7  PHE7       -0.0042
     20  CE1      -21.3650   -1.1170   16.0870 C.ar    7  PHE7       -0.0003
     21  CE2      -23.4280   -2.2280   16.6560 C.ar    7  PHE7       -0.0003
     22  CZ       -22.0870   -2.2800   16.1960 C.ar    7  PHE7       -0.0000
     23  N        -14.0690  -12.6020   28.7880 N.3    34  ARG34      -0.1245
     24  CA       -14.7310  -13.2090   27.6520 C.3    34  ARG34       0.1563
     25  C        -14.2900  -12.4860   26.3920 C.2    34  ARG34       0.2260
     26  O        -14.5180  -11.2840   26.2570 O.2    34  ARG34      -0.2867
     27  CB       -16.2530  -13.1480   27.8340 C.3    34  ARG34       0.0307
     28  CG       -17.0560  -13.7760   26.7090 C.3    34  ARG34       0.0489
     29  CD       -18.5650  -13.7560   26.9960 C.3    34  ARG34       0.2205
     30  NE       -19.1440  -12.4090   26.9590 N.pl3  34  ARG34      -0.0865
     31  CZ       -19.5560  -11.7920   25.8520 C.cat  34  ARG34       0.5346
     32  NH1      -19.4470  -12.3870   24.6710 N.pl3  34  ARG34       0.1354
     33  NH2      -20.0720  -10.5700   25.9230 N.pl3  34  ARG34       0.1354
     34  N        -14.4740   -3.8480   16.6600 N.3    42  HIS42      -0.1241
     35  CA       -14.7820   -2.6050   15.9520 C.3    42  HIS42       0.1621
     36  C        -14.5460   -1.4430   16.8920 C.2    42  HIS42       0.2264
     37  O        -14.3630   -1.6450   18.0800 O.2    42  HIS42      -0.2867
     38  CB       -16.2340   -2.5780   15.4710 C.3    42  HIS42       0.0745
     39  CG       -17.2200   -2.5030   16.5960 C.ar   42  HIS42       0.0817
     40  ND1      -17.6630   -3.6270   17.2620 N.ar   42  HIS42      -0.2268
     41  CD2      -17.7860   -1.4450   17.2230 C.ar   42  HIS42       0.1154
     42  CE1      -18.5000   -3.2660   18.2220 C.ar   42  HIS42       0.1986
     43  NE2      -18.5930   -1.9460   18.2180 N.ar   42  HIS42      -0.2212
     44  N        -16.5100    1.8900   18.1330 N.3    44  THR44      -0.1218
     45  CA       -17.8160    2.5260   18.0360 C.3    44  THR44       0.1862
     46  C        -17.6710    4.0370   17.9530 C.2    44  THR44       0.2287
     47  O        -16.9170    4.6210   18.7260 O.2    44  THR44      -0.2866
     48  CB       -18.6980    2.1580   19.2410 C.3    44  THR44       0.1770
     49  OG1      -18.9360    0.7460   19.2260 O.3    44  THR44      -0.2211
     50  CG2      -20.0340    2.8960   19.1800 C.3    44  THR44       0.0375
     51  N        -23.4620    5.3570   19.6440 N.3    47  PHE47      -0.1241
     52  CA       -24.5140    4.3860   19.9130 C.3    47  PHE47       0.1605
     53  C        -25.8870    5.0650   19.8430 C.2    47  PHE47       0.2264
     54  O        -26.1260    6.0400   20.5460 O.2    47  PHE47      -0.2867
     55  CB       -24.3140    3.7390   21.2930 C.3    47  PHE47       0.0534
     56  CG       -25.4170    2.7670   21.6840 C.ar   47  PHE47      -0.0203
     57  CD1      -25.4940    1.5070   21.1060 C.ar   47  PHE47      -0.0042
     58  CD2      -26.3670    3.1170   22.6380 C.ar   47  PHE47      -0.0042
     59  CE1      -26.4910    0.6150   21.4690 C.ar   47  PHE47      -0.0003
     60  CE2      -27.3750    2.2300   23.0050 C.ar   47  PHE47      -0.0003
     61  CZ       -27.4370    0.9800   22.4190 C.ar   47  PHE47      -0.0000
     62  N        -22.6650   11.8910   16.8500 N.3   106  ARG106     -0.1245
     63  CA       -23.3060   12.0360   18.1520 C.3   106  ARG106      0.1563
     64  C        -24.1830   13.2760   18.1640 C.2   106  ARG106      0.2260
     65  O        -25.2840   13.2830   18.7110 O.2   106  ARG106     -0.2867
     66  CB       -22.2510   12.1230   19.2550 C.3   106  ARG106      0.0307
     67  CG       -21.4490   10.8340   19.4040 C.3   106  ARG106      0.0489
     68  CD       -20.1060   11.0520   20.0970 C.3   106  ARG106      0.2205
     69  NE       -20.1810   10.8500   21.5370 N.pl3 106  ARG106     -0.0865
     70  CZ       -19.9530    9.6790   22.1210 C.cat 106  ARG106      0.5346
     71  NH1      -19.6420    8.6160   21.3750 N.pl3 106  ARG106      0.1354
     72  NH2      -20.0370    9.5710   23.4390 N.pl3 106  ARG106      0.1354
     73  N        -24.5120   10.0730   25.8820 N.3   117  SER117     -0.1217
     74  CA       -23.7790   10.2080   27.1370 C.3   117  SER117      0.1889
     75  C        -22.8840   11.4440   27.1410 C.2   117  SER117      0.2288
     76  O        -22.1570   11.6920   26.1800 O.2   117  SER117     -0.2866
     77  CB       -22.9330    8.9590   27.3920 C.3   117  SER117      0.2089
     78  OG       -22.0930    9.1380   28.5170 O.3   117  SER117     -0.2183
     79  N        -12.1010    3.4330   21.3560 N.3   124  HIS124     -0.1241
     80  CA       -11.4790    2.2070   21.8060 C.3   124  HIS124      0.1621
     81  C        -12.0460    1.0250   21.0450 C.2   124  HIS124      0.2264
     82  O        -13.1270    1.1130   20.4690 O.2   124  HIS124     -0.2867
     83  CB       -11.7010    2.0220   23.3090 C.3   124  HIS124      0.0745
     84  CG       -13.1300    1.7550   23.6820 C.ar  124  HIS124      0.0817
     85  ND1      -14.0640    2.7550   23.8080 N.ar  124  HIS124     -0.2268
     86  CD2      -13.7810    0.5980   23.9550 C.ar  124  HIS124      0.1154
     87  CE1      -15.2300    2.2330   24.1620 C.ar  124  HIS124      0.1986
     88  NE2      -15.0870    0.9220   24.2450 N.ar  124  HIS124     -0.2212
     89  N        -12.8950   -2.7600   22.1290 N.3   126  THR126     -0.1218
     90  CA       -12.9610   -3.7100   23.2280 C.3   126  THR126      0.1862
     91  C        -12.4990   -5.0800   22.7560 C.2   126  THR126      0.2287
     92  O        -12.9410   -5.5450   21.7020 O.2   126  THR126     -0.2866
     93  CB       -14.3740   -3.7970   23.7620 C.3   126  THR126      0.1770
     94  OG1      -14.7480   -2.5140   24.2760 O.3   126  THR126     -0.2211
     95  CG2      -14.4850   -4.8680   24.8590 C.3   126  THR126      0.0375
     96  N        -14.5810   -8.7740   27.4190 N.3   129  ARG129     -0.1245
     97  CA       -15.6830   -8.3240   28.2640 C.3   129  ARG129      0.1563
     98  C        -15.7180   -9.1440   29.5310 C.2   129  ARG129      0.2260
     99  O        -15.0980  -10.2110   29.6100 O.2   129  ARG129     -0.2867
    100  CB       -17.0310   -8.4370   27.5510 C.3   129  ARG129      0.0307
    101  CG       -17.1620   -7.5600   26.3260 C.3   129  ARG129      0.0489
    102  CD       -18.5430   -7.6700   25.6830 C.3   129  ARG129      0.2205
    103  NE       -18.5050   -7.0590   24.3590 N.pl3 129  ARG129     -0.0865
    104  CZ       -18.7060   -5.7650   24.1290 C.cat 129  ARG129      0.5346
    105  NH1      -18.9890   -4.9490   25.1390 N.pl3 129  ARG129      0.1354
    106  NH2      -18.6290   -5.2860   22.8890 N.pl3 129  ARG129      0.1354
    107  N        -27.5610   -4.2500   15.8010 N.3   156  SER156     -0.1217
    108  CA       -27.1120   -5.2230   16.7830 C.3   156  SER156      0.1889
    109  C        -28.2550   -6.1410   17.2220 C.2   156  SER156      0.2288
    110  O        -29.3290   -5.6630   17.5910 O.2   156  SER156     -0.2866
    111  CB       -26.5210   -4.5000   17.9950 C.3   156  SER156      0.2089
    112  OG       -26.4090   -5.3740   19.0900 O.3   156  SER156     -0.2183
    113  N        -29.2440  -10.1700   19.2540 N.3   158  PHE158     -0.1241
    114  CA       -28.7000  -11.2020   20.1220 C.3   158  PHE158      0.1605
    115  C        -29.5650  -12.4520   20.1650 C.2   158  PHE158      0.2264
    116  O        -30.7540  -12.3880   20.4650 O.2   158  PHE158     -0.2867
    117  CB       -28.5070  -10.6610   21.5380 C.3   158  PHE158      0.0534
    118  CG       -28.0350  -11.6970   22.5200 C.ar  158  PHE158     -0.0203
    119  CD1      -26.7020  -12.0760   22.5600 C.ar  158  PHE158     -0.0042
    120  CD2      -28.9240  -12.2940   23.4050 C.ar  158  PHE158     -0.0042
    121  CE1      -26.2660  -13.0300   23.4650 C.ar  158  PHE158     -0.0003
    122  CE2      -28.4930  -13.2470   24.3110 C.ar  158  PHE158     -0.0003
    123  CZ       -27.1630  -13.6150   24.3420 C.ar  158  PHE158     -0.0000
    124  N        -23.8320  -12.3620   20.1320 N.3   163  THR163     -0.1218
    125  CA       -24.2620  -11.0980   19.5650 C.3   163  THR163      0.1862
    126  C        -23.7790  -11.0050   18.1200 C.2   163  THR163      0.2287
    127  O        -22.6760  -11.4470   17.7990 O.2   163  THR163     -0.2866
    128  CB       -23.7480   -9.9120   20.3980 C.3   163  THR163      0.1770
    129  OG1      -22.6140  -10.3300   21.1690 O.3   163  THR163     -0.2211
    130  CG2      -24.8350   -9.4400   21.3610 C.3   163  THR163      0.0375
    131  N        -23.5270   -8.3840   14.6040 N.3   165  TYR165     -0.1241
    132  CA       -23.6540   -7.0610   14.0200 C.3   165  TYR165      0.1605
    133  C        -23.9180   -7.2100   12.5200 C.2   165  TYR165      0.2264
    134  O        -23.2020   -7.9340   11.8350 O.2   165  TYR165     -0.2867
    135  CB       -22.3950   -6.2160   14.2430 C.3   165  TYR165      0.0534
    136  CG       -21.9790   -6.0630   15.6790 C.ar  165  TYR165     -0.0201
    137  CD1      -22.9140   -5.8430   16.6870 C.ar  165  TYR165     -0.0009
    138  CD2      -20.6410   -6.1350   16.0280 C.ar  165  TYR165     -0.0009
    139  CE1      -22.5100   -5.7050   18.0020 C.ar  165  TYR165      0.0417
    140  CE2      -20.2340   -5.9940   17.3150 C.ar  165  TYR165      0.0417
    141  CZ       -21.1600   -5.7750   18.3040 C.ar  165  TYR165      0.1957
    142  OH       -20.7030   -5.6450   19.5880 O.3   165  TYR165     -0.2866
@<TRIPOS>BOND
     1   134   133    2
     2   133   132    1
     3    15    14    2
     4   132   135    1
     5   132   131    1
     6   135   136    1
     7    14    13    1
     8    38    35    1
     9    38    39    1
    10   136   138   ar
    11   136   137   ar
    12   107   108    1
    13    12    13    1
    14    35    34    1
    15    35    36    1
    16   138   140   ar
    17    20    22   ar
    18    20    18   ar
    19    13    16    1
    20    22    21   ar
    21    18    17   ar
    22     4     3    2
    23    39    41   ar
    24    39    40   ar
    25    21    19   ar
    26   137   139   ar
    27   108   109    1
    28   108   111    1
    29    62    63    1
    30    36    37    2
    31    17    19   ar
    32    17    16    1
    33     1     2    1
    34     3     2    1
    35   109   110    2
    36    41    43   ar
    37    40    42   ar
    38   140   141   ar
    39   127   126    2
    40     2     5    1
    41    46    45    1
    42    46    47    2
    43   111   112    1
    44   139   141   ar
    45    45    44    1
    46    45    48    1
    47   126   125    1
    48    63    64    1
    49    63    66    1
    50    64    65    2
    51    43    42   ar
    52   141   142    1
    53     5     6    1
    54    50    48    1
    55    49    48    1
    56   113   114    1
    57    66    67    1
    58    67    68    1
    59   125   124    1
    60   125   128    1
    61    51    52    1
    62    53    52    1
    63    53    54    2
    64     6     7    1
    65    52    55    1
    66    68    69    1
    67   114   115    1
    68   114   117    1
    69   115   116    2
    70   128   129    1
    71   128   130    1
    72    82    81    2
    73     7     8    1
    74    81    80    1
    75    57    59   ar
    76    57    56   ar
    77    55    56    1
    78    79    80    1
    79    71    70    1
    80    59    61   ar
    81    69    70    2
    82   117   118    1
    83    56    58   ar
    84    92    91    2
    85    80    83    1
    86     8     9    2
    87    70    72    1
    88    89    90    1
    89    61    60   ar
    90   118   119   ar
    91   118   120   ar
    92   119   121   ar
    93    58    60   ar
    94    91    90    1
    95   106   104    1
    96     9    11    1
    97     9    10    1
    98    90    93    1
    99    83    84    1
   100   120   122   ar
   101   121   123   ar
   102    84    85   ar
   103    84    86   ar
   104    93    94    1
   105    93    95    1
   106    85    87   ar
   107    86    88   ar
   108   104   103    2
   109   104   105    1
   110    87    88   ar
   111   122   123   ar
   112   103   102    1
   113    32    31    1
   114   102   101    1
   115    31    33    1
   116    31    30    2
   117    73    74    1
   118    76    75    2
   119    26    25    2
   120   101   100    1
   121    25    24    1
   122    28    29    1
   123    28    27    1
   124    30    29    1
   125    74    75    1
   126    74    77    1
   127    77    78    1
   128    96    97    1
   129   100    97    1
   130    24    27    1
   131    24    23    1
   132    97    98    1
   133    98    99    2
