@<TRIPOS>MOLECULE
tmp/5ldqA02.pdb
 125 128 0 0 0
SMALL
GASTEIGER

@<TRIPOS>ATOM
      1  N         17.2480  -21.3770   34.6990 N.3    77  ASP77      -0.1239
      2  CA        17.0360  -22.7040   35.2660 C.3    77  ASP77       0.1674
      3  C         15.6770  -22.7660   35.9710 C.2    77  ASP77       0.2266
      4  O         15.2340  -21.7890   36.5870 O.2    77  ASP77      -0.2867
      5  CB        18.1380  -22.9470   36.3020 C.3    77  ASP77       0.1410
      6  CG        18.4370  -24.4030   36.5210 C.2    77  ASP77       0.3668
      7  OD1       17.9370  -25.2600   35.7590 O.co2  77  ASP77      -0.2456
      8  OD2       19.2040  -24.6840   37.4650 O.co2  77  ASP77      -0.2456
      9  N         11.6220  -29.3840   43.6890 N.3    81  TRP81      -0.1241
     10  CA        12.1300  -30.1250   44.8450 C.3    81  TRP81       0.1605
     11  C         10.9690  -30.8410   45.5260 C.2    81  TRP81       0.2264
     12  O         10.1740  -30.1960   46.2210 O.2    81  TRP81      -0.2867
     13  CB        12.7690  -29.1530   45.8500 C.3    81  TRP81       0.0550
     14  CG        14.0530  -28.5670   45.3870 C.ar   81  TRP81       0.0003
     15  CD1       14.9570  -29.1330   44.5250 C.ar   81  TRP81       0.0946
     16  CD2       14.5750  -27.2710   45.7260 C.ar   81  TRP81       0.0152
     17  NE1       16.0150  -28.2740   44.3250 N.ar   81  TRP81      -0.2442
     18  CE2       15.8080  -27.1290   45.0550 C.ar   81  TRP81       0.0810
     19  CE3       14.1250  -26.2300   46.5490 C.ar   81  TRP81       0.0012
     20  CZ2       16.5950  -25.9670   45.1670 C.ar   81  TRP81       0.0191
     21  CZ3       14.9090  -25.0880   46.6690 C.ar   81  TRP81       0.0001
     22  CH2       16.1280  -24.9650   45.9790 C.ar   81  TRP81       0.0015
     23  N         10.6060  -24.1700   41.3950 N.3    88  TRP88      -0.1241
     24  CA        11.4030  -22.9510   41.5750 C.3    88  TRP88       0.1605
     25  C         12.0650  -22.5100   40.2950 C.2    88  TRP88       0.2264
     26  O         12.2250  -23.2950   39.3520 O.2    88  TRP88      -0.2867
     27  CB        12.5090  -23.1840   42.6040 C.3    88  TRP88       0.0550
     28  CG        13.2790  -24.4590   42.3650 C.ar   88  TRP88       0.0003
     29  CD1       13.0610  -25.6750   42.9690 C.ar   88  TRP88       0.0946
     30  CD2       14.3930  -24.6540   41.4720 C.ar   88  TRP88       0.0152
     31  NE1       13.9580  -26.5990   42.5000 N.ar   88  TRP88      -0.2442
     32  CE2       14.7820  -26.0050   41.5790 C.ar   88  TRP88       0.0810
     33  CE3       15.0860  -23.8180   40.5790 C.ar   88  TRP88       0.0012
     34  CZ2       15.8430  -26.5420   40.8360 C.ar   88  TRP88       0.0191
     35  CZ3       16.1390  -24.3510   39.8540 C.ar   88  TRP88       0.0001
     36  CH2       16.5030  -25.6970   39.9790 C.ar   88  TRP88       0.0015
     37  N         19.3510  -19.9530   38.8650 N.3    91  MET91      -0.1182
     38  CA        20.4660  -19.6480   37.9600 C.3    91  MET91       0.1917
     39  C         21.4740  -20.7980   38.0540 C.2    91  MET91       0.2634
     40  O         21.8690  -21.1770   39.1530 O.2    91  MET91      -0.2714
     41  CB        21.1000  -18.2830   38.3280 C.2    91  MET91       0.0083
     42  CG        22.1650  -17.7260   37.3470 C.2    91  MET91       0.0282
     43  SD        22.5990  -15.9550   37.5540 S.3    91  MET91      -0.1125
     44  CE        23.9680  -15.7980   36.4080 C.3    91  MET91       0.0742
     45  N         21.8590  -21.3820   36.9170 N.am   92  ARG92      -0.1963
     46  CA        22.7340  -22.5460   36.8970 C.3    92  ARG92       0.1729
     47  C         24.0520  -22.2200   37.5740 C.2    92  ARG92       0.2616
     48  O         24.6300  -23.0550   38.2620 O.2    92  ARG92      -0.2715
     49  CB        23.0210  -22.9590   35.4500 C.3    92  ARG92       0.0348
     50  CG        21.8120  -23.5510   34.7440 C.3    92  ARG92       0.0492
     51  CD        22.1120  -23.8350   33.2780 C.3    92  ARG92       0.2205
     52  NE        20.9420  -24.3830   32.6100 N.pl3  92  ARG92      -0.0865
     53  CZ        20.6450  -25.6790   32.5660 C.cat  92  ARG92       0.5346
     54  NH1       19.5550  -26.0850   31.9240 N.pl3  92  ARG92       0.1354
     55  NH2       21.4350  -26.5720   33.1630 N.pl3  92  ARG92       0.1354
     56  N         24.5230  -20.9960   37.3580 N.am   93  GLN93      -0.1964
     57  CA        25.8240  -20.5640   37.8550 C.3    93  GLN93       0.1718
     58  C         25.6460  -19.1740   38.4340 C.2    93  GLN93       0.2458
     59  O         25.9650  -18.1810   37.7750 O.2    93  GLN93      -0.2730
     60  CB        26.8500  -20.5100   36.7240 C.3    93  GLN93       0.0407
     61  CG        27.0630  -21.8410   35.9880 C.3    93  GLN93       0.0908
     62  CD        27.6650  -22.9130   36.8810 C.2    93  GLN93       0.2608
     63  OE1       28.3480  -22.6120   37.8620 O.2    93  GLN93      -0.2717
     64  NE2       27.4070  -24.1690   36.5490 N.am   93  GLN93      -0.0878
     65  N         25.1240  -19.0960   39.6640 N.am   94  PRO94      -0.2716
     66  CA        24.8500  -17.7920   40.2810 C.3    94  PRO94       0.1521
     67  C         26.1070  -16.9580   40.3930 C.2    94  PRO94       0.2440
     68  O         27.1920  -17.5090   40.5960 O.2    94  PRO94      -0.2731
     69  CB        24.3920  -18.1550   41.7000 C.3    94  PRO94       0.0310
     70  CG        23.9670  -19.5440   41.6350 C.3    94  PRO94       0.0237
     71  CD        24.7990  -20.2140   40.5620 C.3    94  PRO94       0.0939
     72  N         25.9700  -15.6320   40.2970 N.am   95  PRO95      -0.2716
     73  CA        27.1780  -14.8240   40.4460 C.3    95  PRO95       0.1536
     74  C         27.7280  -14.9340   41.8570 C.2    95  PRO95       0.2598
     75  O         26.9810  -15.1220   42.8280 O.2    95  PRO95      -0.2715
     76  CB        26.6850  -13.3960   40.1730 C.3    95  PRO95       0.0310
     77  CG        25.2220  -13.4290   40.4480 C.3    95  PRO95       0.0237
     78  CD        24.7630  -14.8140   40.0860 C.3    95  PRO95       0.0939
     79  N         29.0430  -14.8210   41.9610 N.am   96  ARG96      -0.1978
     80  CA        29.7300  -14.9460   43.2320 C.3    96  ARG96       0.1597
     81  C         29.1780  -13.9530   44.2560 C.2    96  ARG96       0.2287
     82  O         29.0190  -14.2850   45.4370 O.2    96  ARG96      -0.2864
     83  CB        31.2210  -14.7340   42.9820 C.3    96  ARG96       0.0334
     84  CG        32.0910  -14.6520   44.2020 C.3    96  ARG96       0.0492
     85  CD        33.5530  -14.7320   43.7740 C.3    96  ARG96       0.2205
     86  NE        34.4720  -14.2670   44.8060 N.pl3  96  ARG96      -0.0865
     87  CZ        34.7380  -14.9350   45.9230 C.cat  96  ARG96       0.5346
     88  NH1       34.1390  -16.0950   46.1670 N.pl3  96  ARG96       0.1354
     89  NH2       35.5950  -14.4370   46.8050 N.pl3  96  ARG96       0.1354
     90  N         26.1100  -15.2630   46.2340 N.3    99  ILE99      -0.1245
     91  CA        26.5260  -16.2160   47.2650 C.3    99  ILE99       0.1561
     92  C         27.1790  -15.4840   48.4460 C.2    99  ILE99       0.2260
     93  O         26.8890  -15.7790   49.6180 O.2    99  ILE99      -0.2867
     94  CB        27.5240  -17.2450   46.7110 C.3    99  ILE99       0.0252
     95  CG1       26.9780  -17.9090   45.4420 C.3    99  ILE99       0.0019
     96  CG2       27.8650  -18.2780   47.7690 C.3    99  ILE99       0.0019
     97  CD1       25.5370  -18.3950   45.5600 C.3    99  ILE99       0.0001
     98  N         23.7070  -22.8870   50.8880 N.3   121  PHE121     -0.1227
     99  CA        22.7780  -21.9420   50.2890 C.3   121  PHE121      0.1736
    100  C         22.3930  -22.3950   48.8910 C.2   121  PHE121      0.2595
    101  O         23.2570  -22.6620   48.0590 O.2   121  PHE121     -0.2718
    102  CB        23.4030  -20.5560   50.2280 C.3   121  PHE121      0.0547
    103  CG        22.5160  -19.5190   49.6030 C.ar  121  PHE121     -0.0202
    104  CD1       21.2200  -19.3180   50.0720 C.ar  121  PHE121     -0.0042
    105  CD2       22.9880  -18.7130   48.5780 C.ar  121  PHE121     -0.0042
    106  CE1       20.3970  -18.3450   49.5100 C.ar  121  PHE121     -0.0003
    107  CE2       22.1790  -17.7390   48.0100 C.ar  121  PHE121     -0.0003
    108  CZ        20.8820  -17.5520   48.4720 C.ar  121  PHE121     -0.0000
    109  N         21.0940  -22.4830   48.6330 N.am  122  HIS122     -0.1962
    110  CA        20.6110  -22.8970   47.3310 C.3   122  HIS122      0.1772
    111  C         19.7060  -21.8160   46.7540 C.2   122  HIS122      0.2462
    112  O         18.4910  -21.8690   46.9320 O.2   122  HIS122     -0.2730
    113  CB        19.8400  -24.2210   47.4610 C.3   122  HIS122      0.0785
    114  CG        20.6800  -25.3770   47.9270 C.ar  122  HIS122      0.0821
    115  ND1       21.6450  -25.9670   47.1380 N.ar  122  HIS122     -0.2267
    116  CD2       20.6800  -26.0680   49.0930 C.ar  122  HIS122      0.1154
    117  CE1       22.2120  -26.9590   47.7990 C.ar  122  HIS122      0.1986
    118  NE2       21.6480  -27.0410   48.9900 N.ar  122  HIS122     -0.2212
    119  N         20.2880  -20.8220   46.0530 N.am  123  PRO123     -0.2727
    120  CA        19.4600  -19.6730   45.6500 C.3   123  PRO123      0.1402
    121  C         18.3600  -20.0750   44.6930 C.2   123  PRO123      0.2269
    122  O         18.5950  -20.8190   43.7340 O.2   123  PRO123     -0.2865
    123  CB        20.4580  -18.7210   44.9640 C.3   123  PRO123      0.0296
    124  CG        21.6720  -19.5410   44.6630 C.3   123  PRO123      0.0237
    125  CD        21.7100  -20.6380   45.7110 C.3   123  PRO123      0.0939
@<TRIPOS>BOND
     1    54    53    1
     2    53    52    2
     3    53    55    1
     4    52    51    1
     5    51    50    1
     6     1     2    1
     7    50    49    1
     8     2     3    1
     9     2     5    1
    10    49    46    1
    11     7     6   ar
    12     3     4    2
    13    61    60    1
    14    61    62    1
    15     5     6    1
    16    44    43    1
    17     6     8   ar
    18    64    62   am
    19    60    57    1
    20    62    63    2
    21    46    45    1
    22    46    47    1
    23    45    39   am
    24    42    43    1
    25    42    41    2
    26    56    47   am
    27    56    57    1
    28    47    48    2
    29    59    58    2
    30    57    58    1
    31    38    39    1
    32    38    41    1
    33    38    37    1
    34    39    40    2
    35    58    65   am
    36    26    25    2
    37    65    66    1
    38    65    71    1
    39    35    36   ar
    40    35    33   ar
    41    36    34   ar
    42    78    72    1
    43    78    77    1
    44    76    73    1
    45    76    77    1
    46    66    67    1
    47    66    69    1
    48    25    24    1
    49    72    67   am
    50    72    73    1
    51    67    68    2
    52    73    74    1
    53    71    70    1
    54    33    30   ar
    55    34    32   ar
    56    23    24    1
    57    30    32   ar
    58    30    28   ar
    59    24    27    1
    60    32    31   ar
    61    70    69    1
    62    74    79   am
    63    74    75    2
    64    79    80    1
    65    28    27    1
    66    28    29   ar
    67    31    29   ar
    68    83    80    1
    69    83    84    1
    70    80    81    1
    71     9    10    1
    72   122   121    2
    73    85    84    1
    74    85    86    1
    75    81    82    2
    76    17    15   ar
    77    17    18   ar
    78    15    14   ar
    79   124   123    1
    80   124   125    1
    81   121   120    1
    82    86    87    2
    83    10    11    1
    84    10    13    1
    85   123   120    1
    86    18    20   ar
    87    18    16   ar
    88    20    22   ar
    89    14    16   ar
    90    14    13    1
    91    95    97    1
    92    95    94    1
    93    11    12    2
    94   120   119    1
    95   125   119    1
    96    16    19   ar
    97    87    88    1
    98    87    89    1
    99    22    21   ar
   100   119   111   am
   101    90    91    1
   102    19    21   ar
   103    94    91    1
   104    94    96    1
   105   111   112    2
   106   111   110    1
   107   115   117   ar
   108   115   114   ar
   109    91    92    1
   110   110   113    1
   111   110   109    1
   112   113   114    1
   113   117   118   ar
   114   114   116   ar
   115   107   108   ar
   116   107   105   ar
   117   101   100    2
   118    92    93    2
   119   108   106   ar
   120   105   103   ar
   121   109   100   am
   122   100    99    1
   123   118   116   ar
   124   106   104   ar
   125   103   104   ar
   126   103   102    1
   127   102    99    1
   128    99    98    1
