@<TRIPOS>MOLECULE
tmp/5ldqD00.pdb
 150 140 0 0 0
SMALL
GASTEIGER

@<TRIPOS>ATOM
      1  N        -20.1660  -32.9570   -3.0790 N.3     5  ARG5       -0.1245
      2  CA       -19.6360  -32.0580   -2.0590 C.3     5  ARG5        0.1563
      3  C        -19.5230  -32.8350   -0.7530 C.2     5  ARG5        0.2260
      4  O        -20.5440  -33.1500   -0.1420 O.2     5  ARG5       -0.2867
      5  CB       -20.6100  -30.8930   -1.8830 C.3     5  ARG5        0.0307
      6  CG       -20.1780  -29.7760   -0.9470 C.3     5  ARG5        0.0489
      7  CD       -21.0390  -28.5320   -1.1900 C.3     5  ARG5        0.2205
      8  NE       -21.1010  -27.6430   -0.0280 N.pl3   5  ARG5       -0.0865
      9  CZ       -20.5300  -26.4420    0.0350 C.cat   5  ARG5        0.5346
     10  NH1      -20.6440  -25.7000    1.1320 N.pl3   5  ARG5        0.1354
     11  NH2      -19.8510  -25.9710   -1.0020 N.pl3   5  ARG5        0.1354
     12  N        -17.6810  -33.9930    3.1710 N.3     7  PHE7       -0.1241
     13  CA       -16.9830  -33.6140    4.3920 C.3     7  PHE7        0.1605
     14  C        -17.0250  -34.7570    5.3980 C.2     7  PHE7        0.2264
     15  O        -17.9320  -35.6060    5.3530 O.2     7  PHE7       -0.2867
     16  CB       -17.5860  -32.3340    4.9900 C.3     7  PHE7        0.0534
     17  CG       -19.0230  -32.4710    5.4420 C.ar    7  PHE7       -0.0203
     18  CD1      -19.3230  -32.7500    6.7680 C.ar    7  PHE7       -0.0042
     19  CD2      -20.0730  -32.2950    4.5450 C.ar    7  PHE7       -0.0042
     20  CE1      -20.6480  -32.8620    7.1880 C.ar    7  PHE7       -0.0003
     21  CE2      -21.3980  -32.4120    4.9500 C.ar    7  PHE7       -0.0003
     22  CZ       -21.6860  -32.6890    6.2920 C.ar    7  PHE7       -0.0000
     23  N        -29.8740  -23.7260   12.1170 N.3    36  VAL36      -0.1245
     24  CA       -29.4520  -24.9140   11.3730 C.3    36  VAL36       0.1561
     25  C        -30.5070  -25.9970   11.5930 C.2    36  VAL36       0.2260
     26  O        -30.9590  -26.2010   12.7250 O.2    36  VAL36      -0.2867
     27  CB       -28.0720  -25.4210   11.8570 C.3    36  VAL36       0.0252
     28  CG1      -27.8090  -26.8600   11.4010 C.3    36  VAL36       0.0019
     29  CG2      -26.9650  -24.4950   11.3890 C.3    36  VAL36       0.0019
     30  N        -24.0260  -30.9930   13.4990 N.3    42  HIS42      -0.1241
     31  CA       -22.8880  -31.9040   13.5270 C.3    42  HIS42       0.1621
     32  C        -21.6160  -31.1070   13.7630 C.2    42  HIS42       0.2264
     33  O        -21.6270  -29.8610   13.7090 O.2    42  HIS42      -0.2867
     34  CB       -22.7620  -32.5750   12.1670 C.3    42  HIS42       0.0745
     35  CG       -22.3070  -31.6330   11.0950 C.ar   42  HIS42       0.0817
     36  ND1      -23.1860  -30.8480   10.3820 N.ar   42  HIS42      -0.2268
     37  CD2      -21.0670  -31.3100   10.6550 C.ar   42  HIS42       0.1154
     38  CE1      -22.5080  -30.0890    9.5370 C.ar   42  HIS42       0.1986
     39  NE2      -21.2210  -30.3520    9.6810 N.ar   42  HIS42      -0.2212
     40  N        -17.9220  -30.6350   12.1170 N.3    44  THR44      -0.1218
     41  CA       -17.1280  -30.9720   10.9390 C.3    44  THR44       0.1862
     42  C        -15.6710  -31.2410   11.3300 C.2    44  THR44       0.2287
     43  O        -15.0700  -30.4830   12.0970 O.2    44  THR44      -0.2866
     44  CB       -17.1850  -29.8290    9.9350 C.3    44  THR44       0.1770
     45  OG1      -18.5600  -29.5670    9.6190 O.3    44  THR44      -0.2211
     46  CG2      -16.4160  -30.1780    8.6580 C.3    44  THR44       0.0375
     47  N        -13.4960  -30.4680    5.6080 N.3    47  PHE47      -0.1241
     48  CA       -14.3250  -30.2130    4.4330 C.3    47  PHE47       0.1605
     49  C        -13.5030  -30.4890    3.1840 C.2    47  PHE47       0.2264
     50  O        -12.4010  -29.9570    3.0400 O.2    47  PHE47      -0.2867
     51  CB       -14.8080  -28.7600    4.4250 C.3    47  PHE47       0.0534
     52  CG       -15.6090  -28.3910    3.2030 C.ar   47  PHE47      -0.0203
     53  CD1      -16.9490  -28.7520    3.0970 C.ar   47  PHE47      -0.0042
     54  CD2      -15.0320  -27.6670    2.1720 C.ar   47  PHE47      -0.0042
     55  CE1      -17.6930  -28.4170    1.9800 C.ar   47  PHE47      -0.0003
     56  CE2      -15.7730  -27.3240    1.0370 C.ar   47  PHE47      -0.0003
     57  CZ       -17.1080  -27.7030    0.9460 C.ar   47  PHE47      -0.0000
     58  N        -22.0560  -16.5190   12.7560 N.3    86  VAL86      -0.1245
     59  CA       -22.6450  -17.7460   13.2780 C.3    86  VAL86       0.1561
     60  C        -22.6760  -17.7660   14.7950 C.2    86  VAL86       0.2260
     61  O        -21.9010  -17.0670   15.4600 O.2    86  VAL86      -0.2867
     62  CB       -21.9290  -19.0250   12.7620 C.3    86  VAL86       0.0252
     63  CG1      -22.1500  -19.2040   11.2610 C.3    86  VAL86       0.0019
     64  CG2      -20.4420  -18.9930   13.1080 C.3    86  VAL86       0.0019
     65  N         -7.6970  -33.7070    7.5330 N.3   106  ARG106     -0.1245
     66  CA        -7.3470  -32.4890    6.8060 C.3   106  ARG106      0.1563
     67  C         -6.0180  -32.6280    6.0650 C.2   106  ARG106      0.2260
     68  O         -5.8830  -32.1530    4.9340 O.2   106  ARG106     -0.2867
     69  CB        -7.3200  -31.2960    7.7660 C.3   106  ARG106      0.0307
     70  CG        -8.6860  -30.9720    8.3700 C.3   106  ARG106      0.0489
     71  CD        -8.5690  -30.1640    9.6510 C.3   106  ARG106      0.2205
     72  NE        -9.3880  -28.9560    9.6110 N.pl3 106  ARG106     -0.0865
     73  CZ        -8.8930  -27.7230    9.5900 C.cat 106  ARG106      0.5346
     74  NH1       -9.7080  -26.6770    9.5510 N.pl3 106  ARG106      0.1354
     75  NH2       -7.5800  -27.5340    9.6150 N.pl3 106  ARG106      0.1354
     76  N         -8.2200  -27.7570   -1.9900 N.3   115  PHE115     -0.1241
     77  CA        -7.9220  -26.3790   -1.5840 C.3   115  PHE115      0.1605
     78  C         -6.7870  -25.7860   -2.4160 C.2   115  PHE115      0.2264
     79  O         -6.2440  -26.4400   -3.3060 O.2   115  PHE115     -0.2867
     80  CB        -7.5810  -26.2800   -0.0860 C.3   115  PHE115      0.0534
     81  CG        -8.7420  -26.5400    0.8440 C.ar  115  PHE115     -0.0203
     82  CD1       -9.5890  -27.6240    0.6570 C.ar  115  PHE115     -0.0042
     83  CD2       -8.9550  -25.7160    1.9410 C.ar  115  PHE115     -0.0042
     84  CE1      -10.6410  -27.8610    1.5290 C.ar  115  PHE115     -0.0003
     85  CE2      -10.0030  -25.9500    2.8190 C.ar  115  PHE115     -0.0003
     86  CZ       -10.8470  -27.0240    2.6150 C.ar  115  PHE115     -0.0000
     87  N         -6.8490  -21.2940    7.8900 N.3   116  ARG116     -0.1245
     88  CA        -7.6140  -21.3830    9.1280 C.3   116  ARG116      0.1563
     89  C         -7.3370  -22.7000    9.8640 C.2   116  ARG116      0.2260
     90  O         -7.7590  -23.7690    9.4160 O.2   116  ARG116     -0.2867
     91  CB        -9.1180  -21.2180    8.8460 C.3   116  ARG116      0.0307
     92  CG       -10.0170  -21.3380   10.0820 C.3   116  ARG116      0.0489
     93  CD       -11.4960  -21.0810    9.7670 C.3   116  ARG116      0.2205
     94  NE       -11.8110  -19.6610    9.5990 N.pl3 116  ARG116     -0.0865
     95  CZ       -13.0460  -19.1710    9.5080 C.cat 116  ARG116      0.5346
     96  NH1      -13.2370  -17.8680    9.3580 N.pl3 116  ARG116      0.1354
     97  NH2      -14.0950  -19.9790    9.5720 N.pl3 116  ARG116      0.1354
     98  N        -16.3840  -27.0750   16.3020 N.3   121  HIS121     -0.1241
     99  CA       -17.5960  -26.3600   16.6840 C.3   121  HIS121      0.1621
    100  C        -18.8380  -26.9890   16.0620 C.2   121  HIS121      0.2264
    101  O        -18.7570  -27.7560   15.0890 O.2   121  HIS121     -0.2867
    102  CB       -17.4960  -24.8720   16.3100 C.3   121  HIS121      0.0745
    103  CG       -17.5300  -24.6040   14.8360 C.ar  121  HIS121      0.0817
    104  ND1      -16.4020  -24.6380   14.0430 N.ar  121  HIS121     -0.2268
    105  CD2      -18.5560  -24.2780   14.0090 C.ar  121  HIS121      0.1154
    106  CE1      -16.7280  -24.3530   12.7940 C.ar  121  HIS121      0.1986
    107  NE2      -18.0310  -24.1290   12.7460 N.ar  121  HIS121     -0.2212
    108  N        -22.2240  -25.4630   14.5390 N.3   123  THR123     -0.1218
    109  CA       -22.9070  -24.2260   14.1550 C.3   123  THR123      0.1862
    110  C        -24.3870  -24.3840   14.4540 C.2   123  THR123      0.2287
    111  O        -24.9860  -25.3950   14.0760 O.2   123  THR123     -0.2866
    112  CB       -22.7210  -23.9360   12.6590 C.3   123  THR123      0.1770
    113  OG1      -21.3370  -23.6690   12.4080 O.3   123  THR123     -0.2211
    114  CG2      -23.5580  -22.7280   12.2190 C.3   123  THR123      0.0375
    115  N        -27.1170  -19.4220   11.5350 N.3   126  ARG126     -0.1245
    116  CA       -26.3800  -18.7530   10.4760 C.3   126  ARG126      0.1563
    117  C        -26.9760  -17.3710   10.3230 C.2   126  ARG126      0.2260
    118  O        -28.0450  -17.0930   10.8790 O.2   126  ARG126     -0.2867
    119  CB       -26.5210  -19.5130    9.1600 C.3   126  ARG126      0.0307
    120  CG       -26.1760  -20.9840    9.2300 C.3   126  ARG126      0.0489
    121  CD       -26.1690  -21.5800    7.8180 C.3   126  ARG126      0.2205
    122  NE       -25.8480  -23.0030    7.8490 N.pl3 126  ARG126     -0.0865
    123  CZ       -24.6150  -23.4810    7.9850 C.cat 126  ARG126      0.5346
    124  NH1      -23.5930  -22.6380    8.1000 N.pl3 126  ARG126      0.1354
    125  NH2      -24.3990  -24.7940    8.0150 N.pl3 126  ARG126      0.1354
    126  N        -22.9740  -33.4820    0.7900 N.3   153  SER153     -0.1217
    127  CA       -23.9320  -32.4090    0.9900 C.3   153  SER153      0.1889
    128  C        -24.6120  -32.0700   -0.3280 C.2   153  SER153      0.2288
    129  O        -23.9580  -31.9320   -1.3740 O.2   153  SER153     -0.2866
    130  CB       -23.2660  -31.1850    1.6190 C.3   153  SER153      0.2089
    131  OG       -24.0980  -30.0580    1.4750 O.3   153  SER153     -0.2183
    132  N        -30.6470  -27.7870    2.4020 N.3   160  THR160     -0.1218
    133  CA       -29.3880  -28.5290    2.3480 C.3   160  THR160      0.1862
    134  C        -29.5380  -29.8500    3.1020 C.2   160  THR160      0.2287
    135  O        -30.0330  -29.8750    4.2300 O.2   160  THR160     -0.2866
    136  CB       -28.2140  -27.7160    2.9330 C.3   160  THR160      0.1770
    137  OG1      -27.8000  -26.7270    1.9810 O.3   160  THR160     -0.2211
    138  CG2      -27.0330  -28.6230    3.2530 C.3   160  THR160      0.0375
    139  N        -27.7080  -33.7230    4.2440 N.3   162  TYR162     -0.1241
    140  CA       -26.4690  -34.4710    4.4160 C.3   162  TYR162      0.1605
    141  C        -26.7420  -35.9730    4.3020 C.2   162  TYR162      0.2264
    142  O        -27.5820  -36.5100    5.0310 O.2   162  TYR162     -0.2867
    143  CB       -25.8500  -34.1550    5.7850 C.3   162  TYR162      0.0534
    144  CG       -25.4800  -32.6940    5.9830 C.ar  162  TYR162     -0.0201
    145  CD1      -25.0830  -31.9070    4.9150 C.ar  162  TYR162     -0.0009
    146  CD2      -25.5170  -32.1140    7.2470 C.ar  162  TYR162     -0.0009
    147  CE1      -24.7360  -30.5780    5.0940 C.ar  162  TYR162      0.0417
    148  CE2      -25.1720  -30.7870    7.4370 C.ar  162  TYR162      0.0417
    149  CZ       -24.7890  -30.0240    6.3530 C.ar  162  TYR162      0.1957
    150  OH       -24.4430  -28.7150    6.5210 O.3   162  TYR162     -0.2866
@<TRIPOS>BOND
     1    79    78    2
     2     1     2    1
     3    78    77    1
     4     2     5    1
     5     2     3    1
     6    76    77    1
     7     5     6    1
     8    77    80    1
     9   129   128    2
    10     7     6    1
    11     7     8    1
    12    11     9    1
    13     3     4    2
    14   128   127    1
    15    80    81    1
    16     8     9    2
    17     9    10    1
    18    82    81   ar
    19    82    84   ar
    20   126   127    1
    21    81    83   ar
    22    57    56   ar
    23    57    55   ar
    24   127   130    1
    25    56    54   ar
    26   131   130    1
    27    84    86   ar
    28    83    85   ar
    29    55    53   ar
    30   137   136    1
    31    54    52   ar
    32   133   132    1
    33   133   136    1
    34   133   134    1
    35    86    85   ar
    36   136   138    1
    37    50    49    2
    38    53    52   ar
    39   134   135    2
    40    12    13    1
    41    49    48    1
    42    52    51    1
    43   139   140    1
    44   141   140    1
    45   141   142    2
    46    13    16    1
    47    13    14    1
    48   140   143    1
    49    51    48    1
    50    48    47    1
    51    19    21   ar
    52    19    17   ar
    53   145   147   ar
    54   145   144   ar
    55    68    67    2
    56    21    22   ar
    57    16    17    1
    58   147   149   ar
    59    15    14    2
    60    17    18   ar
    61   143   144    1
    62   144   146   ar
    63    67    66    1
    64    22    20   ar
    65   149   150    1
    66   149   148   ar
    67    18    20   ar
    68    66    65    1
    69    66    69    1
    70   146   148   ar
    71    69    70    1
    72   121   122    1
    73   121   120    1
    74   122   123    2
    75    87    88    1
    76   123   125    1
    77   123   124    1
    78    70    71    1
    79    46    44    1
    80    91    88    1
    81    91    92    1
    82    88    89    1
    83   119   120    1
    84   119   116    1
    85    96    95    1
    86    90    89    2
    87    95    97    1
    88    95    94    2
    89    38    39   ar
    90    38    36   ar
    91    74    73    1
    92    73    72    2
    93    73    75    1
    94    94    93    1
    95    72    71    1
    96    45    44    1
    97    39    37   ar
    98    93    92    1
    99    44    41    1
   100   117   116    1
   101   117   118    2
   102    36    35   ar
   103   116   115    1
   104    37    35   ar
   105    41    42    1
   106    41    40    1
   107    35    34    1
   108    63    62    1
   109    42    43    2
   110    24    25    1
   111    24    27    1
   112    24    23    1
   113    29    27    1
   114    28    27    1
   115    25    26    2
   116    34    31    1
   117   114   112    1
   118   113   112    1
   119   112   109    1
   120   107   106   ar
   121   107   105   ar
   122    58    59    1
   123    62    64    1
   124    62    59    1
   125   106   104   ar
   126    59    60    1
   127    30    31    1
   128    31    32    1
   129    33    32    2
   130   105   103   ar
   131   104   103   ar
   132   111   110    2
   133   109   110    1
   134   109   108    1
   135    60    61    2
   136   103   102    1
   137   101   100    2
   138   100    99    1
   139    98    99    1
   140   102    99    1
