@<TRIPOS>MOLECULE
tmp/5ldqA01.pdb
 93 93 0 0 0
SMALL
GASTEIGER

@<TRIPOS>ATOM
      1  N         12.0700  -28.7110   40.2640 N.3    80  GLN80      -0.1231
      2  CA        11.1390  -29.0350   41.3260 C.3    80  GLN80       0.1698
      3  C         11.8750  -29.7720   42.4380 C.2    80  GLN80       0.2592
      4  O         12.6670  -30.6790   42.1640 O.2    80  GLN80      -0.2718
      5  CB        10.0160  -29.9070   40.7540 C.3    80  GLN80       0.0381
      6  CG         8.9840  -30.3350   41.7890 C.3    80  GLN80       0.0905
      7  CD         7.8540  -31.1490   41.1940 C.2    80  GLN80       0.2608
      8  OE1        7.9490  -31.6460   40.0560 O.2    80  GLN80      -0.2717
      9  NE2        6.7780  -31.3160   41.9680 N.am   80  GLN80      -0.0878
     10  N         11.6220  -29.3840   43.6890 N.am   81  TRP81      -0.1962
     11  CA        12.1300  -30.1250   44.8450 C.3    81  TRP81       0.1771
     12  C         10.9690  -30.8410   45.5260 C.2    81  TRP81       0.2619
     13  O         10.1740  -30.1960   46.2210 O.2    81  TRP81      -0.2715
     14  CB        12.7690  -29.1530   45.8500 C.3    81  TRP81       0.0590
     15  CG        14.0530  -28.5670   45.3870 C.ar   81  TRP81       0.0006
     16  CD1       14.9570  -29.1330   44.5250 C.ar   81  TRP81       0.0946
     17  CD2       14.5750  -27.2710   45.7260 C.ar   81  TRP81       0.0152
     18  NE1       16.0150  -28.2740   44.3250 N.ar   81  TRP81      -0.2442
     19  CE2       15.8080  -27.1290   45.0550 C.ar   81  TRP81       0.0810
     20  CE3       14.1250  -26.2300   46.5490 C.ar   81  TRP81       0.0012
     21  CZ2       16.5950  -25.9670   45.1670 C.ar   81  TRP81       0.0191
     22  CZ3       14.9090  -25.0880   46.6690 C.ar   81  TRP81       0.0001
     23  CH2       16.1280  -24.9650   45.9790 C.ar   81  TRP81       0.0015
     24  N         10.8660  -32.1620   45.3640 N.am   82  LEU82      -0.1963
     25  CA         9.7300  -32.8830   45.9170 C.3    82  LEU82       0.1728
     26  C          9.7650  -32.9090   47.4480 C.2    82  LEU82       0.2616
     27  O          8.7150  -32.9560   48.0830 O.2    82  LEU82      -0.2715
     28  CB         9.6310  -34.3040   45.3470 C.3    82  LEU82       0.0311
     29  CG         8.8800  -34.4010   44.0160 C.3    82  LEU82       0.0022
     30  CD1        8.9510  -35.8070   43.4220 C.3    82  LEU82       0.0001
     31  CD2        7.4260  -33.9650   44.1840 C.3    82  LEU82       0.0001
     32  N         10.9620  -32.8650   48.0390 N.am   83  ARG83      -0.1963
     33  CA        11.0740  -32.9010   49.5050 C.3    83  ARG83       0.1729
     34  C         10.5160  -31.6290   50.1440 C.2    83  ARG83       0.2616
     35  O         10.0670  -31.6510   51.2950 O.2    83  ARG83      -0.2715
     36  CB        12.5260  -33.0990   49.9640 C.3    83  ARG83       0.0348
     37  CG        13.0530  -34.5430   49.9540 C.3    83  ARG83       0.0492
     38  CD        14.5000  -34.6190   50.4880 C.3    83  ARG83       0.2205
     39  NE        14.5910  -34.6330   51.9520 N.pl3  83  ARG83      -0.0865
     40  CZ        15.5430  -34.0230   52.6590 C.cat  83  ARG83       0.5346
     41  NH1       15.5400  -34.0990   53.9870 N.pl3  83  ARG83       0.1354
     42  NH2       16.4960  -33.3280   52.0470 N.pl3  83  ARG83       0.1354
     43  N         10.5500  -30.5280   49.3990 N.am   84  SER84      -0.1950
     44  CA        10.0400  -29.2580   49.8890 C.3    84  SER84       0.1924
     45  C          8.6950  -28.9520   49.2460 C.2    84  SER84       0.2314
     46  O          8.0260  -27.9850   49.6220 O.2    84  SER84      -0.2863
     47  CB        11.0300  -28.1430   49.5680 C.3    84  SER84       0.2116
     48  OG        12.3240  -28.4950   49.9930 O.3    84  SER84      -0.2180
     49  N          8.1490  -27.7710   46.2680 N.3    86  VAL86      -0.1245
     50  CA         8.1570  -26.4970   45.5430 C.3    86  VAL86       0.1561
     51  C          8.6340  -26.6580   44.1090 C.2    86  VAL86       0.2260
     52  O          9.3560  -27.6030   43.7760 O.2    86  VAL86      -0.2867
     53  CB         9.0180  -25.4290   46.2530 C.3    86  VAL86       0.0252
     54  CG1        8.4400  -25.0830   47.6300 C.3    86  VAL86       0.0019
     55  CG2       10.4450  -25.9180   46.3900 C.3    86  VAL86       0.0019
     56  N         22.6280  -26.5290   56.1620 N.3   119  ARG119     -0.1231
     57  CA        22.4540  -26.7240   54.7230 C.3   119  ARG119      0.1679
     58  C         23.0320  -25.5970   53.8750 C.2   119  ARG119      0.2434
     59  O         22.8600  -24.4160   54.1930 O.2   119  ARG119     -0.2733
     60  CB        20.9730  -26.8970   54.3740 C.3   119  ARG119      0.0321
     61  CG        20.2980  -28.0790   55.0450 C.3   119  ARG119      0.0489
     62  CD        18.9940  -28.3910   54.3440 C.3   119  ARG119      0.2205
     63  NE        18.2110  -29.4150   55.0240 N.pl3 119  ARG119     -0.0865
     64  CZ        17.1440  -29.1500   55.7690 C.cat 119  ARG119      0.5346
     65  NH1       16.7450  -27.8900   55.9160 N.pl3 119  ARG119      0.1354
     66  NH2       16.4770  -30.1360   56.3600 N.pl3 119  ARG119      0.1354
     67  N         23.6980  -25.9690   52.7710 N.am  120  PRO120     -0.2729
     68  CA        24.3430  -25.0340   51.8450 C.3   120  PRO120      0.1401
     69  C         23.3100  -24.1070   51.2220 C.2   120  PRO120      0.2269
     70  O         22.1610  -24.5100   51.0480 O.2   120  PRO120     -0.2865
     71  CB        24.9180  -25.9540   50.7610 C.3   120  PRO120      0.0296
     72  CG        24.9510  -27.3230   51.3700 C.3   120  PRO120      0.0237
     73  CD        23.7900  -27.3620   52.3030 C.3   120  PRO120      0.0939
     74  N         21.0940  -22.4830   48.6330 N.3   122  HIS122     -0.1241
     75  CA        20.6110  -22.8970   47.3310 C.3   122  HIS122      0.1621
     76  C         19.7060  -21.8160   46.7540 C.2   122  HIS122      0.2264
     77  O         18.4910  -21.8690   46.9320 O.2   122  HIS122     -0.2867
     78  CB        19.8400  -24.2210   47.4610 C.3   122  HIS122      0.0745
     79  CG        20.6800  -25.3770   47.9270 C.ar  122  HIS122      0.0817
     80  ND1       21.6450  -25.9670   47.1380 N.ar  122  HIS122     -0.2268
     81  CD2       20.6800  -26.0680   49.0930 C.ar  122  HIS122      0.1154
     82  CE1       22.2120  -26.9590   47.7990 C.ar  122  HIS122      0.1986
     83  NE2       21.6480  -27.0410   48.9900 N.ar  122  HIS122     -0.2212
     84  N         17.1550  -19.6040   44.9750 N.3   124  HIS124     -0.1241
     85  CA        15.9950  -19.9700   44.1720 C.3   124  HIS124      0.1621
     86  C         14.8430  -19.0020   44.3790 C.2   124  HIS124      0.2264
     87  O         14.7970  -18.2480   45.3620 O.2   124  HIS124     -0.2867
     88  CB        15.5360  -21.3870   44.4930 C.3   124  HIS124      0.0745
     89  CG        14.9590  -21.5270   45.8690 C.ar  124  HIS124      0.0817
     90  ND1       15.7370  -21.5000   46.9980 N.ar  124  HIS124     -0.2268
     91  CD2       13.6770  -21.6820   46.2890 C.ar  124  HIS124      0.1154
     92  CE1       14.9670  -21.6380   48.0680 C.ar  124  HIS124      0.1986
     93  NE2       13.7180  -21.7660   47.6640 N.ar  124  HIS124     -0.2212
@<TRIPOS>BOND
     1     8     7    2
     2     1     2    1
     3     5     2    1
     4     5     6    1
     5     7     6    1
     6     7     9   am
     7     2     3    1
     8     4     3    2
     9     3    10   am
    10    30    29    1
    11    10    11    1
    12    52    51    2
    13    29    31    1
    14    29    28    1
    15    51    50    1
    16    85    86    1
    17    85    88    1
    18    85    84    1
    19    18    16   ar
    20    18    19   ar
    21    86    87    2
    22    88    89    1
    23    16    15   ar
    24    11    12    1
    25    11    14    1
    26    19    21   ar
    27    19    17   ar
    28    21    23   ar
    29    28    25    1
    30    24    12   am
    31    24    25    1
    32    15    17   ar
    33    15    14    1
    34    12    13    2
    35    50    53    1
    36    50    49    1
    37    17    20   ar
    38    89    91   ar
    39    89    90   ar
    40    25    26    1
    41    23    22   ar
    42    53    55    1
    43    53    54    1
    44    91    93   ar
    45    20    22   ar
    46    76    77    2
    47    76    75    1
    48    90    92   ar
    49    80    82   ar
    50    80    79   ar
    51    75    78    1
    52    75    74    1
    53    26    32   am
    54    26    27    2
    55    78    79    1
    56    93    92   ar
    57    82    83   ar
    58    79    81   ar
    59    32    33    1
    60    83    81   ar
    61    45    46    2
    62    45    44    1
    63    43    44    1
    64    43    34   am
    65    33    36    1
    66    33    34    1
    67    47    44    1
    68    47    48    1
    69    37    36    1
    70    37    38    1
    71    34    35    2
    72    38    39    1
    73    71    72    1
    74    71    68    1
    75    70    69    2
    76    69    68    1
    77    72    73    1
    78    68    67    1
    79    39    40    2
    80    42    40    1
    81    73    67    1
    82    40    41    1
    83    67    58   am
    84    58    59    2
    85    58    57    1
    86    62    63    1
    87    62    61    1
    88    60    57    1
    89    60    61    1
    90    57    56    1
    91    63    64    2
    92    64    65    1
    93    64    66    1
