@<TRIPOS>MOLECULE
tmp/5ldqA00.pdb
 230 222 0 0 0
SMALL
GASTEIGER

@<TRIPOS>ATOM
      1  N          8.2210  -11.9950   61.9820 N.3     5  ARG5       -0.1245
      2  CA         8.8570  -13.0880   61.2660 C.3     5  ARG5        0.1563
      3  C          9.5490  -12.4700   60.0650 C.2     5  ARG5        0.2260
      4  O          8.8880  -11.9130   59.1800 O.2     5  ARG5       -0.2867
      5  CB         7.7780  -14.0780   60.8270 C.3     5  ARG5        0.0307
      6  CG         8.2260  -15.2360   59.9530 C.3     5  ARG5        0.0489
      7  CD         7.0380  -16.1640   59.6980 C.3     5  ARG5        0.2205
      8  NE         7.4030  -17.3860   58.9840 N.pl3   5  ARG5       -0.0865
      9  CZ         7.7860  -18.5130   59.5780 C.cat   5  ARG5        0.5346
     10  NH1        8.0910  -19.5850   58.8500 N.pl3   5  ARG5        0.1354
     11  NH2        7.8730  -18.5690   60.9000 N.pl3   5  ARG5        0.1354
     12  N         12.8120  -12.0250   57.0060 N.3     7  PHE7       -0.1241
     13  CA        13.8010  -12.6280   56.1420 C.3     7  PHE7        0.1605
     14  C         14.3560  -11.5590   55.2340 C.2     7  PHE7        0.2264
     15  O         13.6870  -10.5370   54.9960 O.2     7  PHE7       -0.2867
     16  CB        13.2160  -13.8010   55.3220 C.3     7  PHE7        0.0534
     17  CG        12.1230  -13.4110   54.3520 C.ar    7  PHE7       -0.0203
     18  CD1       12.4240  -13.1300   53.0110 C.ar    7  PHE7       -0.0042
     19  CD2       10.7940  -13.3820   54.7530 C.ar    7  PHE7       -0.0042
     20  CE1       11.4080  -12.7890   52.1190 C.ar    7  PHE7       -0.0003
     21  CE2        9.7780  -13.0400   53.8690 C.ar    7  PHE7       -0.0003
     22  CZ        10.0870  -12.7520   52.5390 C.ar    7  PHE7       -0.0000
     23  N          0.0660  -24.5130   44.5760 N.3    34  ARG34      -0.1245
     24  CA        -0.4870  -23.1940   44.8570 C.3    34  ARG34       0.1563
     25  C          0.4790  -22.0990   44.4250 C.2    34  ARG34       0.2260
     26  O          1.6440  -22.0770   44.8310 O.2    34  ARG34      -0.2867
     27  CB        -0.9280  -23.0450   46.3230 C.3    34  ARG34       0.0307
     28  CG         0.1740  -22.8850   47.3510 C.3    34  ARG34       0.0489
     29  CD        -0.4190  -22.5120   48.7080 C.3    34  ARG34       0.2205
     30  NE         0.5740  -22.0040   49.6490 N.pl3  34  ARG34      -0.0865
     31  CZ         1.1830  -22.7410   50.5730 C.cat  34  ARG34       0.5346
     32  NH1        2.0670  -22.1780   51.3910 N.pl3  34  ARG34       0.1354
     33  NH2        0.9130  -24.0360   50.6820 N.pl3  34  ARG34       0.1354
     34  N         10.2530  -13.7190   45.0590 N.3    42  HIS42      -0.1241
     35  CA        11.5040  -13.1790   45.5690 C.3    42  HIS42       0.1621
     36  C         12.5170  -14.2970   45.7000 C.2    42  HIS42       0.2264
     37  O         12.1750  -15.4880   45.6300 O.2    42  HIS42      -0.2867
     38  CB        11.2670  -12.5810   46.9730 C.3    42  HIS42       0.0745
     39  CG        11.0190  -13.6480   48.0090 C.ar   42  HIS42       0.0817
     40  ND1        9.7920  -14.2410   48.1640 N.ar   42  HIS42      -0.2268
     41  CD2       11.8660  -14.2750   48.8610 C.ar   42  HIS42       0.1154
     42  CE1        9.8780  -15.1870   49.1020 C.ar   42  HIS42       0.1986
     43  NE2       11.1180  -15.2230   49.5360 N.ar   42  HIS42      -0.2212
     44  N         15.1110  -15.5960   48.4710 N.3    44  THR44      -0.1203
     45  CA        15.5210  -15.4070   49.8540 C.3    44  THR44       0.1994
     46  C         17.0420  -15.4370   49.9980 C.2    44  THR44       0.2618
     47  O         17.7230  -16.2810   49.4020 O.2    44  THR44      -0.2717
     48  CB        14.8960  -16.4970   50.7200 C.3    44  THR44       0.1784
     49  OG1       13.4720  -16.4220   50.5550 O.3    44  THR44      -0.2211
     50  CG2       15.2640  -16.3070   52.2140 C.3    44  THR44       0.0376
     51  N         17.5640  -14.5130   50.7990 N.am   45  LEU45      -0.1965
     52  CA        18.9770  -14.4940   51.1520 C.3    45  LEU45       0.1728
     53  C         19.2080  -15.1760   52.5030 C.2    45  LEU45       0.2616
     54  O         20.0790  -16.0280   52.6350 O.2    45  LEU45      -0.2715
     55  CB        19.4650  -13.0600   51.2300 C.3    45  LEU45       0.0311
     56  CG        19.4570  -12.3430   49.8830 C.3    45  LEU45       0.0022
     57  CD1       19.7160  -10.8520   50.1180 C.3    45  LEU45       0.0001
     58  CD2       20.5440  -12.9280   49.0060 C.3    45  LEU45       0.0001
     59  N         18.4620  -14.7560   53.5190 N.am   46  ALA46      -0.1963
     60  CA        18.6010  -15.3580   54.8500 C.3    46  ALA46       0.1728
     61  C         17.2650  -15.3060   55.5580 C.2    46  ALA46       0.2616
     62  O         16.6020  -14.2680   55.5730 O.2    46  ALA46      -0.2715
     63  CB        19.6690  -14.6330   55.6660 C.3    46  ALA46       0.0334
     64  N         16.8750  -16.4220   56.1600 N.am   47  PHE47      -0.1974
     65  CA        15.6240  -16.4700   56.9000 C.3    47  PHE47       0.1639
     66  C         15.9250  -16.3500   58.3870 C.2    47  PHE47       0.2290
     67  O         16.7960  -17.0570   58.9060 O.2    47  PHE47      -0.2864
     68  CB        14.9130  -17.7850   56.6150 C.3    47  PHE47       0.0560
     69  CG        13.6950  -18.0150   57.4690 C.ar   47  PHE47      -0.0200
     70  CD1       12.4920  -17.3780   57.1740 C.ar   47  PHE47      -0.0042
     71  CD2       13.7490  -18.8800   58.5530 C.ar   47  PHE47      -0.0042
     72  CE1       11.3640  -17.5900   57.9520 C.ar   47  PHE47      -0.0003
     73  CE2       12.6210  -19.1020   59.3420 C.ar   47  PHE47      -0.0003
     74  CZ        11.4230  -18.4610   59.0390 C.ar   47  PHE47      -0.0000
     75  N         11.6220  -29.3840   43.6890 N.3    81  TRP81      -0.1241
     76  CA        12.1300  -30.1250   44.8450 C.3    81  TRP81       0.1605
     77  C         10.9690  -30.8410   45.5260 C.2    81  TRP81       0.2264
     78  O         10.1740  -30.1960   46.2210 O.2    81  TRP81      -0.2867
     79  CB        12.7690  -29.1530   45.8500 C.3    81  TRP81       0.0550
     80  CG        14.0530  -28.5670   45.3870 C.ar   81  TRP81       0.0003
     81  CD1       14.9570  -29.1330   44.5250 C.ar   81  TRP81       0.0946
     82  CD2       14.5750  -27.2710   45.7260 C.ar   81  TRP81       0.0152
     83  NE1       16.0150  -28.2740   44.3250 N.ar   81  TRP81      -0.2442
     84  CE2       15.8080  -27.1290   45.0550 C.ar   81  TRP81       0.0810
     85  CE3       14.1250  -26.2300   46.5490 C.ar   81  TRP81       0.0012
     86  CZ2       16.5950  -25.9670   45.1670 C.ar   81  TRP81       0.0191
     87  CZ3       14.9090  -25.0880   46.6690 C.ar   81  TRP81       0.0001
     88  CH2       16.1280  -24.9650   45.9790 C.ar   81  TRP81       0.0015
     89  N         10.5500  -30.5280   49.3990 N.3    84  SER84      -0.1217
     90  CA        10.0400  -29.2580   49.8890 C.3    84  SER84       0.1889
     91  C          8.6950  -28.9520   49.2460 C.2    84  SER84       0.2288
     92  O          8.0260  -27.9850   49.6220 O.2    84  SER84      -0.2866
     93  CB        11.0300  -28.1430   49.5680 C.3    84  SER84       0.2089
     94  OG        12.3240  -28.4950   49.9930 O.3    84  SER84      -0.2183
     95  N          8.1490  -27.7710   46.2680 N.3    86  VAL86      -0.1245
     96  CA         8.1570  -26.4970   45.5430 C.3    86  VAL86       0.1561
     97  C          8.6340  -26.6580   44.1090 C.2    86  VAL86       0.2260
     98  O          9.3560  -27.6030   43.7760 O.2    86  VAL86      -0.2867
     99  CB         9.0180  -25.4290   46.2530 C.3    86  VAL86       0.0252
    100  CG1        8.4400  -25.0830   47.6300 C.3    86  VAL86       0.0019
    101  CG2       10.4450  -25.9180   46.3900 C.3    86  VAL86       0.0019
    102  N         23.4490  -14.7560   56.3620 N.3   106  ARG106     -0.1245
    103  CA        23.2520  -15.9920   57.1230 C.3   106  ARG106      0.1563
    104  C         24.1790  -16.0930   58.3380 C.2   106  ARG106      0.2260
    105  O         23.7610  -16.5600   59.4050 O.2   106  ARG106     -0.2867
    106  CB        23.4010  -17.2080   56.1960 C.3   106  ARG106      0.0307
    107  CG        22.2120  -17.3810   55.2210 C.3   106  ARG106      0.0489
    108  CD        22.5520  -18.2530   53.9740 C.3   106  ARG106      0.2205
    109  NE        23.1270  -19.5540   54.3040 N.pl3 106  ARG106     -0.0865
    110  CZ        22.4420  -20.6930   54.3030 C.cat 106  ARG106      0.5346
    111  NH1       23.0390  -21.8380   54.6160 N.pl3 106  ARG106      0.1354
    112  NH2       21.1510  -20.6840   53.9900 N.pl3 106  ARG106      0.1354
    113  N         18.1060  -19.6990   64.1680 N.3   115  PHE115     -0.1227
    114  CA        18.3110  -21.0300   63.6220 C.3   115  PHE115      0.1736
    115  C         18.6540  -20.9470   62.1450 C.2   115  PHE115      0.2595
    116  O         17.8330  -20.5320   61.3200 O.2   115  PHE115     -0.2718
    117  CB        17.0670  -21.9000   63.8090 C.3   115  PHE115      0.0547
    118  CG        17.1350  -23.2240   63.0900 C.ar  115  PHE115     -0.0202
    119  CD1       17.8150  -24.2990   63.6530 C.ar  115  PHE115     -0.0042
    120  CD2       16.5110  -23.3970   61.8580 C.ar  115  PHE115     -0.0042
    121  CE1       17.8840  -25.5190   62.9980 C.ar  115  PHE115     -0.0003
    122  CE2       16.5760  -24.6160   61.1910 C.ar  115  PHE115     -0.0003
    123  CZ        17.2640  -25.6800   61.7650 C.ar  115  PHE115     -0.0000
    124  N         19.8810  -21.3320   61.8220 N.am  116  GLN116     -0.1965
    125  CA        20.2490  -21.6110   60.4450 C.3   116  GLN116      0.1733
    126  C         20.4900  -23.1080   60.3410 C.2   116  GLN116      0.2617
    127  O         21.1440  -23.6970   61.2070 O.2   116  GLN116     -0.2715
    128  CB        21.5110  -20.8440   60.0510 C.3   116  GLN116      0.0408
    129  CG        21.3120  -19.3450   59.8890 C.3   116  GLN116      0.0908
    130  CD        20.6300  -18.9890   58.5830 C.2   116  GLN116      0.2608
    131  OE1       20.9650  -19.5290   57.5260 O.2   116  GLN116     -0.2717
    132  NE2       19.6640  -18.0790   58.6480 N.am  116  GLN116     -0.0878
    133  N         19.9390  -23.7350   59.3060 N.am  117  SER117     -0.1950
    134  CA        20.2930  -25.1170   59.0160 C.3   117  SER117      0.1924
    135  C         21.7510  -25.0970   58.5960 C.2   117  SER117      0.2314
    136  O         22.2600  -24.0650   58.1480 O.2   117  SER117     -0.2863
    137  CB        19.4260  -25.6960   57.8970 C.3   117  SER117      0.2116
    138  OG        19.7060  -25.0880   56.6490 O.3   117  SER117     -0.2180
    139  N         22.6280  -26.5290   56.1620 N.3   119  ARG119     -0.1245
    140  CA        22.4540  -26.7240   54.7230 C.3   119  ARG119      0.1563
    141  C         23.0320  -25.5970   53.8750 C.2   119  ARG119      0.2260
    142  O         22.8600  -24.4160   54.1930 O.2   119  ARG119     -0.2867
    143  CB        20.9730  -26.8970   54.3740 C.3   119  ARG119      0.0307
    144  CG        20.2980  -28.0790   55.0450 C.3   119  ARG119      0.0489
    145  CD        18.9940  -28.3910   54.3440 C.3   119  ARG119      0.2205
    146  NE        18.2110  -29.4150   55.0240 N.pl3 119  ARG119     -0.0865
    147  CZ        17.1440  -29.1500   55.7690 C.cat 119  ARG119      0.5346
    148  NH1       16.7450  -27.8900   55.9160 N.pl3 119  ARG119      0.1354
    149  NH2       16.4770  -30.1360   56.3600 N.pl3 119  ARG119      0.1354
    150  N         23.7070  -22.8870   50.8880 N.3   121  PHE121     -0.1241
    151  CA        22.7780  -21.9420   50.2890 C.3   121  PHE121      0.1605
    152  C         22.3930  -22.3950   48.8910 C.2   121  PHE121      0.2264
    153  O         23.2570  -22.6620   48.0590 O.2   121  PHE121     -0.2867
    154  CB        23.4030  -20.5560   50.2280 C.3   121  PHE121      0.0534
    155  CG        22.5160  -19.5190   49.6030 C.ar  121  PHE121     -0.0203
    156  CD1       21.2200  -19.3180   50.0720 C.ar  121  PHE121     -0.0042
    157  CD2       22.9880  -18.7130   48.5780 C.ar  121  PHE121     -0.0042
    158  CE1       20.3970  -18.3450   49.5100 C.ar  121  PHE121     -0.0003
    159  CE2       22.1790  -17.7390   48.0100 C.ar  121  PHE121     -0.0003
    160  CZ        20.8820  -17.5520   48.4720 C.ar  121  PHE121     -0.0000
    161  N         17.1550  -19.6040   44.9750 N.3   124  HIS124     -0.1241
    162  CA        15.9950  -19.9700   44.1720 C.3   124  HIS124      0.1621
    163  C         14.8430  -19.0020   44.3790 C.2   124  HIS124      0.2264
    164  O         14.7970  -18.2480   45.3620 O.2   124  HIS124     -0.2867
    165  CB        15.5360  -21.3870   44.4930 C.3   124  HIS124      0.0745
    166  CG        14.9590  -21.5270   45.8690 C.ar  124  HIS124      0.0817
    167  ND1       15.7370  -21.5000   46.9980 N.ar  124  HIS124     -0.2268
    168  CD2       13.6770  -21.6820   46.2890 C.ar  124  HIS124      0.1154
    169  CE1       14.9670  -21.6380   48.0680 C.ar  124  HIS124      0.1986
    170  NE2       13.7180  -21.7660   47.6640 N.ar  124  HIS124     -0.2212
    171  N         10.7920  -19.3790   44.5470 N.3   126  THR126     -0.1218
    172  CA         9.7010  -20.3480   44.5710 C.3   126  THR126      0.1862
    173  C          8.5210  -19.8280   43.7690 C.2   126  THR126      0.2287
    174  O          8.1200  -18.6750   43.9380 O.2   126  THR126     -0.2866
    175  CB         9.2770  -20.6140   45.9930 C.3   126  THR126      0.1770
    176  OG1       10.4080  -21.1350   46.6900 O.3   126  THR126     -0.2211
    177  CG2        8.1100  -21.6130   46.0580 C.3   126  THR126      0.0375
    178  N          3.9440  -23.6610   45.6100 N.3   129  ARG129     -0.1245
    179  CA         4.0840  -24.3940   46.8500 C.3   129  ARG129      0.1563
    180  C          3.0800  -25.5460   46.8640 C.2   129  ARG129      0.2260
    181  O          2.1690  -25.5870   46.0260 O.2   129  ARG129     -0.2867
    182  CB         3.8620  -23.4510   48.0320 C.3   129  ARG129      0.0307
    183  CG         4.7410  -22.2000   47.9500 C.3   129  ARG129      0.0489
    184  CD         4.6950  -21.3930   49.2440 C.3   129  ARG129      0.2205
    185  NE         5.7200  -20.3480   49.2300 N.pl3 129  ARG129     -0.0865
    186  CZ         7.0000  -20.5530   49.5500 C.cat 129  ARG129      0.5346
    187  NH1        7.4010  -21.7650   49.9240 N.pl3 129  ARG129      0.1354
    188  NH2        7.8790  -19.5510   49.5030 N.pl3 129  ARG129      0.1354
    189  N          7.1380  -11.2780   57.3770 N.3   156  SER156     -0.1202
    190  CA         6.2480  -12.2560   56.7690 C.3   156  SER156      0.2020
    191  C          5.0410  -12.4340   57.6650 C.2   156  SER156      0.2619
    192  O          5.1720  -12.5770   58.8900 O.2   156  SER156     -0.2717
    193  CB         6.9730  -13.5880   56.5530 C.3   156  SER156      0.2103
    194  OG         6.0700  -14.6250   56.2010 O.3   156  SER156     -0.2182
    195  N          3.8570  -12.3880   57.0690 N.am  157  SER157     -0.1937
    196  CA         2.6320  -12.5330   57.8410 C.3   157  SER157      0.2055
    197  C          1.5310  -13.1580   57.0020 C.2   157  SER157      0.2643
    198  O          1.5370  -13.0700   55.7670 O.2   157  SER157     -0.2714
    199  CB         2.1750  -11.1830   58.3930 C.3   157  SER157      0.2130
    200  OG         1.7600  -10.3230   57.3540 O.3   157  SER157     -0.2179
    201  N          0.6070  -13.8240   57.6820 N.am  158  PHE158     -0.1973
    202  CA        -0.5980  -14.3250   57.0460 C.3   158  PHE158      0.1639
    203  C         -1.7500  -13.4980   57.5890 C.2   158  PHE158      0.2290
    204  O         -2.0310  -13.5150   58.7880 O.2   158  PHE158     -0.2864
    205  CB        -0.8110  -15.8030   57.3620 C.3   158  PHE158      0.0560
    206  CG        -1.8520  -16.4670   56.5010 C.ar  158  PHE158     -0.0200
    207  CD1       -3.1810  -16.5150   56.9080 C.ar  158  PHE158     -0.0042
    208  CD2       -1.5000  -17.0550   55.2890 C.ar  158  PHE158     -0.0042
    209  CE1       -4.1440  -17.1280   56.1180 C.ar  158  PHE158     -0.0003
    210  CE2       -2.4560  -17.6760   54.4920 C.ar  158  PHE158     -0.0003
    211  CZ        -3.7810  -17.7100   54.9070 C.ar  158  PHE158     -0.0000
    212  N         -0.8270  -14.7250   52.1070 N.3   163  THR163     -0.1218
    213  CA         0.5320  -14.5160   52.5850 C.3   163  THR163      0.1862
    214  C          0.9470  -13.1020   52.2020 C.2   163  THR163      0.2287
    215  O          0.6970  -12.6640   51.0770 O.2   163  THR163     -0.2866
    216  CB         1.4980  -15.5280   51.9390 C.3   163  THR163      0.1770
    217  OG1        1.1600  -16.8570   52.3710 O.3   163  THR163     -0.2211
    218  CG2        2.9390  -15.2240   52.3090 C.3   163  THR163      0.0375
    219  N          4.2840  -10.3830   52.3570 N.3   165  TYR165     -0.1241
    220  CA         5.6690  -10.0620   52.6700 C.3   165  TYR165      0.1605
    221  C          5.7870   -8.5400   52.6260 C.2   165  TYR165      0.2264
    222  O          5.6210   -7.9330   51.5640 O.2   165  TYR165     -0.2867
    223  CB         6.6260  -10.6990   51.6500 C.3   165  TYR165      0.0534
    224  CG         6.5640  -12.2110   51.5470 C.ar  165  TYR165     -0.0201
    225  CD1        6.2750  -13.0020   52.6510 C.ar  165  TYR165     -0.0009
    226  CD2        6.7880  -12.8470   50.3280 C.ar  165  TYR165     -0.0009
    227  CE1        6.2260  -14.3930   52.5460 C.ar  165  TYR165      0.0417
    228  CE2        6.7340  -14.2210   50.2110 C.ar  165  TYR165      0.0417
    229  CZ         6.4540  -14.9920   51.3150 C.ar  165  TYR165      0.1957
    230  OH         6.3990  -16.3630   51.1760 O.3   165  TYR165     -0.2866
@<TRIPOS>BOND
     1    75    76    1
     2   173   174    2
     3   173   172    1
     4    98    97    2
     5    97    96    1
     6   162   163    1
     7   162   165    1
     8   162   161    1
     9    83    81   ar
    10    83    84   ar
    11   163   164    2
    12    25    26    2
    13    25    24    1
    14   165   166    1
    15    81    80   ar
    16   171   172    1
    17   172   175    1
    18    23    24    1
    19    76    77    1
    20    76    79    1
    21    24    27    1
    22    84    86   ar
    23    84    82   ar
    24    34    35    1
    25    86    88   ar
    26    80    82   ar
    27    80    79    1
    28    77    78    2
    29    96    99    1
    30    96    95    1
    31    35    36    1
    32    35    38    1
    33   178   179    1
    34    37    36    2
    35    82    85   ar
    36   166   168   ar
    37   166   167   ar
    38    88    87   ar
    39   175   177    1
    40   175   176    1
    41   181   180    2
    42    99   101    1
    43    99   100    1
    44   168   170   ar
    45    27    28    1
    46    85    87   ar
    47   179   180    1
    48   179   182    1
    49    38    39    1
    50   167   169   ar
    51    28    29    1
    52   170   169   ar
    53   183   182    1
    54   183   184    1
    55    39    40   ar
    56    39    41   ar
    57   159   160   ar
    58   159   157   ar
    59   153   152    2
    60    40    42   ar
    61    44    45    1
    62   160   158   ar
    63   157   155   ar
    64    29    30    1
    65    41    43   ar
    66   152   151    1
    67    58    56    1
    68    42    43   ar
    69   185   184    1
    70   185   186    2
    71    91    92    2
    72    91    90    1
    73    89    90    1
    74    47    46    2
    75   188   186    1
    76   158   156   ar
    77   186   187    1
    78    93    90    1
    79    93    94    1
    80   155   156   ar
    81   155   154    1
    82    30    31    2
    83    45    46    1
    84    45    48    1
    85    56    57    1
    86    56    55    1
    87    46    51   am
    88   228   226   ar
    89   228   229   ar
    90   154   151    1
    91   151   150    1
    92   226   224   ar
    93    49    48    1
    94    31    33    1
    95    31    32    1
    96    48    50    1
    97    51    52    1
    98   215   214    2
    99    52    55    1
   100    52    53    1
   101   230   229    1
   102   229   227   ar
   103   224   223    1
   104   224   225   ar
   105   222   221    2
   106   223   220    1
   107   216   218    1
   108   216   217    1
   109   216   213    1
   110   212   213    1
   111    20    22   ar
   112    20    18   ar
   113   214   213    1
   114   219   220    1
   115    53    54    2
   116    53    59   am
   117    22    21   ar
   118   227   225   ar
   119   221   220    1
   120    18    17   ar
   121    59    60    1
   122    21    19   ar
   123   141   142    2
   124   141   140    1
   125   108   109    1
   126   108   107    1
   127   112   110    1
   128   110   109    2
   129   110   111    1
   130   145   146    1
   131   145   144    1
   132    17    19   ar
   133    17    16    1
   134   143   140    1
   135   143   144    1
   136   210   211   ar
   137   210   208   ar
   138   140   139    1
   139    60    61    1
   140    60    63    1
   141   211   209   ar
   142    15    14    2
   143   146   147    2
   144   107   106    1
   145    14    13    1
   146   208   206   ar
   147    16    13    1
   148    61    62    2
   149    61    64   am
   150   198   197    2
   151   147   148    1
   152   147   149    1
   153   209   207   ar
   154    13    12    1
   155    64    65    1
   156   106   103    1
   157   194   193    1
   158   102   103    1
   159   206   207   ar
   160   206   205    1
   161   193   190    1
   162    68    65    1
   163    68    69    1
   164   138   137    1
   165   190   189    1
   166   190   191    1
   167    65    66    1
   168   197   201   am
   169   197   196    1
   170   202   205    1
   171   202   203    1
   172   202   201    1
   173   195   191   am
   174   195   196    1
   175   103   104    1
   176    70    69   ar
   177    70    72   ar
   178   200   199    1
   179    69    71   ar
   180   131   130    2
   181   203   204    2
   182   191   192    2
   183   196   199    1
   184   137   134    1
   185    72    74   ar
   186   136   135    2
   187   104   105    2
   188    66    67    2
   189    71    73   ar
   190   130   132   am
   191   130   129    1
   192   135   134    1
   193    10     9    1
   194     8     9    2
   195     8     7    1
   196   134   133    1
   197    74    73   ar
   198     4     3    2
   199   133   126   am
   200     9    11    1
   201     7     6    1
   202   129   128    1
   203     6     5    1
   204   128   125    1
   205     3     2    1
   206   126   125    1
   207   126   127    2
   208   125   124    1
   209     5     2    1
   210   122   123   ar
   211   122   120   ar
   212     2     1    1
   213   116   115    2
   214   123   121   ar
   215   124   115   am
   216   120   118   ar
   217   115   114    1
   218   121   119   ar
   219   118   119   ar
   220   118   117    1
   221   114   117    1
   222   114   113    1
