@<TRIPOS>MOLECULE
tmp/5ldrA02.pdb
 106 101 0 0 0
SMALL
GASTEIGER

@<TRIPOS>ATOM
      1  N         20.3570  113.7780   85.4980 N.3     2  ARG2       -0.1245
      2  CA        21.5810  113.1600   85.8880 C.3     2  ARG2        0.1563
      3  C         22.3330  112.8970   84.6350 C.2     2  ARG2        0.2260
      4  O         21.7590  112.7980   83.5610 O.2     2  ARG2       -0.2867
      5  CB        21.3190  111.8180   86.5800 C.3     2  ARG2        0.0307
      6  CG        20.7660  110.6740   85.7190 C.3     2  ARG2        0.0489
      7  CD        21.1710  109.3220   86.2820 C.3     2  ARG2        0.2205
      8  NE        20.7720  109.2290   87.6900 N.pl3   2  ARG2       -0.0865
      9  CZ        21.1410  108.2790   88.5530 C.cat   2  ARG2        0.5346
     10  NH1       20.6870  108.3410   89.8110 N.pl3   2  ARG2        0.1354
     11  NH2       21.9510  107.2750   88.1830 N.pl3   2  ARG2        0.1354
     12  N         24.9370  110.0380   83.8450 N.3     4  THR4       -0.1218
     13  CA        25.8240  108.8630   83.7380 C.3     4  THR4        0.1862
     14  C         26.6500  109.0580   82.4390 C.2     4  THR4        0.2287
     15  O         26.1170  109.5050   81.4620 O.2     4  THR4       -0.2866
     16  CB        25.0370  107.5180   83.7740 C.3     4  THR4        0.1770
     17  OG1       24.3090  107.3840   85.0160 O.3     4  THR4       -0.2211
     18  CG2       25.9680  106.3090   83.6210 C.3     4  THR4        0.0375
     19  N         31.5060  105.6460   89.6360 N.3    72  ARG72      -0.1245
     20  CA        31.1160  104.2160   89.6420 C.3    72  ARG72       0.1563
     21  C         32.2050  103.4950   88.9130 C.2    72  ARG72       0.2260
     22  O         32.5090  103.8620   87.7840 O.2    72  ARG72      -0.2867
     23  CB        29.7460  103.9180   88.9520 C.3    72  ARG72       0.0307
     24  CG        29.1820  102.4810   89.1930 C.3    72  ARG72       0.0489
     25  CD        27.6480  102.3210   89.1850 C.3    72  ARG72       0.2205
     26  NE        26.9900  102.7390   90.4450 N.pl3  72  ARG72      -0.0865
     27  CZ        26.5290  101.9340   91.4300 C.cat  72  ARG72       0.5346
     28  NH1       26.6250  100.5980   91.3790 N.pl3  72  ARG72       0.1354
     29  NH2       25.9500  102.4730   92.5100 N.pl3  72  ARG72       0.1354
     30  N         33.0020   99.8190   87.3990 N.3    74  ASP74      -0.1239
     31  CA        32.3130   98.5860   87.1400 C.3    74  ASP74       0.1674
     32  C         33.1180   97.4300   87.6900 C.2    74  ASP74       0.2266
     33  O         32.5520   96.4070   88.0240 O.2    74  ASP74      -0.2867
     34  CB        31.9590   98.4320   85.6480 C.3    74  ASP74       0.1410
     35  CG        30.5320   98.9490   85.3010 C.2    74  ASP74       0.3668
     36  OD1       29.7360   99.1360   86.2450 O.co2  74  ASP74      -0.2456
     37  OD2       30.2000   99.1660   84.0870 O.co2  74  ASP74      -0.2456
     38  N         32.3600  105.1920   85.1940 N.3   146  TRP146     -0.1241
     39  CA        31.3270  106.1540   84.7930 C.3   146  TRP146      0.1605
     40  C         31.2440  107.4310   85.6640 C.2   146  TRP146      0.2264
     41  O         31.0040  107.3580   86.8900 O.2   146  TRP146     -0.2867
     42  CB        29.9850  105.4630   84.8230 C.3   146  TRP146      0.0550
     43  CG        29.9740  104.1310   84.2200 C.ar  146  TRP146      0.0003
     44  CD1       30.2290  102.9570   84.8420 C.ar  146  TRP146      0.0946
     45  CD2       29.6360  103.8190   82.8810 C.ar  146  TRP146      0.0152
     46  NE1       30.0920  101.9220   83.9670 N.ar  146  TRP146     -0.2442
     47  CE2       29.7210  102.4140   82.7500 C.ar  146  TRP146      0.0810
     48  CE3       29.2790  104.5850   81.7680 C.ar  146  TRP146      0.0012
     49  CZ2       29.4600  101.7400   81.5360 C.ar  146  TRP146      0.0191
     50  CZ3       29.0230  103.9160   80.5460 C.ar  146  TRP146      0.0001
     51  CH2       29.1060  102.5070   80.4530 C.ar  146  TRP146      0.0015
     52  N         29.2360  109.9370   86.9650 N.3   148  MET148     -0.1245
     53  CA        27.8710  110.2980   87.3140 C.3   148  MET148      0.1570
     54  C         27.8990  111.6440   88.0290 C.2   148  MET148      0.2261
     55  O         28.7950  111.8870   88.8650 O.2   148  MET148     -0.2867
     56  CB        27.3110  109.2160   88.2250 C.3   148  MET148      0.0387
     57  CG        27.4500  107.8030   87.6550 C.3   148  MET148      0.0595
     58  SD        26.8830  106.5320   88.7990 S.3   148  MET148     -0.1393
     59  CE        25.0910  106.7310   88.7170 C.3   148  MET148      0.0692
     60  N         18.3970  108.7220   93.2230 N.3   155  LEU155     -0.1231
     61  CA        17.8410  107.3780   93.1030 C.3   155  LEU155      0.1693
     62  C         18.8740  106.3200   92.7580 C.2   155  LEU155      0.2593
     63  O         19.4150  106.3390   91.6660 O.2   155  LEU155     -0.2718
     64  CB        16.7910  107.4250   91.9890 C.3   155  LEU155      0.0284
     65  CG        15.7300  106.3540   91.8390 C.3   155  LEU155      0.0019
     66  CD1       14.9150  106.7780   90.6370 C.3   155  LEU155      0.0001
     67  CD2       16.2890  104.9480   91.6380 C.3   155  LEU155      0.0001
     68  N         19.0520  105.3360   93.6380 N.am  156  THR156     -0.1939
     69  CA        20.2480  104.4440   93.6210 C.3   156  THR156      0.2028
     70  C         20.0660  102.9710   93.1610 C.2   156  THR156      0.2642
     71  O         21.0310  102.2480   92.9940 O.2   156  THR156     -0.2714
     72  CB        20.8760  104.3890   95.0230 C.3   156  THR156      0.1808
     73  OG1       20.0680  103.5660   95.8880 O.3   156  THR156     -0.2208
     74  CG2       20.9900  105.8070   95.6060 C.3   156  THR156      0.0379
     75  N         18.8390  102.5180   93.0060 N.am  157  ASN157     -0.1971
     76  CA        18.5800  101.1820   92.5170 C.3   157  ASN157      0.1688
     77  C         17.1010  100.9750   92.6670 C.2   157  ASN157      0.2292
     78  O         16.4390  101.7150   93.4090 O.2   157  ASN157     -0.2864
     79  CB        19.3180  100.0800   93.3000 C.3   157  ASN157      0.1181
     80  CG        19.3610   98.7220   92.5640 C.2   157  ASN157      0.2629
     81  OD1       20.0770   97.8120   92.9800 O.2   157  ASN157     -0.2716
     82  ND2       18.6430   98.5810   91.4720 N.am  157  ASN157     -0.0877
     83  N         16.0910  107.3620   85.7520 N.3   236  THR236     -0.1203
     84  CA        16.8010  106.1170   85.4870 C.3   236  THR236      0.1994
     85  C         15.8250  105.1400   84.9230 C.2   236  THR236      0.2619
     86  O         14.5970  105.3180   85.0430 O.2   236  THR236     -0.2717
     87  CB        17.4370  105.4320   86.7420 C.3   236  THR236      0.1784
     88  OG1       16.4350  105.1070   87.7210 O.3   236  THR236     -0.2211
     89  CG2       18.5010  106.3050   87.3680 C.3   236  THR236      0.0376
     90  N         16.3960  104.0740   84.3690 N.am  237  THR237     -0.1938
     91  CA        15.6690  103.0510   83.6060 C.3   237  THR237      0.2028
     92  C         16.2150  101.6740   83.9150 C.2   237  THR237      0.2642
     93  O         17.4270  101.5240   84.0720 O.2   237  THR237     -0.2714
     94  CB        15.9870  103.2370   82.1540 C.3   237  THR237      0.1808
     95  OG1       17.3610  103.5680   82.1240 O.3   237  THR237     -0.2208
     96  CG2       15.1940  104.3680   81.5740 C.3   237  THR237      0.0379
     97  N         15.3420  100.6740   83.9830 N.am  238  HIS238     -0.1973
     98  CA        15.7810   99.3010   84.2060 C.3   238  HIS238      0.1656
     99  C         15.0110   98.3560   83.2900 C.2   238  HIS238      0.2291
    100  O         13.7920   98.4280   83.1920 O.2   238  HIS238     -0.2864
    101  CB        15.5540   98.9140   85.6580 C.3   238  HIS238      0.0771
    102  CG        15.8350  100.0110   86.6410 C.ar  238  HIS238      0.0820
    103  ND1       16.9640  100.0210   87.4350 N.ar  238  HIS238     -0.2267
    104  CD2       15.1250  101.1160   86.9790 C.ar  238  HIS238      0.1154
    105  CE1       16.9460  101.0930   88.2090 C.ar  238  HIS238      0.1986
    106  NE2       15.8430  101.7760   87.9510 N.ar  238  HIS238     -0.2212
@<TRIPOS>BOND
     1    51    50   ar
     2    51    49   ar
     3    50    48   ar
     4    15    14    2
     5    49    47   ar
     6    96    94    1
     7    48    45   ar
     8    95    94    1
     9    94    91    1
    10    14    13    1
    11    47    45   ar
    12    47    46   ar
    13    45    43   ar
    14   100    99    2
    15    99    98    1
    16     4     3    2
    17    91    92    1
    18    91    90    1
    19    18    16    1
    20    13    16    1
    21    13    12    1
    22    16    17    1
    23    92    97   am
    24    92    93    2
    25    46    44   ar
    26    97    98    1
    27    37    35   ar
    28    98   101    1
    29    43    42    1
    30    43    44   ar
    31    90    85   am
    32     3     2    1
    33    39    42    1
    34    39    38    1
    35    39    40    1
    36    85    86    2
    37    85    84    1
    38    35    34    1
    39    35    36   ar
    40    84    83    1
    41    84    87    1
    42     1     2    1
    43    34    31    1
    44   101   102    1
    45    40    41    2
    46     6     7    1
    47     6     5    1
    48     2     5    1
    49     7     8    1
    50   102   104   ar
    51   102   103   ar
    52    87    89    1
    53    87    88    1
    54    52    53    1
    55   104   106   ar
    56    31    30    1
    57    31    32    1
    58    53    54    1
    59    53    56    1
    60   103   105   ar
    61    57    56    1
    62    57    58    1
    63     8     9    2
    64    32    33    2
    65    22    21    2
    66   106   105   ar
    67    54    55    2
    68    11     9    1
    69     9    10    1
    70    59    58    1
    71    21    20    1
    72    23    24    1
    73    23    20    1
    74    25    24    1
    75    25    26    1
    76    19    20    1
    77    26    27    2
    78    66    65    1
    79    28    27    1
    80    27    29    1
    81    82    80   am
    82    67    65    1
    83    63    62    2
    84    65    64    1
    85    64    61    1
    86    76    77    1
    87    76    75    1
    88    76    79    1
    89    80    81    2
    90    80    79    1
    91    77    78    2
    92    62    61    1
    93    62    68   am
    94    71    70    2
    95    75    70   am
    96    61    60    1
    97    70    69    1
    98    69    68    1
    99    69    72    1
   100    72    74    1
   101    72    73    1
