@<TRIPOS>MOLECULE
tmp/5ldrB03.pdb
 83 81 0 0 0
SMALL
GASTEIGER

@<TRIPOS>ATOM
      1  N         50.5280   42.3800   62.8160 N.3   411  ILE411     -0.1231
      2  CA        49.4520   41.7990   63.5730 C.3   411  ILE411      0.1692
      3  C         48.9930   42.7320   64.7010 C.2   411  ILE411      0.2592
      4  O         47.8330   42.7440   65.0360 O.2   411  ILE411     -0.2718
      5  CB        49.8820   40.3900   64.0730 C.3   411  ILE411      0.0266
      6  CG1       48.7040   39.5910   64.6190 C.3   411  ILE411      0.0019
      7  CG2       51.0440   40.4420   65.0560 C.3   411  ILE411      0.0020
      8  CD1       47.9820   38.8460   63.5140 C.3   411  ILE411      0.0001
      9  N         49.8890   43.5520   65.2410 N.am  412  LEU412     -0.1966
     10  CA        49.5860   44.4450   66.3790 C.3   412  LEU412      0.1728
     11  C         49.3250   45.9340   66.0110 C.2   412  LEU412      0.2616
     12  O         50.2800   46.6260   65.5800 O.2   412  LEU412     -0.2715
     13  CB        50.7480   44.3370   67.3910 C.3   412  LEU412      0.0311
     14  CG        51.0560   45.4360   68.4130 C.3   412  LEU412      0.0022
     15  CD1       49.7910   45.7440   69.1640 C.3   412  LEU412      0.0001
     16  CD2       52.1530   45.0020   69.3820 C.3   412  LEU412      0.0001
     17  N         48.1030   46.4780   66.2230 N.am  413  ASP413     -0.1957
     18  CA        46.8970   45.8630   66.8800 C.3   413  ASP413      0.1840
     19  C         45.6880   45.7310   65.9110 C.2   413  ASP413      0.2622
     20  O         44.8620   46.6520   65.7430 O.2   413  ASP413     -0.2715
     21  CB        46.4760   46.6810   68.1350 C.3   413  ASP413      0.1450
     22  CG        45.5170   45.9100   69.1340 C.2   413  ASP413      0.3671
     23  OD1       44.7370   45.0150   68.7400 O.co2 413  ASP413     -0.2456
     24  OD2       45.5170   46.2520   70.3470 O.co2 413  ASP413     -0.2456
     25  N         45.5970   44.5500   65.3100 N.am  414  GLU414     -0.1963
     26  CA        44.5250   44.1810   64.4050 C.3   414  GLU414      0.1733
     27  C         43.1420   44.0330   65.1510 C.2   414  GLU414      0.2617
     28  O         42.1420   44.5620   64.6700 O.2   414  GLU414     -0.2715
     29  CB        45.0050   42.9430   63.5790 C.3   414  GLU414      0.0429
     30  CG        44.3690   42.6360   62.2010 C.3   414  GLU414      0.1163
     31  CD        45.1280   41.5700   61.3540 C.2   414  GLU414      0.3649
     32  OE1       46.3520   41.3590   61.5500 O.co2 414  GLU414     -0.2457
     33  OE2       44.5060   40.9290   60.4640 O.co2 414  GLU414     -0.2457
     34  N         43.0790   43.4400   66.3490 N.am  415  SER415     -0.1950
     35  CA        41.7810   43.2540   67.0830 C.3   415  SER415      0.1924
     36  C         40.9460   44.5350   67.2760 C.2   415  SER415      0.2314
     37  O         39.7400   44.4620   67.4470 O.2   415  SER415     -0.2863
     38  CB        41.9450   42.5160   68.4430 C.3   415  SER415      0.2116
     39  OG        42.6900   43.2470   69.4080 O.3   415  SER415     -0.2180
     40  N         36.8460   41.0570   64.2130 N.3   420  ILE420     -0.1245
     41  CA        38.0640   40.2820   64.6720 C.3   420  ILE420      0.1561
     42  C         37.9880   39.6110   66.0630 C.2   420  ILE420      0.2260
     43  O         38.0190   40.2900   67.0940 O.2   420  ILE420     -0.2867
     44  CB        39.3420   41.1570   64.7690 C.3   420  ILE420      0.0252
     45  CG1       39.6120   41.9110   63.4560 C.3   420  ILE420      0.0019
     46  CG2       40.5560   40.3100   65.1800 C.3   420  ILE420      0.0019
     47  CD1       39.9810   41.0430   62.2790 C.3   420  ILE420      0.0001
     48  N         40.4560   37.4140   67.1390 N.3   422  ARG422     -0.1231
     49  CA        41.7520   37.1190   67.7240 C.3   422  ARG422      0.1679
     50  C         42.1080   38.1300   68.8650 C.2   422  ARG422      0.2434
     51  O         41.9240   39.3700   68.7280 O.2   422  ARG422     -0.2733
     52  CB        42.8270   37.0240   66.6460 C.3   422  ARG422      0.0321
     53  CG        44.1510   36.3910   67.0710 C.3   422  ARG422      0.0489
     54  CD        45.0070   35.9420   65.8830 C.3   422  ARG422      0.2205
     55  NE        46.2380   35.3200   66.3440 N.pl3 422  ARG422     -0.0865
     56  CZ        47.1950   34.8350   65.5570 C.cat 422  ARG422      0.5346
     57  NH1       47.1200   34.9290   64.2270 N.pl3 422  ARG422      0.1354
     58  NH2       48.2550   34.2570   66.1220 N.pl3 422  ARG422      0.1354
     59  N         42.5320   37.5820   70.0320 N.am  423  PRO423     -0.2718
     60  CA        42.8360   38.4430   71.1780 C.3   423  PRO423      0.1535
     61  C         44.1770   39.0640   70.9150 C.2   423  PRO423      0.2598
     62  O         44.9700   38.4230   70.2450 O.2   423  PRO423     -0.2715
     63  CB        42.9390   37.4450   72.3350 C.3   423  PRO423      0.0310
     64  CG        43.4100   36.1570   71.7070 C.3   423  PRO423      0.0237
     65  CD        42.8770   36.1570   70.3010 C.3   423  PRO423      0.0939
     66  N         44.4600   40.2580   71.4340 N.am  424  ARG424     -0.1964
     67  CA        45.7450   40.9810   71.1360 C.3   424  ARG424      0.1729
     68  C         47.0460   40.1250   71.0250 C.2   424  ARG424      0.2616
     69  O         47.3100   39.3310   71.9030 O.2   424  ARG424     -0.2715
     70  CB        45.9500   42.0850   72.1550 C.3   424  ARG424      0.0348
     71  CG        46.8270   43.1880   71.6440 C.3   424  ARG424      0.0492
     72  CD        47.0210   44.2670   72.6860 C.3   424  ARG424      0.2205
     73  NE        48.2350   45.0690   72.4580 N.pl3 424  ARG424     -0.0865
     74  CZ        48.6370   46.1140   73.2010 C.cat 424  ARG424      0.5346
     75  NH1       47.9420   46.5260   74.2440 N.pl3 424  ARG424      0.1354
     76  NH2       49.7460   46.7760   72.8960 N.pl3 424  ARG424      0.1354
     77  N         47.8370   40.2660   69.9550 N.am  425  THR425     -0.1951
     78  CA        49.0670   39.4530   69.6950 C.3   425  THR425      0.1897
     79  C         50.1340   40.3970   69.1470 C.2   425  THR425      0.2313
     80  O         49.8340   41.1660   68.2260 O.2   425  THR425     -0.2863
     81  CB        48.9050   38.3640   68.5770 C.3   425  THR425      0.1794
     82  OG1       47.5810   37.8180   68.5330 O.3   425  THR425     -0.2208
     83  CG2       49.8980   37.2260   68.7860 C.3   425  THR425      0.0378
@<TRIPOS>BOND
     1    33    31   ar
     2    31    32   ar
     3    31    30    1
     4    30    29    1
     5    47    45    1
     6     1     2    1
     7    45    44    1
     8     8     6    1
     9     2     5    1
    10     2     3    1
    11    29    26    1
    12     5     6    1
    13     5     7    1
    14    40    41    1
    15    57    56    1
    16    26    27    1
    17    26    25    1
    18    28    27    2
    19    41    44    1
    20    41    42    1
    21     3     4    2
    22     3     9   am
    23    44    46    1
    24    27    34   am
    25     9    10    1
    26    25    19   am
    27    56    58    1
    28    56    55    2
    29    12    11    2
    30    20    19    2
    31    54    55    1
    32    54    53    1
    33    19    18    1
    34    11    17   am
    35    11    10    1
    36    42    43    2
    37    17    18    1
    38    34    35    1
    39    10    13    1
    40    52    53    1
    41    52    49    1
    42    18    21    1
    43    35    36    1
    44    35    38    1
    45    48    49    1
    46    36    37    2
    47    13    14    1
    48    49    50    1
    49    21    22    1
    50    80    79    2
    51    14    15    1
    52    14    16    1
    53    38    39    1
    54    82    81    1
    55    81    83    1
    56    81    78    1
    57    51    50    2
    58    23    22   ar
    59    50    59   am
    60    22    24   ar
    61    79    78    1
    62    78    77    1
    63    77    68   am
    64    59    65    1
    65    59    60    1
    66    62    61    2
    67    65    64    1
    68    61    60    1
    69    61    66   am
    70    68    67    1
    71    68    69    2
    72    67    66    1
    73    67    70    1
    74    60    63    1
    75    71    70    1
    76    71    72    1
    77    64    63    1
    78    73    72    1
    79    73    74    2
    80    76    74    1
    81    74    75    1
