@<TRIPOS>MOLECULE
tmp/5ldrA00.pdb
 152 152 0 0 0
SMALL
GASTEIGER

@<TRIPOS>ATOM
      1  N         42.2630   76.7860   89.9120 N.3   134  ASP134     -0.1225
      2  CA        42.4240   76.3000   88.5140 C.3   134  ASP134      0.1805
      3  C         42.0410   77.4340   87.5450 C.2   134  ASP134      0.2597
      4  O         41.6600   77.1670   86.4210 O.2   134  ASP134     -0.2718
      5  CB        41.5910   74.9770   88.3070 C.3   134  ASP134      0.1424
      6  CG        41.6010   74.3640   86.8200 C.2   134  ASP134      0.3668
      7  OD1       40.8180   74.8450   85.9890 O.co2 134  ASP134     -0.2456
      8  OD2       42.2700   73.3200   86.6000 O.co2 134  ASP134     -0.2456
      9  N         42.1450   78.7040   87.9490 N.am  135  TYR135     -0.1976
     10  CA        41.9880   79.7930   87.0020 C.3   135  TYR135      0.1639
     11  C         42.7630   80.9460   87.4510 C.2   135  TYR135      0.2290
     12  O         43.0770   81.0190   88.5870 O.2   135  TYR135     -0.2864
     13  CB        40.5510   80.1890   86.8070 C.3   135  TYR135      0.0560
     14  CG        39.7700   80.7170   87.9960 C.ar  135  TYR135     -0.0198
     15  CD1       39.7430   82.0830   88.2980 C.ar  135  TYR135     -0.0009
     16  CD2       38.9420   79.8560   88.7360 C.ar  135  TYR135     -0.0009
     17  CE1       38.9720   82.5590   89.3500 C.ar  135  TYR135      0.0417
     18  CE2       38.1870   80.3170   89.8050 C.ar  135  TYR135      0.0417
     19  CZ        38.1850   81.6720   90.1040 C.ar  135  TYR135      0.1957
     20  OH        37.4100   82.1200   91.1610 O.3   135  TYR135     -0.2866
     21  N         34.3880   81.1620   81.4060 N.3   267  HIS267     -0.1241
     22  CA        35.1930   82.1870   82.1240 C.3   267  HIS267      0.1621
     23  C         35.1060   83.5410   81.3540 C.2   267  HIS267      0.2264
     24  O         34.5730   83.5780   80.2470 O.2   267  HIS267     -0.2867
     25  CB        36.6790   81.7740   82.2850 C.3   267  HIS267      0.0745
     26  CG        36.9550   80.7220   83.3220 C.ar  267  HIS267      0.0817
     27  ND1       37.3610   81.0370   84.5990 N.ar  267  HIS267     -0.2268
     28  CD2       36.9570   79.3670   83.2460 C.ar  267  HIS267      0.1154
     29  CE1       37.5530   79.9210   85.2820 C.ar  267  HIS267      0.1986
     30  NE2       37.3300   78.8950   84.4800 N.ar  267  HIS267     -0.2212
     31  N         34.2310   81.3020   87.6550 N.3   302  HIS302     -0.1241
     32  CA        33.6130   80.9050   88.9540 C.3   302  HIS302      0.1621
     33  C         33.4150   82.1520   89.8150 C.2   302  HIS302      0.2264
     34  O         33.8480   82.1930   90.9800 O.2   302  HIS302     -0.2867
     35  CB        34.4490   79.8510   89.6890 C.3   302  HIS302      0.0745
     36  CG        34.4530   78.4900   89.0400 C.ar  302  HIS302      0.0817
     37  ND1       33.7240   77.4340   89.5320 N.ar  302  HIS302     -0.2268
     38  CD2       35.1420   77.9970   87.9860 C.ar  302  HIS302      0.1154
     39  CE1       33.9430   76.3600   88.7960 C.ar  302  HIS302      0.1986
     40  NE2       34.8060   76.6720   87.8560 N.ar  302  HIS302     -0.2212
     41  N         36.6620   78.9800   94.5020 N.3   327  TRP327     -0.1241
     42  CA        37.1700   77.8100   93.8440 C.3   327  TRP327      0.1605
     43  C         37.5880   76.8600   94.9460 C.2   327  TRP327      0.2264
     44  O         38.7600   76.7640   95.2770 O.2   327  TRP327     -0.2867
     45  CB        38.3800   78.1400   92.9080 C.3   327  TRP327      0.0550
     46  CG        38.6020   77.0040   91.9770 C.ar  327  TRP327      0.0003
     47  CD1       37.9880   76.8410   90.7810 C.ar  327  TRP327      0.0946
     48  CD2       39.3570   75.7910   92.2060 C.ar  327  TRP327      0.0152
     49  NE1       38.3310   75.6220   90.2190 N.ar  327  TRP327     -0.2442
     50  CE2       39.1650   74.9570   91.0710 C.ar  327  TRP327      0.0810
     51  CE3       40.1810   75.3390   93.2280 C.ar  327  TRP327      0.0012
     52  CZ2       39.7900   73.6990   90.9240 C.ar  327  TRP327      0.0191
     53  CZ3       40.8000   74.0640   93.0830 C.ar  327  TRP327      0.0001
     54  CH2       40.6000   73.2720   91.9360 C.ar  327  TRP327      0.0015
     55  N         32.7210   77.1460   95.1360 N.3   364  ASN364     -0.1225
     56  CA        32.8420   75.9650   94.2290 C.3   364  ASN364      0.1785
     57  C         33.5470   74.6530   94.7430 C.2   364  ASN364      0.2597
     58  O         34.7470   74.6230   94.9640 O.2   364  ASN364     -0.2718
     59  CB        33.5160   76.3900   92.8980 C.3   364  ASN364      0.1169
     60  CG        33.1950   75.4350   91.7790 C.2   364  ASN364      0.2627
     61  OD1       32.0810   75.4240   91.3040 O.2   364  ASN364     -0.2716
     62  ND2       34.1480   74.6280   91.3610 N.am  364  ASN364     -0.0877
     63  N         32.8030   73.5670   94.8830 N.am  365  GLU365     -0.1979
     64  CA        33.3610   72.2820   95.3370 C.3   365  GLU365      0.1602
     65  C         33.9370   72.2370   96.7690 C.2   365  GLU365      0.2287
     66  O         34.3890   71.1700   97.2130 O.2   365  GLU365     -0.2864
     67  CB        34.3350   71.6980   94.3030 C.3   365  GLU365      0.0415
     68  CG        33.5850   71.1810   93.0710 C.3   365  GLU365      0.1163
     69  CD        34.4700   70.5170   92.0150 C.2   365  GLU365      0.3649
     70  OE1       35.6380   70.1730   92.3120 O.co2 365  GLU365     -0.2457
     71  OE2       33.9950   70.3270   90.8680 O.co2 365  GLU365     -0.2457
     72  N         31.8720   63.8120   87.6690 N.3   410  PHE410     -0.1241
     73  CA        33.0690   63.3810   86.8980 C.3   410  PHE410      0.1605
     74  C         33.3070   61.8850   86.9240 C.2   410  PHE410      0.2264
     75  O         34.4590   61.4370   87.0280 O.2   410  PHE410     -0.2867
     76  CB        34.3050   64.0330   87.4650 C.3   410  PHE410      0.0534
     77  CG        34.3090   65.4930   87.3210 C.ar  410  PHE410     -0.0203
     78  CD1       34.4720   66.0550   86.0630 C.ar  410  PHE410     -0.0042
     79  CD2       34.1580   66.3210   88.4250 C.ar  410  PHE410     -0.0042
     80  CE1       34.5180   67.4400   85.8840 C.ar  410  PHE410     -0.0003
     81  CE2       34.1930   67.7040   88.2700 C.ar  410  PHE410     -0.0003
     82  CZ        34.3770   68.2660   86.9900 C.ar  410  PHE410     -0.0000
     83  N         28.8790   70.4370   85.8330 N.3   446  GLU446     -0.1245
     84  CA        30.1210   70.1810   85.0540 C.3   446  GLU446      0.1567
     85  C         30.3770   68.6860   84.8740 C.2   446  GLU446      0.2260
     86  O         29.9770   67.8470   85.6830 O.2   446  GLU446     -0.2867
     87  CB        31.3610   70.7710   85.7230 C.3   446  GLU446      0.0388
     88  CG        31.2470   72.1850   86.2860 C.3   446  GLU446      0.1160
     89  CD        32.4650   72.6150   87.0620 C.2   446  GLU446      0.3649
     90  OE1       32.4950   73.7740   87.5110 O.co2 446  GLU446     -0.2457
     91  OE2       33.3750   71.7910   87.2380 O.co2 446  GLU446     -0.2457
     92  N         35.8710   67.6300   81.1760 N.3   449  GLY449     -0.1210
     93  CA        37.0780   68.4520   81.4560 C.3   449  GLY449      0.1956
     94  C         38.3900   67.6920   81.6790 C.2   449  GLY449      0.2611
     95  O         38.8320   66.9210   80.8520 O.2   449  GLY449     -0.2717
     96  N         38.9900   67.8950   82.8350 N.am  450  HIS450     -0.1975
     97  CA        40.1800   67.1560   83.2540 C.3   450  HIS450      0.1656
     98  C         40.0640   65.6460   83.1420 C.2   450  HIS450      0.2291
     99  O         41.0480   64.9490   83.0050 O.2   450  HIS450     -0.2864
    100  CB        40.5250   67.5310   84.6860 C.3   450  HIS450      0.0771
    101  CG        39.7020   66.8210   85.7150 C.ar  450  HIS450      0.0820
    102  ND1       38.4350   67.2280   86.0640 N.ar  450  HIS450     -0.2267
    103  CD2       39.9810   65.7450   86.4910 C.ar  450  HIS450      0.1154
    104  CE1       37.9670   66.4230   87.0000 C.ar  450  HIS450      0.1986
    105  NE2       38.8880   65.5190   87.2790 N.ar  450  HIS450     -0.2212
    106  N         32.2140   70.6830   81.0510 N.3   489  TRP489     -0.1241
    107  CA        33.4440   71.4430   81.3510 C.3   489  TRP489      0.1605
    108  C         34.2940   71.3890   80.1360 C.2   489  TRP489      0.2264
    109  O         34.6630   70.2760   79.8110 O.2   489  TRP489     -0.2867
    110  CB        34.2610   70.9130   82.5540 C.3   489  TRP489      0.0550
    111  CG        35.3440   71.9520   82.9910 C.ar  489  TRP489      0.0003
    112  CD1       36.7150   71.8120   82.9130 C.ar  489  TRP489      0.0946
    113  CD2       35.1170   73.2920   83.5130 C.ar  489  TRP489      0.0152
    114  NE1       37.3360   72.9630   83.3730 N.ar  489  TRP489     -0.2442
    115  CE2       36.3840   73.8830   83.7320 C.ar  489  TRP489      0.0810
    116  CE3       33.9760   74.0460   83.7860 C.ar  489  TRP489      0.0012
    117  CZ2       36.5320   75.1830   84.2380 C.ar  489  TRP489      0.0191
    118  CZ3       34.1350   75.3280   84.2600 C.ar  489  TRP489      0.0001
    119  CH2       35.4000   75.8870   84.4710 C.ar  489  TRP489      0.0015
    120  N         41.3530   77.7600   78.9290 N.3   494  TYR494     -0.1241
    121  CA        41.7100   78.9230   79.7540 C.3   494  TYR494      0.1605
    122  C         43.1670   78.8410   80.2270 C.2   494  TYR494      0.2264
    123  O         43.7880   77.7800   80.1840 O.2   494  TYR494     -0.2867
    124  CB        40.7070   79.1060   80.9260 C.3   494  TYR494      0.0534
    125  CG        40.4920   77.8620   81.7460 C.ar  494  TYR494     -0.0201
    126  CD1       39.4130   77.0360   81.5290 C.ar  494  TYR494     -0.0009
    127  CD2       41.3950   77.4840   82.7090 C.ar  494  TYR494     -0.0009
    128  CE1       39.2320   75.8690   82.2700 C.ar  494  TYR494      0.0417
    129  CE2       41.2090   76.3310   83.4610 C.ar  494  TYR494      0.0417
    130  CZ        40.1330   75.5260   83.2380 C.ar  494  TYR494      0.1957
    131  OH        39.9810   74.3850   83.9770 O.3   494  TYR494     -0.2866
    132  N         47.7730   73.2940   87.6250 N.3   500  PHE500     -0.1241
    133  CA        46.8990   72.5450   86.7050 C.3   500  PHE500      0.1605
    134  C         47.4370   72.5100   85.2950 C.2   500  PHE500      0.2264
    135  O         48.5580   72.9830   84.9920 O.2   500  PHE500     -0.2867
    136  CB        45.4880   73.1260   86.6970 C.3   500  PHE500      0.0534
    137  CG        44.9970   73.4220   88.0320 C.ar  500  PHE500     -0.0203
    138  CD1       44.2340   72.5240   88.6910 C.ar  500  PHE500     -0.0042
    139  CD2       45.4030   74.5560   88.6730 C.ar  500  PHE500     -0.0042
    140  CE1       43.7960   72.7790   89.9650 C.ar  500  PHE500     -0.0003
    141  CE2       45.0000   74.8150   89.9490 C.ar  500  PHE500     -0.0003
    142  CZ        44.1700   73.9320   90.5970 C.ar  500  PHE500     -0.0000
    143  N         40.4630   72.0900   78.1000 N.3   509  HIS509     -0.1241
    144  CA        39.1380   71.5130   78.4220 C.3   509  HIS509      0.1621
    145  C         37.9890   72.0890   77.6140 C.2   509  HIS509      0.2264
    146  O         36.8430   71.7010   77.8170 O.2   509  HIS509     -0.2867
    147  CB        38.7870   71.6900   79.9200 C.3   509  HIS509      0.0745
    148  CG        39.7610   71.0420   80.8550 C.ar  509  HIS509      0.0817
    149  ND1       40.0750   71.5720   82.0860 N.ar  509  HIS509     -0.2268
    150  CD2       40.5200   69.9320   80.7180 C.ar  509  HIS509      0.1154
    151  CE1       40.9760   70.8070   82.6700 C.ar  509  HIS509      0.1986
    152  NE2       41.2700   69.8130   81.8560 N.ar  509  HIS509     -0.2212
@<TRIPOS>BOND
     1   145   146    2
     2   145   144    1
     3   143   144    1
     4   144   147    1
     5   120   121    1
     6   121   122    1
     7   121   124    1
     8   109   108    2
     9   147   148    1
    10   108   107    1
    11   123   122    2
    12    24    23    2
    13   150   148   ar
    14   150   152   ar
    15    95    94    2
    16   148   149   ar
    17   124   125    1
    18   106   107    1
    19    92    93    1
    20   107   110    1
    21    23    22    1
    22    21    22    1
    23    93    94    1
    24   126   125   ar
    25   126   128   ar
    26    94    96   am
    27   125   127   ar
    28   152   151   ar
    29   149   151   ar
    30    22    25    1
    31   128   130   ar
    32    25    26    1
    33   110   111    1
    34   127   129   ar
    35    96    97    1
    36   112   111   ar
    37   112   114   ar
    38   111   113   ar
    39    99    98    2
    40    98    97    1
    41   130   129   ar
    42   130   131    1
    43    28    26   ar
    44    28    30   ar
    45    97   100    1
    46    26    27   ar
    47   114   115   ar
    48   113   115   ar
    49   113   116   ar
    50   115   117   ar
    51   116   118   ar
    52   117   119   ar
    53   118   119   ar
    54    30    29   ar
    55    27    29   ar
    56   100   101    1
    57    85    84    1
    58    85    86    2
    59   135   134    2
    60    84    87    1
    61    84    83    1
    62   134   133    1
    63   101   102   ar
    64   101   103   ar
    65    87    88    1
    66    80    78   ar
    67    80    82   ar
    68     7     6   ar
    69    78    77   ar
    70   102   104   ar
    71    88    89    1
    72     4     3    2
    73   103   105   ar
    74     8     6   ar
    75   136   133    1
    76   136   137    1
    77   133   132    1
    78    13    10    1
    79    13    14    1
    80     6     5    1
    81    73    74    1
    82    73    76    1
    83    73    72    1
    84    74    75    2
    85    82    81   ar
    86   104   105   ar
    87    10    11    1
    88    10     9    1
    89    89    91   ar
    90    89    90   ar
    91    77    76    1
    92    77    79   ar
    93    11    12    2
    94     3     9   am
    95     3     2    1
    96    31    32    1
    97    40    38   ar
    98    40    39   ar
    99    38    36   ar
   100    14    15   ar
   101    14    16   ar
   102   137   139   ar
   103   137   138   ar
   104    81    79   ar
   105    15    17   ar
   106     5     2    1
   107     2     1    1
   108   139   141   ar
   109   138   140   ar
   110    16    18   ar
   111    39    37   ar
   112    32    35    1
   113    32    33    1
   114    36    37   ar
   115    36    35    1
   116    17    19   ar
   117    18    19   ar
   118    33    34    2
   119   141   142   ar
   120   140   142   ar
   121    19    20    1
   122    49    47   ar
   123    49    50   ar
   124    47    46   ar
   125    71    69   ar
   126    52    50   ar
   127    52    54   ar
   128    50    48   ar
   129    61    60    2
   130    62    60   am
   131    60    59    1
   132    54    53   ar
   133    46    48   ar
   134    46    45    1
   135    69    70   ar
   136    69    68    1
   137    48    51   ar
   138    59    56    1
   139    45    42    1
   140    68    67    1
   141    53    51   ar
   142    42    41    1
   143    42    43    1
   144    56    57    1
   145    56    55    1
   146    67    64    1
   147    57    63   am
   148    57    58    2
   149    63    64    1
   150    43    44    2
   151    64    65    1
   152    65    66    2
