@<TRIPOS>MOLECULE
tmp/5ldtC01.pdb
 75 70 0 0 0
SMALL
GASTEIGER

@<TRIPOS>ATOM
      1  N         -7.8630   -2.5450  -18.1840 N.3    92  LEU92      -0.1245
      2  CA        -7.1100   -3.7660  -18.4210 C.3    92  LEU92       0.1561
      3  C         -6.6540   -4.3590  -17.0960 C.2    92  LEU92       0.2260
      4  O         -6.2940   -3.6160  -16.1750 O.2    92  LEU92      -0.2867
      5  CB        -5.9060   -3.3900  -19.2540 C.3    92  LEU92       0.0270
      6  CG        -5.3120   -4.4060  -20.2120 C.3    92  LEU92       0.0019
      7  CD1       -6.3590   -4.8760  -21.2250 C.3    92  LEU92       0.0001
      8  CD2       -4.1550   -3.6900  -20.8900 C.3    92  LEU92       0.0001
      9  N         -5.4230   -1.3080  -14.7410 N.3   105  ALA105     -0.1231
     10  CA        -5.1640    0.0380  -15.2450 C.3   105  ALA105      0.1694
     11  C         -6.2580    0.4950  -16.2220 C.2   105  ALA105      0.2592
     12  O         -6.7000   -0.2710  -17.0940 O.2   105  ALA105     -0.2718
     13  CB        -3.8130    0.0660  -15.9060 C.3   105  ALA105      0.0304
     14  N         -6.7440    1.7120  -16.0020 N.am  106  GLY106     -0.1957
     15  CA        -7.7720    2.2990  -16.8440 C.3   106  GLY106      0.1869
     16  C         -8.8410    3.0570  -16.0800 C.2   106  GLY106      0.2309
     17  O         -8.6520    3.4680  -14.8900 O.2   106  GLY106     -0.2863
     18  N         -9.6800    7.3510  -13.4770 N.3   125  THR125     -0.1203
     19  CA        -8.6990    6.6950  -14.3220 C.3   125  THR125      0.1994
     20  C         -7.3880    6.6160  -13.5840 C.2   125  THR125      0.2618
     21  O         -6.9150    7.6090  -13.0380 O.2   125  THR125     -0.2717
     22  CB        -8.5580    7.4220  -15.6710 C.3   125  THR125      0.1784
     23  OG1       -9.7970    7.3090  -16.3880 O.3   125  THR125     -0.2211
     24  CG2       -7.4630    6.7930  -16.5240 C.3   125  THR125      0.0376
     25  N         -6.8180    5.4220  -13.5400 N.am  126  GLY126     -0.1942
     26  CA        -5.5870    5.2420  -12.8150 C.3   126  GLY126      0.2014
     27  C         -5.2150    3.7910  -12.7400 C.2   126  GLY126      0.2638
     28  O         -5.6720    2.9810  -13.5790 O.2   126  GLY126     -0.2714
     29  N         -4.4330    3.4680  -11.7000 N.am  127  VAL127     -0.1977
     30  CA        -3.8260    2.1380  -11.5100 C.3   127  VAL127      0.1596
     31  C         -4.0370    1.6340  -10.1070 C.2   127  VAL127      0.2287
     32  O         -3.9670    2.3790   -9.1480 O.2   127  VAL127     -0.2864
     33  CB        -2.2890    2.1370  -11.7630 C.3   127  VAL127      0.0276
     34  CG1       -1.7280    0.7230  -11.6730 C.3   127  VAL127      0.0022
     35  CG2       -1.9590    2.7160  -13.1380 C.3   127  VAL127      0.0022
     36  N         -3.2450    4.6280   -7.5420 N.3   143  ALA143     -0.1231
     37  CA        -3.0600    6.0060   -7.9280 C.3   143  ALA143      0.1694
     38  C         -4.0970    6.3970   -8.9380 C.2   143  ALA143      0.2592
     39  O         -4.2740    5.6960   -9.9290 O.2   143  ALA143     -0.2718
     40  CB        -1.6710    6.1960   -8.5050 C.3   143  ALA143      0.0304
     41  N         -4.7950    7.5080   -8.6990 N.am  144  VAL144     -0.1966
     42  CA        -5.7980    8.0240   -9.6520 C.3   144  VAL144      0.1727
     43  C         -5.3470    9.3440  -10.2770 C.2   144  VAL144      0.2616
     44  O         -5.0390   10.2960   -9.5500 O.2   144  VAL144     -0.2715
     45  CB        -7.1490    8.2790   -8.9660 C.3   144  VAL144      0.0290
     46  CG1       -8.1830    8.6860  -10.0000 C.3   144  VAL144      0.0023
     47  CG2       -7.6160    7.0550   -8.1850 C.3   144  VAL144      0.0023
     48  N         -5.3810    9.4070  -11.6070 N.am  145  ASP145     -0.1971
     49  CA        -4.9740   10.6030  -12.3580 C.3   145  ASP145      0.1709
     50  C         -6.0980   11.5370  -12.7450 C.2   145  ASP145      0.2293
     51  O         -5.8610   12.7190  -12.9120 O.2   145  ASP145     -0.2864
     52  CB        -4.2780   10.2230  -13.6520 C.3   145  ASP145      0.1436
     53  CG        -3.3590   11.3160  -14.1480 C.2   145  ASP145      0.3671
     54  OD1       -2.5280   11.6780  -13.3400 O.co2 145  ASP145     -0.2456
     55  OD2       -3.2350   11.3850  -15.3820 O.co2 145  ASP145     -0.2456
     56  N         -4.1620   14.7570   -8.0530 N.3   180  ASN180     -0.1240
     57  CA        -4.2110   13.3050   -8.1250 C.3   180  ASN180      0.1653
     58  C         -4.4270   12.7180   -6.7050 C.2   180  ASN180      0.2266
     59  O         -4.1830   13.3880   -5.7170 O.2   180  ASN180     -0.2867
     60  CB        -2.9090   12.7570   -8.7370 C.3   180  ASN180      0.1155
     61  CG        -2.6480   13.2410  -10.1600 C.2   180  ASN180      0.2627
     62  OD1       -3.5500   13.5850  -10.9100 O.2   180  ASN180     -0.2716
     63  ND2       -1.4060   13.2250  -10.5410 N.am  180  ASN180     -0.0877
     64  N         -3.5460    9.3220   -4.1830 N.3   182  TYR182     -0.1241
     65  CA        -2.6540    8.1740   -3.9760 C.3   182  TYR182      0.1605
     66  C         -3.0000    7.5530   -2.6440 C.2   182  TYR182      0.2264
     67  O         -3.1760    8.2840   -1.6680 O.2   182  TYR182     -0.2867
     68  CB        -1.1820    8.6190   -3.9550 C.3   182  TYR182      0.0534
     69  CG        -0.7710    9.5300   -5.1020 C.ar  182  TYR182     -0.0201
     70  CD1       -0.9760   10.9170   -5.0240 C.ar  182  TYR182     -0.0009
     71  CD2       -0.1510    9.0140   -6.2480 C.ar  182  TYR182     -0.0009
     72  CE1       -0.5850   11.7590   -6.0520 C.ar  182  TYR182      0.0417
     73  CE2        0.2510    9.8500   -7.2850 C.ar  182  TYR182      0.0417
     74  CZ         0.0310   11.2210   -7.1910 C.ar  182  TYR182      0.1957
     75  OH         0.4210   12.0600   -8.2270 O.3   182  TYR182     -0.2866
@<TRIPOS>BOND
     1     7     6    1
     2     8     6    1
     3     6     5    1
     4     5     2    1
     5     2     1    1
     6     2     3    1
     7     3     4    2
     8    12    11    2
     9    15    16    1
    10    15    14    1
    11    24    22    1
    12    23    22    1
    13    11    14   am
    14    11    10    1
    15    16    17    2
    16    13    10    1
    17    22    19    1
    18    55    53   ar
    19    10     9    1
    20    19    20    1
    21    19    18    1
    22    53    52    1
    23    53    54   ar
    24    52    49    1
    25    20    25   am
    26    20    21    2
    27    28    27    2
    28    25    26    1
    29    35    33    1
    30    51    50    2
    31    26    27    1
    32    50    49    1
    33    27    29   am
    34    49    48    1
    35    33    34    1
    36    33    30    1
    37    29    30    1
    38    48    43   am
    39    30    31    1
    40    62    61    2
    41    63    61   am
    42    43    42    1
    43    43    44    2
    44    61    60    1
    45    31    32    2
    46    46    45    1
    47    39    38    2
    48    42    45    1
    49    42    41    1
    50    45    47    1
    51    38    41   am
    52    38    37    1
    53    60    57    1
    54    40    37    1
    55    75    74    1
    56    57    56    1
    57    57    58    1
    58    37    36    1
    59    73    74   ar
    60    73    71   ar
    61    74    72   ar
    62    58    59    2
    63    71    69   ar
    64    72    70   ar
    65    69    70   ar
    66    69    68    1
    67    64    65    1
    68    65    68    1
    69    65    66    1
    70    66    67    2
