@<TRIPOS>MOLECULE
tmp/5ldtB01.pdb
 104 100 0 0 0
SMALL
GASTEIGER

@<TRIPOS>ATOM
      1  N        -37.9040    0.0790  -22.2860 N.3    90  LEU90      -0.1231
      2  CA       -37.3490   -0.6710  -21.1680 C.3    90  LEU90       0.1693
      3  C        -38.5300   -1.0130  -20.2680 C.2    90  LEU90       0.2592
      4  O        -39.1210   -0.1390  -19.6740 O.2    90  LEU90      -0.2718
      5  CB       -36.3130    0.1850  -20.4420 C.3    90  LEU90       0.0284
      6  CG       -35.6340   -0.4780  -19.2550 C.3    90  LEU90       0.0019
      7  CD1      -34.8820   -1.7100  -19.6980 C.3    90  LEU90       0.0001
      8  CD2      -34.6790    0.4960  -18.5730 C.3    90  LEU90       0.0001
      9  N        -38.8920   -2.2740  -20.1520 N.am   91  TYR91      -0.1962
     10  CA       -40.0630   -2.6130  -19.3690 C.3    91  TYR91       0.1771
     11  C        -39.9890   -4.0140  -18.8270 C.2    91  TYR91       0.2619
     12  O        -39.2640   -4.8690  -19.3460 O.2    91  TYR91      -0.2715
     13  CB       -41.3640   -2.3340  -20.1900 C.3    91  TYR91       0.0574
     14  CG       -41.5780   -3.1470  -21.4620 C.ar   91  TYR91      -0.0198
     15  CD1      -41.9060   -4.4920  -21.3910 C.ar   91  TYR91      -0.0009
     16  CD2      -41.4930   -2.5650  -22.7390 C.ar   91  TYR91      -0.0009
     17  CE1      -42.1210   -5.2330  -22.5310 C.ar   91  TYR91       0.0417
     18  CE2      -41.6920   -3.3210  -23.8810 C.ar   91  TYR91       0.0417
     19  CZ       -41.9940   -4.6450  -23.7580 C.ar   91  TYR91       0.1957
     20  OH       -42.1350   -5.4450  -24.8150 O.3    91  TYR91      -0.2866
     21  N        -40.8040   -4.2540  -17.8110 N.am   92  LEU92      -0.1977
     22  CA       -40.9500   -5.5580  -17.1580 C.3    92  LEU92       0.1596
     23  C        -42.2960   -6.2190  -17.5120 C.2    92  LEU92       0.2287
     24  O        -43.3100   -5.5370  -17.6260 O.2    92  LEU92      -0.2864
     25  CB       -40.8970   -5.3170  -15.6660 C.3    92  LEU92       0.0297
     26  CG       -40.3070   -6.3940  -14.7880 C.3    92  LEU92       0.0022
     27  CD1      -38.8810   -6.7540  -15.2200 C.3    92  LEU92       0.0001
     28  CD2      -40.3190   -5.8220  -13.3890 C.3    92  LEU92       0.0001
     29  N        -45.1290   -3.3870  -17.4250 N.3   105  ALA105     -0.1231
     30  CA       -44.9020   -2.0760  -16.8110 C.3   105  ALA105      0.1694
     31  C        -43.5390   -1.4910  -17.2170 C.2   105  ALA105      0.2593
     32  O        -42.5200   -2.1710  -17.1870 O.2   105  ALA105     -0.2718
     33  CB       -45.0260   -2.1930  -15.3070 C.3   105  ALA105      0.0304
     34  N        -43.5640   -0.2260  -17.6180 N.am  106  GLY106     -0.1942
     35  CA       -42.3680    0.5060  -17.9960 C.3   106  GLY106      0.2014
     36  C        -42.5200    1.3900  -19.2390 C.2   106  GLY106      0.2638
     37  O        -43.6390    1.7620  -19.6140 O.2   106  GLY106     -0.2714
     38  N        -41.3560    1.7230  -19.8380 N.am  107  LYS107     -0.1977
     39  CA       -41.2450    2.5880  -21.0090 C.3   107  LYS107      0.1596
     40  C        -41.3890    1.6820  -22.1950 C.2   107  LYS107      0.2287
     41  O        -40.5300    0.8110  -22.4020 O.2   107  LYS107     -0.2864
     42  CB       -39.8970    3.2760  -21.0110 C.3   107  LYS107      0.0298
     43  CG       -39.5170    4.0950  -22.2360 C.3   107  LYS107      0.0038
     44  CD       -37.9980    4.2800  -22.3340 C.3   107  LYS107      0.0206
     45  CE       -37.4410    5.2130  -21.2510 C.3   107  LYS107      0.1093
     46  NZ       -37.7690    6.6290  -21.5630 N.3   107  LYS107     -0.1314
     47  N        -44.4210    5.7400  -20.7990 N.3   125  THR125     -0.1203
     48  CA       -44.2260    4.9640  -19.5980 C.3   125  THR125      0.1994
     49  C        -45.5650    4.7200  -18.8770 C.2   125  THR125      0.2618
     50  O        -46.3230    5.6350  -18.6080 O.2   125  THR125     -0.2717
     51  CB       -43.1850    5.6710  -18.7250 C.3   125  THR125      0.1784
     52  OG1      -41.9630    5.6970  -19.4560 O.3   125  THR125     -0.2211
     53  CG2      -42.9530    4.9300  -17.4120 C.3   125  THR125      0.0376
     54  N        -45.8340    3.4700  -18.5530 N.am  126  GLY126     -0.1942
     55  CA       -47.0520    3.1350  -17.8470 C.3   126  GLY126      0.2014
     56  C        -47.2370    1.6450  -17.7290 C.2   126  GLY126      0.2638
     57  O        -46.2450    0.8960  -17.7750 O.2   126  GLY126     -0.2714
     58  N        -48.5000    1.2250  -17.6010 N.am  127  VAL127     -0.1977
     59  CA       -48.8770   -0.1650  -17.3160 C.3   127  VAL127      0.1596
     60  C        -49.9430   -0.6380  -18.3040 C.2   127  VAL127      0.2287
     61  O        -50.8620    0.0980  -18.6510 O.2   127  VAL127     -0.2864
     62  CB       -49.4440   -0.3410  -15.8870 C.3   127  VAL127      0.0276
     63  CG1      -49.7330   -1.8090  -15.5930 C.3   127  VAL127      0.0022
     64  CG2      -48.4870    0.1930  -14.8370 C.3   127  VAL127      0.0022
     65  N        -52.7480    2.2080  -18.5860 N.3   143  ALA143     -0.1231
     66  CA       -52.5930    3.5480  -18.0490 C.3   143  ALA143      0.1694
     67  C        -51.2140    4.0740  -18.3770 C.2   143  ALA143      0.2592
     68  O        -50.2280    3.4120  -18.0940 O.2   143  ALA143     -0.2718
     69  CB       -52.8240    3.5540  -16.5430 C.3   143  ALA143      0.0304
     70  N        -51.1380    5.2560  -18.9840 N.am  144  VAL144     -0.1966
     71  CA       -49.8510    5.8850  -19.3050 C.3   144  VAL144      0.1727
     72  C        -49.6230    7.1300  -18.4620 C.2   144  VAL144      0.2616
     73  O        -50.4670    8.0150  -18.4570 O.2   144  VAL144     -0.2715
     74  CB       -49.7770    6.2970  -20.7900 C.3   144  VAL144      0.0290
     75  CG1      -48.3840    6.8400  -21.1330 C.3   144  VAL144      0.0023
     76  CG2      -50.1340    5.1340  -21.6940 C.3   144  VAL144      0.0023
     77  N        -48.4560    7.2180  -17.8240 N.am  145  ASP145     -0.1971
     78  CA       -48.0960    8.3490  -16.9750 C.3   145  ASP145      0.1709
     79  C        -47.2580    9.4060  -17.6500 C.2   145  ASP145      0.2293
     80  O        -47.2840   10.5510  -17.2380 O.2   145  ASP145     -0.2864
     81  CB       -47.3050    7.8480  -15.7800 C.3   145  ASP145      0.1436
     82  CG       -47.3170    8.8020  -14.6330 C.2   145  ASP145      0.3671
     83  OD1      -48.3230    9.4950  -14.4550 O.co2 145  ASP145     -0.2456
     84  OD2      -46.3180    8.8610  -13.8900 O.co2 145  ASP145     -0.2456
     85  N        -52.4180   12.2930  -17.9770 N.3   180  ASN180     -0.1240
     86  CA       -52.2840   10.8620  -18.1560 C.3   180  ASN180      0.1653
     87  C        -53.3440   10.3510  -19.1320 C.2   180  ASN180      0.2266
     88  O        -54.3900   10.9850  -19.3040 O.2   180  ASN180     -0.2867
     89  CB       -52.4120   10.1570  -16.7970 C.3   180  ASN180      0.1155
     90  CG       -51.3670   10.6130  -15.7960 C.2   180  ASN180      0.2627
     91  OD1      -50.3350   11.1060  -16.1730 O.2   180  ASN180     -0.2716
     92  ND2      -51.6320   10.4260  -14.5220 N.am  180  ASN180     -0.0877
     93  N        -55.7720    6.8940  -19.9610 N.3   182  TYR182     -0.1241
     94  CA       -56.3340    5.6440  -19.4240 C.3   182  TYR182      0.1605
     95  C        -57.2500    5.0890  -20.5030 C.2   182  TYR182      0.2264
     96  O        -58.0600    5.8280  -21.0520 O.2   182  TYR182     -0.2867
     97  CB       -57.1430    5.8880  -18.1270 C.3   182  TYR182      0.0534
     98  CG       -56.4540    6.7370  -17.0830 C.ar  182  TYR182     -0.0201
     99  CD1      -56.5050    8.1360  -17.1410 C.ar  182  TYR182     -0.0009
    100  CD2      -55.7470    6.1410  -16.0290 C.ar  182  TYR182     -0.0009
    101  CE1      -55.8670    8.9210  -16.1880 C.ar  182  TYR182      0.0417
    102  CE2      -55.0990    6.9130  -15.0600 C.ar  182  TYR182      0.0417
    103  CZ       -55.1580    8.3050  -15.1360 C.ar  182  TYR182      0.1957
    104  OH       -54.4820    9.0780  -14.2100 O.3   182  TYR182     -0.2866
@<TRIPOS>BOND
     1    20    19    1
     2    18    19   ar
     3    18    16   ar
     4    19    17   ar
     5    16    14   ar
     6    17    15   ar
     7    41    40    2
     8    44    43    1
     9    44    45    1
    10     1     2    1
    11    43    42    1
    12    40    39    1
    13    76    74    1
    14    46    45    1
    15    14    15   ar
    16    14    13    1
    17     2     5    1
    18     2     3    1
    19    75    74    1
    20    96    95    2
    21    42    39    1
    22    39    38    1
    23    47    48    1
    24    74    71    1
    25    95    94    1
    26     5     6    1
    27     3     9   am
    28     3     4    2
    29    13    10    1
    30     9    10    1
    31    93    94    1
    32    38    36   am
    33     7     6    1
    34    37    36    2
    35    48    49    1
    36    48    51    1
    37    52    51    1
    38    94    97    1
    39    10    11    1
    40    12    11    2
    41    71    70    1
    42    71    72    1
    43    88    87    2
    44     6     8    1
    45    36    35    1
    46    87    86    1
    47    70    67   am
    48    49    50    2
    49    49    54   am
    50    11    21   am
    51    51    53    1
    52    61    60    2
    53    65    66    1
    54    54    55    1
    55    72    73    2
    56    72    77   am
    57    67    68    2
    58    67    66    1
    59    60    59    1
    60    86    85    1
    61    86    89    1
    62    97    98    1
    63    66    69    1
    64    35    34    1
    65    55    56    1
    66    77    78    1
    67    21    22    1
    68    57    56    2
    69    56    58   am
    70    79    80    2
    71    79    78    1
    72    24    23    2
    73    34    31   am
    74    58    59    1
    75    23    22    1
    76    29    30    1
    77    59    62    1
    78    31    32    2
    79    31    30    1
    80    22    25    1
    81    99    98   ar
    82    99   101   ar
    83    98   100   ar
    84    78    81    1
    85    30    33    1
    86    89    90    1
    87   101   103   ar
    88    91    90    2
    89   100   102   ar
    90    62    63    1
    91    62    64    1
    92    90    92   am
    93    81    82    1
    94    25    26    1
    95    27    26    1
    96   103   102   ar
    97   103   104    1
    98    26    28    1
    99    82    83   ar
   100    82    84   ar
