@<TRIPOS>MOLECULE
tmp/5ldtA00.pdb
 95 91 0 0 0
SMALL
GASTEIGER

@<TRIPOS>ATOM
      1  N        -22.5760    1.4050  -41.4570 N.3    90  LEU90      -0.1231
      2  CA       -23.8010    0.6250  -41.5590 C.3    90  LEU90       0.1693
      3  C        -24.0640    0.4050  -43.0530 C.2    90  LEU90       0.2592
      4  O        -24.3210    1.3520  -43.7900 O.2    90  LEU90      -0.2718
      5  CB       -24.9380    1.3750  -40.9300 C.3    90  LEU90       0.0284
      6  CG       -26.2490    0.6320  -40.9530 C.3    90  LEU90       0.0019
      7  CD1      -26.1810   -0.6840  -40.2110 C.3    90  LEU90       0.0001
      8  CD2      -27.3480    1.5050  -40.3440 C.3    90  LEU90       0.0001
      9  N        -23.9160   -0.8220  -43.5300 N.am   91  TYR91      -0.1962
     10  CA       -24.0140   -1.0190  -44.9680 C.3    91  TYR91       0.1771
     11  C        -24.4490   -2.4300  -45.3050 C.2    91  TYR91       0.2619
     12  O        -24.2860   -3.3420  -44.5020 O.2    91  TYR91      -0.2715
     13  CB       -22.6910   -0.6040  -45.6930 C.3    91  TYR91       0.0574
     14  CG       -21.4690   -1.4180  -45.3720 C.ar   91  TYR91      -0.0198
     15  CD1      -21.3140   -2.7150  -45.8540 C.ar   91  TYR91      -0.0009
     16  CD2      -20.4100   -0.8880  -44.5990 C.ar   91  TYR91      -0.0009
     17  CE1      -20.1570   -3.4540  -45.5680 C.ar   91  TYR91       0.0417
     18  CE2      -19.2680   -1.6410  -44.3290 C.ar   91  TYR91       0.0417
     19  CZ       -19.1700   -2.9180  -44.8210 C.ar   91  TYR91       0.1957
     20  OH       -18.1230   -3.6730  -44.5600 O.3    91  TYR91      -0.2866
     21  N        -24.9470   -2.5690  -46.5210 N.am   92  LEU92      -0.1977
     22  CA       -25.4410   -3.8240  -47.0470 C.3    92  LEU92       0.1596
     23  C        -24.5100   -4.3430  -48.1470 C.2    92  LEU92       0.2287
     24  O        -23.9590   -3.5460  -48.9150 O.2    92  LEU92      -0.2864
     25  CB       -26.8040   -3.5350  -47.6260 C.3    92  LEU92       0.0297
     26  CG       -27.8550   -4.6050  -47.6110 C.3    92  LEU92       0.0022
     27  CD1      -28.1140   -5.1000  -46.2010 C.3    92  LEU92       0.0001
     28  CD2      -29.0950   -3.9820  -48.2120 C.3    92  LEU92       0.0001
     29  N        -23.3410   -1.1790  -50.4440 N.3   105  ALA105     -0.1231
     30  CA       -24.0140    0.0990  -50.3890 C.3   105  ALA105      0.1694
     31  C        -24.2810    0.5280  -48.9090 C.2   105  ALA105      0.2592
     32  O        -24.8130   -0.2640  -48.1010 O.2   105  ALA105     -0.2718
     33  CB       -25.3290    0.0110  -51.1870 C.3   105  ALA105      0.0304
     34  N        -23.9670    1.7840  -48.6080 N.am  106  GLY106     -0.1957
     35  CA       -24.2490    2.3710  -47.3190 C.3   106  GLY106      0.1869
     36  C        -23.1350    3.2300  -46.8110 C.2   106  GLY106      0.2309
     37  O        -22.3040    3.7100  -47.5760 O.2   106  GLY106     -0.2863
     38  N        -20.9700    7.7330  -47.3890 N.3   125  THR125     -0.1203
     39  CA       -22.0910    6.9650  -47.8260 C.3   125  THR125      0.1994
     40  C        -22.1080    6.8500  -49.3550 C.2   125  THR125      0.2618
     41  O        -22.0110    7.8600  -50.0630 O.2   125  THR125     -0.2717
     42  CB       -23.3710    7.5850  -47.2620 C.3   125  THR125      0.1784
     43  OG1      -23.3140    7.4700  -45.8340 O.3   125  THR125     -0.2211
     44  CG2      -24.6190    6.8540  -47.7390 C.3   125  THR125      0.0376
     45  N        -22.2650    5.6310  -49.8550 N.am  126  GLY126     -0.1942
     46  CA       -22.3140    5.4430  -51.2730 C.3   126  GLY126      0.2014
     47  C        -22.2970    3.9840  -51.6190 C.2   126  GLY126      0.2638
     48  O        -22.6630    3.1620  -50.8080 O.2   126  GLY126     -0.2714
     49  N        -21.7890    3.6970  -52.8170 N.am  127  VAL127     -0.1977
     50  CA       -21.8140    2.3730  -53.4340 C.3   127  VAL127      0.1596
     51  C        -20.4380    1.9940  -53.9650 C.2   127  VAL127      0.2287
     52  O        -19.7280    2.8060  -54.5630 O.2   127  VAL127     -0.2864
     53  CB       -22.8210    2.3020  -54.6230 C.3   127  VAL127      0.0276
     54  CG1      -22.9240    0.8840  -55.1590 C.3   127  VAL127      0.0022
     55  CG2      -24.2140    2.7570  -54.1990 C.3   127  VAL127      0.0022
     56  N        -18.9480    5.0970  -56.0600 N.3   143  ALA143     -0.1231
     57  CA       -19.5060    6.4450  -56.0330 C.3   143  ALA143      0.1694
     58  C        -19.8500    6.8070  -54.5760 C.2   143  ALA143      0.2592
     59  O        -20.5690    6.0530  -53.9180 O.2   143  ALA143     -0.2718
     60  CB       -20.7420    6.5170  -56.9060 C.3   143  ALA143      0.0304
     61  N        -19.3760    7.9530  -54.1180 N.am  144  VAL144     -0.1966
     62  CA       -19.7260    8.4460  -52.8060 C.3   144  VAL144      0.1727
     63  C        -20.6080    9.6840  -52.8660 C.2   144  VAL144      0.2616
     64  O        -20.2540   10.6230  -53.5390 O.2   144  VAL144     -0.2715
     65  CB       -18.4720    8.8250  -51.9980 C.3   144  VAL144      0.0290
     66  CG1      -18.8640    9.2130  -50.5740 C.3   144  VAL144      0.0023
     67  CG2      -17.4570    7.6790  -51.9950 C.3   144  VAL144      0.0023
     68  N        -21.7210    9.6840  -52.1150 N.am  145  ASP145     -0.1971
     69  CA       -22.6790   10.7880  -52.1100 C.3   145  ASP145      0.1709
     70  C        -22.4870   11.7490  -50.9830 C.2   145  ASP145      0.2293
     71  O        -22.9050   12.8950  -51.0850 O.2   145  ASP145     -0.2864
     72  CB       -24.1130   10.2540  -52.0220 C.3   145  ASP145      0.1436
     73  CG       -25.1460   11.2580  -52.4650 C.2   145  ASP145      0.3671
     74  OD1      -24.8660   12.0290  -53.3630 O.co2 145  ASP145     -0.2456
     75  OD2      -26.2660   11.2290  -51.9770 O.co2 145  ASP145     -0.2456
     76  N        -19.8830   15.0900  -55.0460 N.3   180  ASN180     -0.1240
     77  CA       -19.7370   13.6410  -54.9970 C.3   180  ASN180      0.1653
     78  C        -18.3510   13.2040  -55.5340 C.2   180  ASN180      0.2266
     79  O        -17.7380   13.9280  -56.3060 O.2   180  ASN180     -0.2867
     80  CB       -20.8640   12.9710  -55.8090 C.3   180  ASN180      0.1155
     81  CG       -22.2510   13.3370  -55.3020 C.2   180  ASN180      0.2627
     82  OD1      -22.4100   13.7350  -54.1650 O.2   180  ASN180     -0.2716
     83  ND2      -23.2460   13.2230  -56.1460 N.am  180  ASN180     -0.0877
     84  N        -16.4110    9.9740  -57.6130 N.3   182  TYR182     -0.1241
     85  CA       -16.6040    8.7980  -58.4660 C.3   182  TYR182      0.1605
     86  C        -15.2190    8.3030  -58.8430 C.2   182  TYR182      0.2264
     87  O        -14.3600    9.1070  -59.2320 O.2   182  TYR182     -0.2867
     88  CB       -17.3910    9.1490  -59.7390 C.3   182  TYR182      0.0534
     89  CG       -18.6580    9.9480  -59.5130 C.ar  182  TYR182     -0.0201
     90  CD1      -18.6110   11.3240  -59.3730 C.ar  182  TYR182     -0.0009
     91  CD2      -19.8940    9.3280  -59.4790 C.ar  182  TYR182     -0.0009
     92  CE1      -19.7620   12.0640  -59.1900 C.ar  182  TYR182      0.0417
     93  CE2      -21.0570   10.0530  -59.2970 C.ar  182  TYR182      0.0417
     94  CZ       -20.9830   11.4280  -59.1270 C.ar  182  TYR182      0.1957
     95  OH       -22.1440   12.1660  -58.9080 O.3   182  TYR182     -0.2866
@<TRIPOS>BOND
     1    88    89    1
     2    88    85    1
     3    89    91   ar
     4    89    90   ar
     5    91    93   ar
     6    90    92   ar
     7    93    94   ar
     8    87    86    2
     9    92    94   ar
    10    94    95    1
    11    86    85    1
    12    85    84    1
    13    60    57    1
    14    79    78    2
    15    83    81   am
    16    56    57    1
    17    57    58    1
    18    80    81    1
    19    80    77    1
    20    78    77    1
    21    81    82    2
    22    54    53    1
    23    76    77    1
    24    53    55    1
    25    53    50    1
    26    58    61   am
    27    58    59    2
    28    52    51    2
    29    61    62    1
    30    51    50    1
    31    64    63    2
    32    50    49    1
    33    74    73   ar
    34    63    62    1
    35    63    68   am
    36    49    47   am
    37    62    65    1
    38    73    72    1
    39    73    75   ar
    40    68    69    1
    41    69    72    1
    42    69    70    1
    43    65    67    1
    44    65    66    1
    45    47    46    1
    46    47    48    2
    47    46    45    1
    48    33    30    1
    49    71    70    2
    50    29    30    1
    51    30    31    1
    52    41    40    2
    53    45    40   am
    54    40    39    1
    55    24    23    2
    56    31    34   am
    57    31    32    2
    58    34    35    1
    59    28    26    1
    60    23    22    1
    61    39    38    1
    62    39    42    1
    63    44    42    1
    64    25    26    1
    65    25    22    1
    66    26    27    1
    67    37    36    2
    68    35    36    1
    69    42    43    1
    70    22    21    1
    71    21    11   am
    72    15    17   ar
    73    15    14   ar
    74    13    14    1
    75    13    10    1
    76    17    19   ar
    77    14    16   ar
    78    11    10    1
    79    11    12    2
    80    10     9    1
    81    19    20    1
    82    19    18   ar
    83    16    18   ar
    84     4     3    2
    85     9     3   am
    86     3     2    1
    87     2     1    1
    88     2     5    1
    89     6     5    1
    90     6     8    1
    91     6     7    1
