@<TRIPOS>MOLECULE
tmp/5ldvA04.pdb
 92 90 0 0 0
SMALL
GASTEIGER

@<TRIPOS>ATOM
      1  N         43.3180   42.5800    7.9010 N.3   269  LEU269     -0.1245
      2  CA        44.0120   42.1390    6.7150 C.3   269  LEU269      0.1561
      3  C         43.2590   40.9260    6.1760 C.2   269  LEU269      0.2260
      4  O         42.9700   39.9860    6.9200 O.2   269  LEU269     -0.2867
      5  CB        45.4470   41.7360    7.0690 C.3   269  LEU269      0.0270
      6  CG        46.2750   40.9910    6.0100 C.3   269  LEU269      0.0019
      7  CD1       46.6520   41.9040    4.8440 C.3   269  LEU269      0.0001
      8  CD2       47.5360   40.3900    6.6130 C.3   269  LEU269      0.0001
      9  N         41.0260   38.1900   -7.8590 N.3   316  ILE316     -0.1231
     10  CA        41.8830   38.0380   -6.7030 C.3   316  ILE316      0.1692
     11  C         42.0320   39.4050   -6.0530 C.2   316  ILE316      0.2592
     12  O         42.4160   40.3550   -6.7240 O.2   316  ILE316     -0.2718
     13  CB        43.2650   37.4940   -7.1000 C.3   316  ILE316      0.0266
     14  CG1       43.1100   36.3500   -8.1180 C.3   316  ILE316      0.0019
     15  CG2       44.0250   37.0260   -5.8570 C.3   316  ILE316      0.0020
     16  CD1       44.4070   35.6580   -8.5060 C.3   316  ILE316      0.0001
     17  N         41.7330   39.5030   -4.7560 N.am  317  PHE317     -0.1962
     18  CA        41.8510   40.7710   -4.0490 C.3   317  PHE317      0.1771
     19  C         42.4710   40.5740   -2.6720 C.2   317  PHE317      0.2620
     20  O         42.2340   39.5640   -1.9990 O.2   317  PHE317     -0.2715
     21  CB        40.4850   41.4620   -3.9070 C.3   317  PHE317      0.0574
     22  CG        39.9360   42.0090   -5.2000 C.ar  317  PHE317     -0.0200
     23  CD1       40.3430   43.2450   -5.6690 C.ar  317  PHE317     -0.0042
     24  CD2       38.9950   41.3000   -5.9240 C.ar  317  PHE317     -0.0042
     25  CE1       39.8480   43.7540   -6.8500 C.ar  317  PHE317     -0.0003
     26  CE2       38.4840   41.8060   -7.1060 C.ar  317  PHE317     -0.0003
     27  CZ        38.9220   43.0350   -7.5720 C.ar  317  PHE317     -0.0000
     28  N         43.3030   41.5380   -2.2890 N.am  318  GLY318     -0.1940
     29  CA        43.7640   41.6800   -0.9120 C.3   318  GLY318      0.2014
     30  C         43.3250   43.0330   -0.3730 C.2   318  GLY318      0.2638
     31  O         42.9910   43.9410   -1.1460 O.2   318  GLY318     -0.2714
     32  N         43.2910   43.1750    0.9480 N.am  319  TYR319     -0.1973
     33  CA        42.9420   44.4750    1.5270 C.3   319  TYR319      0.1639
     34  C         43.4840   44.6280    2.9250 C.2   319  TYR319      0.2290
     35  O         43.7620   43.6460    3.6240 O.2   319  TYR319     -0.2864
     36  CB        41.4050   44.7240    1.5480 C.3   319  TYR319      0.0560
     37  CG        40.6590   43.6230    2.2750 C.ar  319  TYR319     -0.0198
     38  CD1       40.5990   43.6030    3.6580 C.ar  319  TYR319     -0.0009
     39  CD2       40.0780   42.5780    1.5750 C.ar  319  TYR319     -0.0009
     40  CE1       39.9780   42.5750    4.3270 C.ar  319  TYR319      0.0417
     41  CE2       39.4050   41.5580    2.2400 C.ar  319  TYR319      0.0417
     42  CZ        39.3720   41.5610    3.6140 C.ar  319  TYR319      0.1957
     43  OH        38.7490   40.5430    4.2930 O.3   319  TYR319     -0.2866
     44  N         41.9830   49.9920    2.1330 N.3   336  PHE336     -0.1241
     45  CA        42.6670   49.9190    0.8570 C.3   336  PHE336      0.1605
     46  C         42.4810   48.4970    0.3070 C.2   336  PHE336      0.2264
     47  O         42.7850   47.5100    0.9860 O.2   336  PHE336     -0.2867
     48  CB        44.1490   50.2820    1.0250 C.3   336  PHE336      0.0534
     49  CG        44.9950   49.9540   -0.1730 C.ar  336  PHE336     -0.0203
     50  CD1       44.8220   50.6280   -1.3740 C.ar  336  PHE336     -0.0042
     51  CD2       45.9810   48.9650   -0.0980 C.ar  336  PHE336     -0.0042
     52  CE1       45.6050   50.3240   -2.4740 C.ar  336  PHE336     -0.0003
     53  CE2       46.7760   48.6620   -1.1960 C.ar  336  PHE336     -0.0003
     54  CZ        46.5830   49.3410   -2.3860 C.ar  336  PHE336     -0.0000
     55  N         43.0450   46.0810   -3.2160 N.3   338  TYR338     -0.1227
     56  CA        43.8520   46.0200   -4.3980 C.3   338  TYR338      0.1736
     57  C         43.7580   44.6520   -4.9730 C.2   338  TYR338      0.2596
     58  O         43.8250   43.6630   -4.2420 O.2   338  TYR338     -0.2718
     59  CB        45.3140   46.2940   -4.0650 C.3   338  TYR338      0.0548
     60  CG        46.1640   46.3470   -5.3100 C.ar  338  TYR338     -0.0200
     61  CD1       46.2940   47.5250   -6.0250 C.ar  338  TYR338     -0.0009
     62  CD2       46.8140   45.2050   -5.7890 C.ar  338  TYR338     -0.0009
     63  CE1       47.0760   47.5830   -7.1770 C.ar  338  TYR338      0.0417
     64  CE2       47.5730   45.2490   -6.9450 C.ar  338  TYR338      0.0417
     65  CZ        47.7050   46.4450   -7.6300 C.ar  338  TYR338      0.1957
     66  OH        48.4640   46.5110   -8.7690 O.3   338  TYR338     -0.2866
     67  N         43.6200   44.5870   -6.2850 N.am  339  GLY339     -0.1942
     68  CA        43.6650   43.3050   -6.9540 C.3   339  GLY339      0.2014
     69  C         43.3320   43.4490   -8.4040 C.2   339  GLY339      0.2639
     70  O         43.6500   44.4510   -9.0340 O.2   339  GLY339     -0.2714
     71  N         42.6500   42.4580   -8.9320 N.am  340  GLY340     -0.1954
     72  CA        42.3110   42.4920  -10.3330 C.3   340  GLY340      0.1869
     73  C         41.4690   41.3250  -10.7500 C.2   340  GLY340      0.2309
     74  O         41.2160   40.4040   -9.9690 O.2   340  GLY340     -0.2863
     75  N         40.8610   38.6220  -13.9790 N.3   342  LYS342     -0.1245
     76  CA        41.4080   37.9860  -15.1730 C.3   342  LYS342      0.1561
     77  C         40.2630   37.4820  -16.0340 C.2   342  LYS342      0.2260
     78  O         39.3700   36.7820  -15.5570 O.2   342  LYS342     -0.2867
     79  CB        42.3170   36.8150  -14.8020 C.3   342  LYS342      0.0271
     80  CG        43.4560   37.1840  -13.8500 C.3   342  LYS342      0.0035
     81  CD        44.7500   37.5570  -14.5750 C.3   342  LYS342      0.0206
     82  CE        45.6880   38.3470  -13.6620 C.3   342  LYS342      0.1093
     83  NZ        47.0210   38.5600  -14.2930 N.3   342  LYS342     -0.1314
     84  N         43.6830   45.3160  -13.4810 N.3   353  LYS353     -0.1245
     85  CA        43.9370   45.6420  -12.0880 C.3   353  LYS353      0.1561
     86  C         42.9410   46.6870  -11.5710 C.2   353  LYS353      0.2260
     87  O         42.4810   47.5510  -12.3130 O.2   353  LYS353     -0.2867
     88  CB        45.3930   46.0940  -11.9210 C.3   353  LYS353      0.0271
     89  CG        46.3520   44.9130  -11.9980 C.3   353  LYS353      0.0035
     90  CD        47.7950   45.3120  -12.2440 C.3   353  LYS353      0.0206
     91  CE        48.6140   44.0690  -12.6060 C.3   353  LYS353      0.1093
     92  NZ        50.0510   44.3380  -12.8980 N.3   353  LYS353     -0.1314
@<TRIPOS>BOND
     1    77    78    2
     2    77    76    1
     3    76    79    1
     4    76    75    1
     5    79    80    1
     6    81    80    1
     7    81    82    1
     8    83    82    1
     9    84    85    1
    10    92    91    1
    11    91    90    1
    12    87    86    2
    13    90    89    1
    14    85    88    1
    15    85    86    1
    16    89    88    1
    17    73    72    1
    18    73    74    2
    19    72    71    1
    20    70    69    2
    21    71    69   am
    22    66    65    1
    23    16    14    1
    24    69    68    1
    25    14    13    1
    26     9    10    1
    27    65    63   ar
    28    65    64   ar
    29    27    26   ar
    30    27    25   ar
    31    63    61   ar
    32    26    24   ar
    33    13    10    1
    34    13    15    1
    35    68    67    1
    36    64    62   ar
    37    25    23   ar
    38    12    11    2
    39    10    11    1
    40    67    57   am
    41    11    17   am
    42    61    60   ar
    43    24    22   ar
    44    62    60   ar
    45    23    22   ar
    46    60    59    1
    47    22    21    1
    48    57    56    1
    49    57    58    2
    50    17    18    1
    51    56    59    1
    52    56    55    1
    53    18    21    1
    54    18    19    1
    55    19    28   am
    56    19    20    2
    57    52    54   ar
    58    52    50   ar
    59    54    53   ar
    60    28    29    1
    61    50    49   ar
    62    53    51   ar
    63    31    30    2
    64    29    30    1
    65    30    32   am
    66    49    51   ar
    67    49    48    1
    68    46    45    1
    69    46    47    2
    70    45    48    1
    71    45    44    1
    72    32    33    1
    73    33    36    1
    74    33    34    1
    75    36    37    1
    76    39    41   ar
    77    39    37   ar
    78    41    42   ar
    79    37    38   ar
    80    34    35    2
    81    42    43    1
    82    42    40   ar
    83    38    40   ar
    84     7     6    1
    85     6     8    1
    86     6     5    1
    87     3     2    1
    88     3     4    2
    89     2     5    1
    90     2     1    1
