@<TRIPOS>MOLECULE
tmp/5ldvA00.pdb
 153 144 0 0 0
SMALL
GASTEIGER

@<TRIPOS>ATOM
      1  N          4.0930   38.0050   13.0710 N.3    64  PHE64      -0.1241
      2  CA         5.0930   39.0130   12.8130 C.3    64  PHE64       0.1605
      3  C          4.7210   39.7290   11.5550 C.2    64  PHE64       0.2264
      4  O          4.3060   39.0930   10.5810 O.2    64  PHE64      -0.2867
      5  CB         6.4450   38.3460   12.5410 C.3    64  PHE64       0.0534
      6  CG         7.5630   39.3170   12.3010 C.ar   64  PHE64      -0.0203
      7  CD1        7.8340   39.8020   11.0190 C.ar   64  PHE64      -0.0042
      8  CD2        8.3640   39.7330   13.3550 C.ar   64  PHE64      -0.0042
      9  CE1        8.8640   40.6810   10.8070 C.ar   64  PHE64      -0.0003
     10  CE2        9.4080   40.6160   13.1300 C.ar   64  PHE64      -0.0003
     11  CZ         9.6590   41.0840   11.8530 C.ar   64  PHE64      -0.0000
     12  N          7.1530   41.7730    5.3240 N.3    89  GLN89      -0.1245
     13  CA         7.1600   40.4360    5.9170 C.3    89  GLN89       0.1566
     14  C          5.8530   40.2230    6.6590 C.2    89  GLN89       0.2260
     15  O          5.2970   41.1490    7.2000 O.2    89  GLN89      -0.2867
     16  CB         8.3020   40.2400    6.8750 C.3    89  GLN89       0.0367
     17  CG         9.6560   40.4260    6.2460 C.3    89  GLN89       0.0905
     18  CD        10.7660   40.1340    7.2070 C.2    89  GLN89       0.2608
     19  OE1       10.8910   39.0120    7.7040 O.2    89  GLN89      -0.2717
     20  NE2       11.6390   41.1130    7.4140 N.am   89  GLN89      -0.0878
     21  N          4.3960   36.7190    8.8230 N.3    91  TYR91      -0.1241
     22  CA         4.5440   35.2920    9.1080 C.3    91  TYR91       0.1605
     23  C          4.1290   34.8340   10.4990 C.2    91  TYR91       0.2264
     24  O          3.9910   35.6150   11.4170 O.2    91  TYR91      -0.2867
     25  CB         5.9870   34.8420    8.8400 C.3    91  TYR91       0.0534
     26  CG         7.1040   35.4810    9.6270 C.ar   91  TYR91      -0.0201
     27  CD1        7.3880   35.0880   10.9350 C.ar   91  TYR91      -0.0009
     28  CD2        7.9250   36.4410    9.0430 C.ar   91  TYR91      -0.0009
     29  CE1        8.4600   35.6400   11.6270 C.ar   91  TYR91       0.0417
     30  CE2        8.9980   36.9980    9.7230 C.ar   91  TYR91       0.0417
     31  CZ         9.2370   36.6110   11.0270 C.ar   91  TYR91       0.1957
     32  OH        10.2930   37.1490   11.6780 O.3    91  TYR91      -0.2866
     33  N         11.2460   25.4930   16.5900 N.3   102  SER102     -0.1217
     34  CA        10.3000   26.4830   16.0750 C.3   102  SER102      0.1889
     35  C         10.0650   26.2460   14.5950 C.2   102  SER102      0.2288
     36  O         10.9700   25.8020   13.8790 O.2   102  SER102     -0.2866
     37  CB        10.8310   27.8970   16.2740 C.3   102  SER102      0.2089
     38  OG        10.6470   28.2850   17.6190 O.3   102  SER102     -0.2183
     39  N          8.5980   28.4240   11.3310 N.3   104  ILE104     -0.1245
     40  CA         8.3060   29.7570   10.8760 C.3   104  ILE104      0.1561
     41  C          7.7450   29.6700    9.4460 C.2   104  ILE104      0.2260
     42  O          8.4600   29.2640    8.5270 O.2   104  ILE104     -0.2867
     43  CB         9.5840   30.6140   10.8300 C.3   104  ILE104      0.0252
     44  CG1       10.4390   30.4130   12.0850 C.3   104  ILE104      0.0019
     45  CG2        9.2370   32.0760   10.6010 C.3   104  ILE104      0.0019
     46  CD1        9.9300   31.1270   13.2930 C.3   104  ILE104      0.0001
     47  N          8.9230   36.0510    4.5980 N.3   108  GLN108     -0.1231
     48  CA         9.9590   36.2900    5.5860 C.3   108  GLN108      0.1698
     49  C         11.2860   36.6240    4.9320 C.2   108  GLN108      0.2592
     50  O         11.6170   36.1040    3.8490 O.2   108  GLN108     -0.2718
     51  CB        10.0930   35.0590    6.5240 C.3   108  GLN108      0.0381
     52  CG        10.4880   33.7650    5.8260 C.3   108  GLN108      0.0905
     53  CD        10.4080   32.5500    6.7470 C.2   108  GLN108      0.2608
     54  OE1       11.2520   32.3630    7.5990 O.2   108  GLN108     -0.2717
     55  NE2        9.3730   31.7330    6.5830 N.am  108  GLN108     -0.0878
     56  N         12.0500   37.5070    5.5660 N.am  109  GLN109     -0.1966
     57  CA        13.3940   37.7630    5.0760 C.3   109  GLN109      0.1733
     58  C         14.1840   36.4610    5.2370 C.2   109  GLN109      0.2616
     59  O         14.1300   35.8130    6.2640 O.2   109  GLN109     -0.2715
     60  CB        14.0720   38.9200    5.7850 C.3   109  GLN109      0.0408
     61  CG        15.3830   39.2900    5.1280 C.3   109  GLN109      0.0908
     62  CD        15.9180   40.6330    5.5800 C.2   109  GLN109      0.2608
     63  OE1       15.2470   41.6840    5.4230 O.2   109  GLN109     -0.2717
     64  NE2       17.1350   40.6220    6.1560 N.am  109  GLN109     -0.0878
     65  N         14.8590   36.0390    4.1860 N.am  110  LEU110     -0.1963
     66  CA        15.4250   34.6970    4.1830 C.3   110  LEU110      0.1728
     67  C         16.6050   34.5070    5.1150 C.2   110  LEU110      0.2616
     68  O         16.7350   33.4250    5.7130 O.2   110  LEU110     -0.2715
     69  CB        15.8380   34.2860    2.7630 C.3   110  LEU110      0.0311
     70  CG        14.7400   34.3510    1.7010 C.3   110  LEU110      0.0022
     71  CD1       15.2810   33.8170    0.3860 C.3   110  LEU110      0.0001
     72  CD2       13.4970   33.5580    2.1250 C.3   110  LEU110      0.0001
     73  N         17.5040   35.4940    5.1500 N.am  111  ASN111     -0.1958
     74  CA        18.6570   35.4930    6.0530 C.3   111  ASN111      0.1819
     75  C         19.4580   34.2330    5.9690 C.2   111  ASN111      0.2621
     76  O         19.7000   33.5480    6.9710 O.2   111  ASN111     -0.2715
     77  CB        18.2270   35.7750    7.5200 C.3   111  ASN111      0.1195
     78  CG        17.7280   37.2030    7.6930 C.2   111  ASN111      0.2630
     79  OD1       18.1300   38.1070    6.9440 O.2   111  ASN111     -0.2716
     80  ND2       16.8440   37.4150    8.6510 N.am  111  ASN111     -0.0877
     81  N         19.8760   33.9240    4.7540 N.am  112  ILE112     -0.1977
     82  CA        20.7460   32.8050    4.5630 C.3   112  ILE112      0.1596
     83  C         22.1260   33.3500    4.1990 C.2   112  ILE112      0.2287
     84  O         22.2830   34.5420    3.9840 O.2   112  ILE112     -0.2864
     85  CB        20.1470   31.8180    3.5380 C.3   112  ILE112      0.0276
     86  CG1       19.9320   32.5000    2.1830 C.3   112  ILE112      0.0022
     87  CG2       18.8550   31.2590    4.0950 C.3   112  ILE112      0.0022
     88  CD1       19.1560   31.6640    1.2080 C.3   112  ILE112      0.0001
     89  N         10.4200   27.4060    7.4580 N.3   128  LYS128     -0.1245
     90  CA        11.6740   27.2180    8.1290 C.3   128  LYS128      0.1561
     91  C         11.4380   26.4800    9.4480 C.2   128  LYS128      0.2260
     92  O         10.5310   26.8310   10.1820 O.2   128  LYS128     -0.2867
     93  CB        12.2420   28.5920    8.4490 C.3   128  LYS128      0.0271
     94  CG        13.6200   28.5420    9.0520 C.3   128  LYS128      0.0035
     95  CD        14.2800   29.8960    8.9780 C.3   128  LYS128      0.0206
     96  CE        13.8400   30.8130   10.1000 C.3   128  LYS128      0.1093
     97  NZ        14.9160   31.8040   10.3300 N.3   128  LYS128     -0.1314
     98  N         13.6700   25.3930   12.8440 N.3   130  VAL130     -0.1245
     99  CA        14.8690   25.7530   13.5590 C.3   130  VAL130      0.1561
    100  C         14.8940   25.0110   14.9020 C.2   130  VAL130      0.2260
    101  O         13.9240   25.0770   15.6690 O.2   130  VAL130     -0.2867
    102  CB        14.9020   27.2730   13.8150 C.3   130  VAL130      0.0252
    103  CG1       16.2580   27.7080   14.3140 C.3   130  VAL130      0.0019
    104  CG2       14.5450   28.0470   12.5440 C.3   130  VAL130      0.0019
    105  N         22.5340   25.8890   16.4190 N.3   138  THR138     -0.1218
    106  CA        21.2650   26.0800   15.7540 C.3   138  THR138      0.1862
    107  C         21.2740   25.2330   14.4930 C.2   138  THR138      0.2287
    108  O         22.1880   25.3460   13.6570 O.2   138  THR138     -0.2866
    109  CB        21.0460   27.5780   15.4230 C.3   138  THR138      0.1770
    110  OG1       20.9670   28.3310   16.6480 O.3   138  THR138     -0.2211
    111  CG2       19.7780   27.8040   14.6170 C.3   138  THR138      0.0375
    112  N         18.8010   24.1830   11.1850 N.3   140  ALA140     -0.1245
    113  CA        17.6400   24.6680   10.4310 C.3   140  ALA140      0.1562
    114  C         17.4760   23.9420    9.0980 C.2   140  ALA140      0.2260
    115  O         18.4620   23.5360    8.4770 O.2   140  ALA140     -0.2867
    116  CB        17.7500   26.1710   10.2080 C.3   140  ALA140      0.0290
    117  N         14.8440   24.5490    5.5350 N.3   142  PHE142     -0.1241
    118  CA        13.9980   25.5830    4.9670 C.3   142  PHE142      0.1605
    119  C         13.6050   25.2040    3.5560 C.2   142  PHE142      0.2264
    120  O         14.3060   24.4360    2.8960 O.2   142  PHE142     -0.2867
    121  CB        14.6420   26.9970    5.0240 C.3   142  PHE142      0.0534
    122  CG        16.0220   27.0810    4.4390 C.ar  142  PHE142     -0.0203
    123  CD1       16.2100   27.3570    3.0850 C.ar  142  PHE142     -0.0042
    124  CD2       17.1320   26.8920    5.2350 C.ar  142  PHE142     -0.0042
    125  CE1       17.4910   27.4190    2.5470 C.ar  142  PHE142     -0.0003
    126  CE2       18.4110   26.9530    4.6990 C.ar  142  PHE142     -0.0003
    127  CZ        18.5870   27.2210    3.3530 C.ar  142  PHE142     -0.0000
    128  N         21.0640   24.2800    7.3680 N.3   185  ALA185     -0.1245
    129  CA        22.1880   24.9940    7.9050 C.3   185  ALA185      0.1562
    130  C         22.4660   24.5070    9.3000 C.2   185  ALA185      0.2260
    131  O         21.5600   24.0590   10.0050 O.2   185  ALA185     -0.2867
    132  CB        21.9040   26.4810    7.9290 C.3   185  ALA185      0.0290
    133  N         24.6200   26.2530   12.3930 N.3   187  VAL187     -0.1245
    134  CA        25.3130   27.4640   12.7870 C.3   187  VAL187      0.1561
    135  C         25.6520   27.3590   14.2570 C.2   187  VAL187      0.2260
    136  O         24.7600   27.1650   15.1070 O.2   187  VAL187     -0.2867
    137  CB        24.4390   28.7080   12.5490 C.3   187  VAL187      0.0252
    138  CG1       25.0600   29.9520   13.1850 C.3   187  VAL187      0.0019
    139  CG2       24.2250   28.9050   11.0610 C.3   187  VAL187      0.0019
    140  N         26.2630   25.6690    5.4540 N.3   202  TRP202     -0.1241
    141  CA        25.0470   25.9250    4.7220 C.3   202  TRP202      0.1605
    142  C         24.9930   25.0800    3.4610 C.2   202  TRP202      0.2264
    143  O         25.9400   25.0760    2.6790 O.2   202  TRP202     -0.2867
    144  CB        25.0240   27.3840    4.3150 C.3   202  TRP202      0.0550
    145  CG        24.9020   28.3170    5.4530 C.ar  202  TRP202      0.0003
    146  CD1       25.8900   28.7430    6.2760 C.ar  202  TRP202      0.0946
    147  CD2       23.7070   28.9530    5.8930 C.ar  202  TRP202      0.0152
    148  NE1       25.3810   29.6120    7.2100 N.ar  202  TRP202     -0.2442
    149  CE2       24.0400   29.7480    7.0040 C.ar  202  TRP202      0.0810
    150  CE3       22.3810   28.9020    5.4780 C.ar  202  TRP202      0.0012
    151  CZ2       23.0970   30.5220    7.6840 C.ar  202  TRP202      0.0191
    152  CZ3       21.4430   29.6670    6.1650 C.ar  202  TRP202      0.0001
    153  CH2       21.8090   30.4500    7.2580 C.ar  202  TRP202      0.0015
@<TRIPOS>BOND
     1    71    70    1
     2    88    86    1
     3    70    72    1
     4    70    69    1
     5    86    85    1
     6   125   123   ar
     7   125   127   ar
     8   143   142    2
     9    69    66    1
    10   120   119    2
    11   123   122   ar
    12   127   126   ar
    13   142   141    1
    14    85    87    1
    15    85    82    1
    16   119   118    1
    17    50    49    2
    18    84    83    2
    19    66    65    1
    20    66    67    1
    21    65    58   am
    22    83    82    1
    23   144   141    1
    24   144   145    1
    25   122   121    1
    26   122   124   ar
    27    82    81    1
    28    47    48    1
    29   126   124   ar
    30   141   140    1
    31    81    75   am
    32    49    56   am
    33    49    48    1
    34   118   121    1
    35   118   117    1
    36    57    58    1
    37    57    56    1
    38    57    60    1
    39    67    73   am
    40    67    68    2
    41    61    62    1
    42    61    60    1
    43    73    74    1
    44    58    59    2
    45    12    13    1
    46    63    62    2
    47   145   147   ar
    48   145   146   ar
    49   150   147   ar
    50   150   152   ar
    51    62    64   am
    52    48    51    1
    53    52    51    1
    54    52    53    1
    55   147   149   ar
    56    13    14    1
    57    13    16    1
    58    75    74    1
    59    75    76    2
    60    74    77    1
    61   152   153   ar
    62    17    16    1
    63    17    18    1
    64   146   148   ar
    65    55    53   am
    66    14    15    2
    67    53    54    2
    68    79    78    2
    69   149   148   ar
    70   149   151   ar
    71    18    20   am
    72    18    19    2
    73   153   151   ar
    74   128   129    1
    75    89    90    1
    76    77    78    1
    77    78    80   am
    78   129   132    1
    79   129   130    1
    80    90    93    1
    81    90    91    1
    82    93    94    1
    83   115   114    2
    84    42    41    2
    85    21    22    1
    86    25    22    1
    87    25    26    1
    88    95    94    1
    89    95    96    1
    90    28    26   ar
    91    28    30   ar
    92   114   113    1
    93    22    23    1
    94   130   131    2
    95    41    40    1
    96    91    92    2
    97    26    27   ar
    98    30    31   ar
    99    96    97    1
   100   116   113    1
   101   113   112    1
   102    23    24    2
   103     4     3    2
   104    45    43    1
   105     9     7   ar
   106     9    11   ar
   107    43    40    1
   108    43    44    1
   109    40    39    1
   110    27    29   ar
   111     7     6   ar
   112    31    29   ar
   113    31    32    1
   114   139   137    1
   115     3     2    1
   116    11    10   ar
   117    44    46    1
   118     6     5    1
   119     6     8   ar
   120   133   134    1
   121     5     2    1
   122   104   102    1
   123   137   134    1
   124   137   138    1
   125   134   135    1
   126     2     1    1
   127    98    99    1
   128    10     8   ar
   129    99   102    1
   130    99   100    1
   131   108   107    2
   132   102   103    1
   133    36    35    2
   134   135   136    2
   135   107   106    1
   136    35    34    1
   137   111   109    1
   138   100   101    2
   139   109   106    1
   140   109   110    1
   141   106   105    1
   142    34    37    1
   143    34    33    1
   144    37    38    1
