@<TRIPOS>MOLECULE
tmp/5ldvA01.pdb
 73 71 0 0 0
SMALL
GASTEIGER

@<TRIPOS>ATOM
      1  N         41.8050   39.8050   18.8860 N.3   227  TRP227     -0.1227
      2  CA        41.9700   39.4760   17.4940 C.3   227  TRP227      0.1737
      3  C         40.8910   38.5270   17.0300 C.2   227  TRP227      0.2596
      4  O         40.2260   37.8810   17.8410 O.2   227  TRP227     -0.2718
      5  CB        43.3840   38.9380   17.2170 C.3   227  TRP227      0.0564
      6  CG        43.7990   37.7380   17.9990 C.ar  227  TRP227      0.0003
      7  CD1       44.4500   37.7230   19.2140 C.ar  227  TRP227      0.0946
      8  CD2       43.6270   36.3700   17.6210 C.ar  227  TRP227      0.0152
      9  NE1       44.6830   36.4270   19.6040 N.ar  227  TRP227     -0.2442
     10  CE2       44.1870   35.5780   18.6480 C.ar  227  TRP227      0.0810
     11  CE3       43.0480   35.7340   16.5120 C.ar  227  TRP227      0.0012
     12  CZ2       44.1830   34.1820   18.5990 C.ar  227  TRP227      0.0191
     13  CZ3       43.0500   34.3400   16.4630 C.ar  227  TRP227      0.0001
     14  CH2       43.6080   33.5850   17.5010 C.ar  227  TRP227      0.0015
     15  N         40.7010   38.5070   15.7130 N.am  228  THR228     -0.1939
     16  CA        39.7490   37.6350   15.0570 C.3   228  THR228      0.2028
     17  C         40.4250   36.9850   13.8540 C.2   228  THR228      0.2642
     18  O         41.3180   37.5800   13.2430 O.2   228  THR228     -0.2714
     19  CB        38.5220   38.4190   14.5420 C.3   228  THR228      0.1808
     20  OG1       38.8930   39.1850   13.3900 O.3   228  THR228     -0.2208
     21  CG2       37.9710   39.3590   15.6190 C.3   228  THR228      0.0379
     22  N         40.0070   35.7670   13.5360 N.am  229  LEU229     -0.1977
     23  CA        40.3990   35.0890   12.3090 C.3   229  LEU229      0.1596
     24  C         39.1590   34.4160   11.7300 C.2   229  LEU229      0.2287
     25  O         38.3930   33.7800   12.4560 O.2   229  LEU229     -0.2864
     26  CB        41.4550   34.0380   12.5840 C.3   229  LEU229      0.0297
     27  CG        42.1110   33.4270   11.3510 C.3   229  LEU229      0.0022
     28  CD1       42.9870   34.4640   10.6580 C.3   229  LEU229      0.0001
     29  CD2       42.9340   32.2150   11.7630 C.3   229  LEU229      0.0001
     30  N         41.9860   38.4640    8.8710 N.3   258  GLY258     -0.1210
     31  CA        42.4390   38.5910   10.2540 C.3   258  GLY258      0.1956
     32  C         42.2660   40.0300   10.7220 C.2   258  GLY258      0.2613
     33  O         42.4010   40.9770    9.9300 O.2   258  GLY258     -0.2717
     34  N         41.9510   40.2080   12.0030 N.am  259  SER259     -0.1938
     35  CA        41.8570   41.5560   12.5550 C.3   259  SER259      0.2055
     36  C         42.3620   41.6020   13.9780 C.2   259  SER259      0.2642
     37  O         42.4760   40.5780   14.6580 O.2   259  SER259     -0.2714
     38  CB        40.4410   42.1330   12.4480 C.3   259  SER259      0.2130
     39  OG        39.5640   41.4950   13.3280 O.3   259  SER259     -0.2179
     40  N         42.7290   42.8070   14.3760 N.am  260  ILE260     -0.1977
     41  CA        43.3290   43.0510   15.6690 C.3   260  ILE260      0.1596
     42  C         42.7960   44.3850   16.1700 C.2   260  ILE260      0.2287
     43  O         42.5270   45.2970   15.3760 O.2   260  ILE260     -0.2864
     44  CB        44.8780   43.0400   15.5900 C.3   260  ILE260      0.0276
     45  CG1       45.4910   42.9140   16.9870 C.3   260  ILE260      0.0022
     46  CG2       45.4030   44.2760   14.8750 C.3   260  ILE260      0.0022
     47  CD1       46.9840   42.6060   16.9950 C.3   260  ILE260      0.0001
     48  N         42.8720   47.1490   13.1310 N.3   267  ALA267     -0.1231
     49  CA        43.3520   46.9140   11.7910 C.3   267  ALA267      0.1694
     50  C         42.8260   45.5750   11.3480 C.2   267  ALA267      0.2593
     51  O         42.4550   44.7370   12.1860 O.2   267  ALA267     -0.2718
     52  CB        44.8830   46.9200   11.7500 C.3   267  ALA267      0.0304
     53  N         42.7640   45.3810   10.0360 N.am  268  SER268     -0.1938
     54  CA        42.4070   44.0940    9.5050 C.3   268  SER268      0.2055
     55  C         43.1480   43.8550    8.2090 C.2   268  SER268      0.2642
     56  O         43.5750   44.7890    7.5290 O.2   268  SER268     -0.2714
     57  CB        40.8790   43.9730    9.3190 C.3   268  SER268      0.2130
     58  OG        40.4830   44.5680    8.0920 O.3   268  SER268     -0.2179
     59  N         43.3180   42.5800    7.9010 N.am  269  LEU269     -0.1977
     60  CA        44.0120   42.1390    6.7150 C.3   269  LEU269      0.1596
     61  C         43.2590   40.9260    6.1760 C.2   269  LEU269      0.2287
     62  O         42.9700   39.9860    6.9200 O.2   269  LEU269     -0.2864
     63  CB        45.4470   41.7360    7.0690 C.3   269  LEU269      0.0297
     64  CG        46.2750   40.9910    6.0100 C.3   269  LEU269      0.0022
     65  CD1       46.6520   41.9040    4.8440 C.3   269  LEU269      0.0001
     66  CD2       47.5360   40.3900    6.6130 C.3   269  LEU269      0.0001
     67  N         43.5820   45.8800    3.3270 N.3   320  VAL320     -0.1245
     68  CA        43.9400   46.2140    4.6700 C.3   320  VAL320      0.1561
     69  C         43.0080   47.3270    5.1050 C.2   320  VAL320      0.2260
     70  O         42.5630   48.1450    4.2890 O.2   320  VAL320     -0.2867
     71  CB        45.4370   46.6100    4.7700 C.3   320  VAL320      0.0252
     72  CG1       45.7320   47.8220    3.9010 C.3   320  VAL320      0.0019
     73  CG2       45.8080   46.8930    6.2110 C.3   320  VAL320      0.0019
@<TRIPOS>BOND
     1    67    68    1
     2    72    71    1
     3    70    69    2
     4    68    71    1
     5    68    69    1
     6    71    73    1
     7    65    64    1
     8    64    66    1
     9    64    63    1
    10    61    60    1
    11    61    62    2
    12    60    63    1
    13    60    59    1
    14    56    55    2
    15    59    55   am
    16    58    57    1
    17    55    54    1
    18    30    31    1
    19    57    54    1
    20    54    53    1
    21    33    32    2
    22    53    50   am
    23    31    32    1
    24    28    27    1
    25    32    34   am
    26    50    49    1
    27    50    51    2
    28    27    29    1
    29    27    26    1
    30    24    23    1
    31    24    25    2
    32    52    49    1
    33    49    48    1
    34    34    35    1
    35    23    26    1
    36    23    22    1
    37    38    35    1
    38    38    39    1
    39    35    36    1
    40    18    17    2
    41    20    19    1
    42    22    17   am
    43    17    16    1
    44    36    40   am
    45    36    37    2
    46    40    41    1
    47    19    16    1
    48    19    21    1
    49    46    44    1
    50    16    15    1
    51    43    42    2
    52    44    41    1
    53    44    45    1
    54    41    42    1
    55    15     3   am
    56    13    11   ar
    57    13    14   ar
    58    11     8   ar
    59    45    47    1
    60     3     2    1
    61     3     4    2
    62     5     2    1
    63     5     6    1
    64     2     1    1
    65    14    12   ar
    66     8     6   ar
    67     8    10   ar
    68     6     7   ar
    69    12    10   ar
    70    10     9   ar
    71     7     9   ar
