@<TRIPOS>MOLECULE
tmp/5le1A00.pdb
 141 137 0 0 0
SMALL
GASTEIGER

@<TRIPOS>ATOM
      1  N        117.0490   77.1950    5.0750 N.3    32  PHE32      -0.1241
      2  CA       116.9480   75.8190    5.5380 C.3    32  PHE32       0.1605
      3  C        117.0390   74.9020    4.3260 C.2    32  PHE32       0.2264
      4  O        116.3090   75.0840    3.3460 O.2    32  PHE32      -0.2867
      5  CB       115.6210   75.6090    6.2860 C.3    32  PHE32       0.0534
      6  CG       115.3770   74.1860    6.7070 C.ar   32  PHE32      -0.0203
      7  CD1      116.2100   73.5680    7.6270 C.ar   32  PHE32      -0.0042
      8  CD2      114.3100   73.4740    6.1860 C.ar   32  PHE32      -0.0042
      9  CE1      115.9850   72.2490    8.0110 C.ar   32  PHE32      -0.0003
     10  CE2      114.0770   72.1550    6.5670 C.ar   32  PHE32      -0.0003
     11  CZ       114.9160   71.5460    7.4780 C.ar   32  PHE32      -0.0000
     12  N        112.2390   78.6810    3.7820 N.3    37  TYR37      -0.1241
     13  CA       110.9670   78.0850    4.1530 C.3    37  TYR37       0.1605
     14  C        110.2010   79.0190    5.0750 C.2    37  TYR37       0.2264
     15  O        110.8080   79.7250    5.8880 O.2    37  TYR37      -0.2867
     16  CB       111.1720   76.7620    4.9040 C.3    37  TYR37       0.0534
     17  CG       111.4930   75.5910    4.0190 C.ar   37  TYR37      -0.0201
     18  CD1      112.7870   75.3340    3.6210 C.ar   37  TYR37      -0.0009
     19  CD2      110.4840   74.7490    3.5690 C.ar   37  TYR37      -0.0009
     20  CE1      113.0790   74.2550    2.8160 C.ar   37  TYR37       0.0417
     21  CE2      110.7490   73.6750    2.7570 C.ar   37  TYR37       0.0417
     22  CZ       112.0430   73.4360    2.3720 C.ar   37  TYR37       0.1957
     23  OH       112.3110   72.3480    1.5610 O.3    37  TYR37      -0.2866
     24  N        111.7600   81.1910   14.6690 N.3    57  TRP57      -0.1241
     25  CA       112.8510   80.4860   14.0020 C.3    57  TRP57       0.1605
     26  C        114.1010   81.3460   13.9670 C.2    57  TRP57       0.2264
     27  O        114.5810   81.7620   12.9030 O.2    57  TRP57      -0.2867
     28  CB       112.4460   79.9910   12.6180 C.3    57  TRP57       0.0550
     29  CG       113.3260   78.9340   12.0310 C.ar   57  TRP57       0.0003
     30  CD1      114.5270   78.4690   12.4880 C.ar   57  TRP57       0.0946
     31  CD2      113.0520   78.1990   10.8400 C.ar   57  TRP57       0.0152
     32  NE1      115.0260   77.4850   11.6530 N.ar   57  TRP57      -0.2442
     33  CE2      114.1210   77.3080   10.6360 C.ar   57  TRP57       0.0810
     34  CE3      111.9900   78.2110    9.9360 C.ar   57  TRP57       0.0012
     35  CZ2      114.1700   76.4510    9.5370 C.ar   57  TRP57       0.0191
     36  CZ3      112.0360   77.3590    8.8520 C.ar   57  TRP57       0.0001
     37  CH2      113.1120   76.4880    8.6700 C.ar   57  TRP57       0.0015
     38  N        112.8550   71.4690   17.8330 N.3    86  HIS86      -0.1226
     39  CA       113.5640   71.9640   16.6580 C.3    86  HIS86       0.1752
     40  C        113.7070   73.4870   16.6940 C.2    86  HIS86       0.2596
     41  O        112.9870   74.1950   17.4010 O.2    86  HIS86      -0.2718
     42  CB       112.8420   71.5430   15.3810 C.3    86  HIS86       0.0759
     43  CG       112.9460   70.0820   15.0850 C.ar   86  HIS86       0.0818
     44  ND1      112.0800   69.4280   14.2320 N.ar   86  HIS86      -0.2268
     45  CD2      113.8260   69.1490   15.5210 C.ar   86  HIS86       0.1154
     46  CE1      112.4280   68.1560   14.1530 C.ar   86  HIS86       0.1986
     47  NE2      113.4830   67.9590   14.9260 N.ar   86  HIS86      -0.2212
     48  N        114.6450   73.9950   15.9040 N.am   87  ASP87      -0.1960
     49  CA       115.0250   75.4010   16.0110 C.3    87  ASP87       0.1840
     50  C        113.9430   76.3610   15.5250 C.2    87  ASP87       0.2622
     51  O        113.9680   77.5410   15.9000 O.2    87  ASP87      -0.2715
     52  CB       116.3490   75.6600   15.3010 C.3    87  ASP87       0.1450
     53  CG       117.1690   76.7090   15.9950 C.2    87  ASP87       0.3671
     54  OD1      117.1370   76.7530   17.2510 O.co2  87  ASP87      -0.2456
     55  OD2      117.8410   77.4730   15.2780 O.co2  87  ASP87      -0.2456
     56  N        112.9880   75.8870   14.7120 N.am   88  ASP88      -0.1971
     57  CA       111.8660   76.7370   14.3300 C.3    88  ASP88       0.1709
     58  C        110.8960   76.9490   15.4760 C.2    88  ASP88       0.2293
     59  O        110.0110   77.8010   15.3600 O.2    88  ASP88      -0.2864
     60  CB       111.1390   76.2200   13.0620 C.3    88  ASP88       0.1436
     61  CG       110.6460   74.7710   13.1640 C.2    88  ASP88       0.3671
     62  OD1      111.3640   73.9140   13.7370 O.co2  88  ASP88      -0.2456
     63  OD2      109.5910   74.4270   12.5440 O.co2  88  ASP88      -0.2456
     64  N        120.5720   68.6530   20.7730 N.3   116  GLU116     -0.1245
     65  CA       120.6290   69.1330   19.3920 C.3   116  GLU116      0.1567
     66  C        121.4800   70.3780   19.2430 C.2   116  GLU116      0.2260
     67  O        121.8470   70.7270   18.1120 O.2   116  GLU116     -0.2867
     68  CB       119.2020   69.4280   18.9120 C.3   116  GLU116      0.0388
     69  CG       119.0510   69.6880   17.4120 C.3   116  GLU116      0.1160
     70  CD       119.1400   68.4290   16.5760 C.2   116  GLU116      0.3649
     71  OE1      119.0240   67.3110   17.1360 O.co2 116  GLU116     -0.2457
     72  OE2      119.3370   68.5580   15.3470 O.co2 116  GLU116     -0.2457
     73  N        105.6330   64.0530   14.1630 N.3   149  HIS149     -0.1241
     74  CA       106.7740   64.6960   13.5140 C.3   149  HIS149      0.1621
     75  C        108.0170   64.5780   14.3880 C.2   149  HIS149      0.2264
     76  O        109.1400   64.4190   13.8840 O.2   149  HIS149     -0.2867
     77  CB       106.4080   66.1630   13.2650 C.3   149  HIS149      0.0745
     78  CG       107.5680   67.0730   12.9820 C.ar  149  HIS149      0.0817
     79  ND1      108.1300   67.1960   11.7320 N.ar  149  HIS149     -0.2268
     80  CD2      108.2380   67.9370   13.7810 C.ar  149  HIS149      0.1154
     81  CE1      109.1070   68.0880   11.7750 C.ar  149  HIS149      0.1986
     82  NE2      109.1970   68.5510   13.0120 N.ar  149  HIS149     -0.2212
     83  N        104.0170   71.2320   13.9690 N.3   168  CYS168     -0.1235
     84  CA       104.6560   70.5130   12.8780 C.3   168  CYS168      0.1677
     85  C        104.1780   69.0750   12.7400 C.2   168  CYS168      0.2270
     86  O        104.5300   68.4190   11.7600 O.2   168  CYS168     -0.2867
     87  CB       106.1700   70.6440   13.0250 C.3   168  CYS168      0.0956
     88  SG       106.6420   72.4010   13.0070 S.3   168  CYS168     -0.0801
     89  N        100.5390   68.8460    8.5830 N.3   171  TYR171     -0.1241
     90  CA       100.9970   69.4190    7.3290 C.3   171  TYR171      0.1605
     91  C         99.8960   70.2440    6.6730 C.2   171  TYR171      0.2264
     92  O         98.7040   69.9270    6.7720 O.2   171  TYR171     -0.2867
     93  CB       101.3500   68.2820    6.3810 C.3   171  TYR171      0.0534
     94  CG       102.6510   67.5420    6.6370 C.ar  171  TYR171     -0.0201
     95  CD1      103.6910   68.1140    7.3500 C.ar  171  TYR171     -0.0009
     96  CD2      102.8430   66.2670    6.1320 C.ar  171  TYR171     -0.0009
     97  CE1      104.8920   67.4400    7.5340 C.ar  171  TYR171      0.0417
     98  CE2      104.0280   65.5900    6.3240 C.ar  171  TYR171      0.0417
     99  CZ       105.0510   66.1830    7.0160 C.ar  171  TYR171      0.1957
    100  OH       106.2420   65.5210    7.1710 O.3   171  TYR171     -0.2866
    101  N        101.3240   70.3310    0.9090 N.3   175  ARG175     -0.1245
    102  CA       102.4450   69.4220    1.1600 C.3   175  ARG175      0.1563
    103  C        101.9310   68.0010    0.9590 C.2   175  ARG175      0.2260
    104  O        101.2510   67.4490    1.8300 O.2   175  ARG175     -0.2867
    105  CB       102.9750   69.6260    2.5750 C.3   175  ARG175      0.0307
    106  CG       104.0730   68.6410    3.0110 C.3   175  ARG175      0.0489
    107  CD       105.3330   68.7930    2.1810 C.3   175  ARG175      0.2205
    108  NE       105.7470   70.1890    2.0940 N.pl3 175  ARG175     -0.0865
    109  CZ       106.5720   70.6650    1.1700 C.cat 175  ARG175      0.5346
    110  NH1      107.0740   69.8580    0.2390 N.pl3 175  ARG175      0.1354
    111  NH2      106.8920   71.9560    1.1810 N.pl3 175  ARG175      0.1354
    112  N        107.9120   65.3620    4.6520 N.3   179  GLY179     -0.1210
    113  CA       109.1190   66.1560    4.7420 C.3   179  GLY179      0.1956
    114  C        110.1760   65.5010    5.6040 C.2   179  GLY179      0.2611
    115  O        110.5220   64.3260    5.4170 O.2   179  GLY179     -0.2717
    116  N        110.6880   66.2570    6.5700 N.am  180  ASN180     -0.1974
    117  CA       111.7240   65.7530    7.4610 C.3   180  ASN180      0.1688
    118  C        111.1190   64.7050    8.3890 C.2   180  ASN180      0.2292
    119  O        110.2710   65.0200    9.2310 O.2   180  ASN180     -0.2864
    120  CB       112.2940   66.9250    8.2560 C.3   180  ASN180      0.1181
    121  CG       113.2820   66.4830    9.3280 C.2   180  ASN180      0.2629
    122  OD1      113.9120   65.4290    9.2060 O.2   180  ASN180     -0.2716
    123  ND2      113.4130   67.2820   10.3860 N.am  180  ASN180     -0.0877
    124  N        113.3690   62.7210   12.7640 N.3   183  ASP183     -0.1239
    125  CA       113.0160   62.6590   14.1740 C.3   183  ASP183      0.1674
    126  C        111.5980   62.1380   14.3880 C.2   183  ASP183      0.2266
    127  O        111.1080   62.1330   15.5210 O.2   183  ASP183     -0.2867
    128  CB       113.2180   64.0300   14.8270 C.3   183  ASP183      0.1410
    129  CG       114.6740   64.4520   14.8130 C.2   183  ASP183      0.3668
    130  OD1      115.5440   63.5620   14.8370 O.co2 183  ASP183     -0.2456
    131  OD2      114.9790   65.6600   14.7370 O.co2 183  ASP183     -0.2456
    132  N        103.9970   74.8440    9.2980 N.3   210  HIS210     -0.1241
    133  CA       104.5090   75.5150    8.1130 C.3   210  HIS210      0.1621
    134  C        103.4070   75.5800    7.0680 C.2   210  HIS210      0.2264
    135  O        102.8360   74.5410    6.7160 O.2   210  HIS210     -0.2867
    136  CB       105.7150   74.7470    7.5490 C.3   210  HIS210      0.0745
    137  CG       106.7790   74.4910    8.5660 C.ar  210  HIS210      0.0817
    138  ND1      107.7810   75.3930    8.8330 N.ar  210  HIS210     -0.2268
    139  CD2      106.9750   73.4470    9.4090 C.ar  210  HIS210      0.1154
    140  CE1      108.5640   74.9120    9.7850 C.ar  210  HIS210      0.1986
    141  NE2      108.0860   73.7450   10.1740 N.ar  210  HIS210     -0.2212
@<TRIPOS>BOND
     1   110   109    1
     2   101   102    1
     3   103   102    1
     4   103   104    2
     5   102   105    1
     6   109   111    1
     7   109   108    2
     8    23    22    1
     9   108   107    1
    10   107   106    1
    11    22    21   ar
    12    22    20   ar
    13   105   106    1
    14    21    19   ar
    15    20    18   ar
    16     4     3    2
    17    19    17   ar
    18    18    17   ar
    19    12    13    1
    20    17    16    1
    21    13    16    1
    22    13    14    1
    23     3     2    1
    24   112   113    1
    25   113   114    1
    26     1     2    1
    27    14    15    2
    28   115   114    2
    29     2     5    1
    30   114   116   am
    31    96    98   ar
    32    96    94   ar
    33     8    10   ar
    34     8     6   ar
    35     5     6    1
    36    98    99   ar
    37    93    94    1
    38    93    90    1
    39    10    11   ar
    40   116   117    1
    41    94    95   ar
    42    91    92    2
    43    91    90    1
    44     6     7   ar
    45   135   134    2
    46    99   100    1
    47    99    97   ar
    48   134   133    1
    49    90    89    1
    50    95    97   ar
    51   117   120    1
    52   117   118    1
    53    11     9   ar
    54   136   133    1
    55   136   137    1
    56     7     9   ar
    57   133   132    1
    58   120   121    1
    59   118   119    2
    60   137   138   ar
    61   137   139   ar
    62    37    36   ar
    63    37    35   ar
    64   138   140   ar
    65    36    34   ar
    66   122   121    2
    67   121   123   am
    68   139   141   ar
    69    35    33   ar
    70   140   141   ar
    71    34    31   ar
    72    33    31   ar
    73    33    32   ar
    74    31    29   ar
    75    32    30   ar
    76    79    81   ar
    77    79    78   ar
    78    86    85    2
    79    81    82   ar
    80    29    30   ar
    81    29    28    1
    82    63    61   ar
    83    28    25    1
    84    85    84    1
    85   124   125    1
    86    84    87    1
    87    84    83    1
    88    27    26    2
    89    78    77    1
    90    78    80   ar
    91    88    87    1
    92    82    80   ar
    93    60    61    1
    94    60    57    1
    95    61    62   ar
    96    77    74    1
    97    74    73    1
    98    74    75    1
    99    76    75    2
   100    26    25    1
   101    25    24    1
   102    46    44   ar
   103    46    47   ar
   104   125   126    1
   105   125   128    1
   106    44    43   ar
   107    57    56    1
   108    57    58    1
   109   126   127    2
   110    56    50   am
   111   131   129   ar
   112   129   128    1
   113   129   130   ar
   114    47    45   ar
   115    43    42    1
   116    43    45   ar
   117    55    53   ar
   118    52    53    1
   119    52    49    1
   120    72    70   ar
   121    59    58    2
   122    42    39    1
   123    50    51    2
   124    50    49    1
   125    48    49    1
   126    48    40   am
   127    53    54   ar
   128    70    71   ar
   129    70    69    1
   130    39    40    1
   131    39    38    1
   132    40    41    2
   133    69    68    1
   134    67    66    2
   135    68    65    1
   136    66    65    1
   137    65    64    1
