@<TRIPOS>MOLECULE
tmp/5lefA00.pdb
 187 182 0 0 0
SMALL
GASTEIGER

@<TRIPOS>ATOM
      1  N         50.0840   13.3070    9.6490 N.3    12  GLN12      -0.1231
      2  CA        50.3250   14.3930    8.7160 C.3    12  GLN12       0.1698
      3  C         51.2620   14.0010    7.5760 C.2    12  GLN12       0.2593
      4  O         52.2800   13.3440    7.7920 O.2    12  GLN12      -0.2718
      5  CB        50.9090   15.5970    9.4670 C.3    12  GLN12       0.0381
      6  CG        51.0950   16.8310    8.6170 C.3    12  GLN12       0.0905
      7  CD        51.6210   18.0150    9.4150 C.2    12  GLN12       0.2608
      8  OE1       51.9760   17.8830   10.5870 O.2    12  GLN12      -0.2717
      9  NE2       51.6680   19.1780    8.7820 N.am   12  GLN12      -0.0878
     10  N         50.8800   14.4000    6.3650 N.am   13  SER13      -0.1938
     11  CA        51.7450   14.3020    5.1920 C.3    13  SER13       0.2055
     12  C         52.0370   12.8630    4.7560 C.2    13  SER13       0.2643
     13  O         53.0810   12.5970    4.1600 O.2    13  SER13      -0.2714
     14  CB        53.0650   15.0310    5.4630 C.3    13  SER13       0.2130
     15  OG        53.7340   15.3420    4.2550 O.3    13  SER13      -0.2179
     16  N         51.1200   11.9390    5.0360 N.am   14  VAL14      -0.1963
     17  CA        51.3020   10.5560    4.5980 C.3    14  VAL14       0.1727
     18  C         50.8130   10.3610    3.1610 C.2    14  VAL14       0.2617
     19  O         51.2370    9.4230    2.4820 O.2    14  VAL14      -0.2715
     20  CB        50.5690    9.5460    5.5140 C.3    14  VAL14       0.0290
     21  CG1       51.2100    9.5180    6.8960 C.3    14  VAL14       0.0023
     22  CG2       49.0760    9.8560    5.5960 C.3    14  VAL14       0.0023
     23  N         49.9170   11.2390    2.7090 N.am   15  GLY15      -0.1940
     24  CA        49.4530   11.2290    1.3310 C.3    15  GLY15       0.2014
     25  C         47.9600   11.0000    1.1480 C.2    15  GLY15       0.2639
     26  O         47.5270   10.5850    0.0720 O.2    15  GLY15      -0.2714
     27  N         47.1710   11.2710    2.1850 N.am   16  LYS16      -0.1963
     28  CA        45.7190   11.1050    2.1090 C.3    16  LYS16       0.1728
     29  C         45.1260   11.9050    0.9480 C.2    16  LYS16       0.2617
     30  O         44.3910   11.3720    0.1130 O.2    16  LYS16      -0.2715
     31  CB        45.0600   11.5340    3.4230 C.3    16  LYS16       0.0311
     32  CG        45.5520   10.7670    4.6450 C.3    16  LYS16       0.0038
     33  CD        44.8700   11.2230    5.9410 C.3    16  LYS16       0.0206
     34  CE        45.2480   12.6410    6.3420 C.3    16  LYS16       0.1093
     35  NZ        46.6920   12.8030    6.6530 N.3    16  LYS16      -0.1314
     36  N         45.4600   13.1890    0.9000 N.am   17  THR17      -0.1937
     37  CA        44.9270   14.0860   -0.1190 C.3    17  THR17       0.2028
     38  C         45.4240   13.7150   -1.5190 C.2    17  THR17       0.2642
     39  O         44.6660   13.7550   -2.4880 O.2    17  THR17      -0.2714
     40  CB        45.3030   15.5380    0.2010 C.3    17  THR17       0.1808
     41  OG1       44.7750   15.8820    1.4890 O.3    17  THR17      -0.2208
     42  CG2       44.7520   16.5060   -0.8550 C.3    17  THR17       0.0379
     43  N         46.6970   13.3460   -1.6190 N.am   18  SER18      -0.1949
     44  CA        47.2850   12.9630   -2.8980 C.3    18  SER18       0.1924
     45  C         46.6420   11.7030   -3.4830 C.2    18  SER18       0.2314
     46  O         46.4940   11.5810   -4.7010 O.2    18  SER18      -0.2863
     47  CB        48.7890   12.7520   -2.7430 C.3    18  SER18       0.2116
     48  OG        49.4470   13.9790   -2.4660 O.3    18  SER18      -0.2180
     49  N         49.0120   14.6600   -9.7950 N.3    28  PHE28      -0.1227
     50  CA        49.7930   14.6760   -8.5710 C.3    28  PHE28       0.1736
     51  C         50.5400   15.9930   -8.4560 C.2    28  PHE28       0.2595
     52  O         50.9380   16.5750   -9.4620 O.2    28  PHE28      -0.2718
     53  CB        50.7740   13.5060   -8.5410 C.3    28  PHE28       0.0547
     54  CG        51.7120   13.5320   -7.3700 C.ar   28  PHE28      -0.0202
     55  CD1       51.3270   13.0150   -6.1400 C.ar   28  PHE28      -0.0042
     56  CD2       52.9820   14.0730   -7.4970 C.ar   28  PHE28      -0.0042
     57  CE1       52.1910   13.0380   -5.0590 C.ar   28  PHE28      -0.0003
     58  CE2       53.8530   14.1010   -6.4200 C.ar   28  PHE28      -0.0003
     59  CZ        53.4570   13.5820   -5.2010 C.ar   28  PHE28      -0.0000
     60  N         50.7240   16.4550   -7.2240 N.am   29  ASP29      -0.1960
     61  CA        51.4360   17.6990   -6.9580 C.3    29  ASP29       0.1840
     62  C         52.4370   17.4930   -5.8280 C.2    29  ASP29       0.2622
     63  O         52.0570   17.1420   -4.7110 O.2    29  ASP29      -0.2715
     64  CB        50.4470   18.8130   -6.6090 C.3    29  ASP29       0.1450
     65  CG        51.1250   20.1580   -6.3840 C.2    29  ASP29       0.3671
     66  OD1       52.2960   20.3220   -6.7870 O.co2  29  ASP29      -0.2456
     67  OD2       50.4770   21.0590   -5.8100 O.co2  29  ASP29      -0.2456
     68  N         53.7170   17.7040   -6.1280 N.am   30  ASN30      -0.1958
     69  CA        54.7760   17.5610   -5.1320 C.3    30  ASN30       0.1819
     70  C         54.6520   18.5900   -4.0160 C.2    30  ASN30       0.2622
     71  O         55.0510   18.3360   -2.8790 O.2    30  ASN30      -0.2715
     72  CB        56.1550   17.6900   -5.7850 C.3    30  ASN30       0.1195
     73  CG        56.5150   16.4880   -6.6340 C.2    30  ASN30       0.2630
     74  OD1       56.9500   15.4560   -6.1190 O.2    30  ASN30      -0.2716
     75  ND2       56.3480   16.6180   -7.9460 N.am   30  ASN30      -0.0877
     76  N         54.1020   19.7550   -4.3420 N.am   31  THR31      -0.1937
     77  CA        53.9960   20.8350   -3.3690 C.3    31  THR31       0.2028
     78  C         53.0030   20.4680   -2.2760 C.2    31  THR31       0.2642
     79  O         51.8500   20.1450   -2.5510 O.2    31  THR31      -0.2714
     80  CB        53.5700   22.1570   -4.0320 C.3    31  THR31       0.1808
     81  OG1       54.4670   22.4620   -5.1060 O.3    31  THR31      -0.2208
     82  CG2       53.5870   23.2980   -3.0210 C.3    31  THR31       0.0379
     83  N         53.4670   20.5220   -1.0330 N.am   32  TYR32      -0.1959
     84  CA        52.6510   20.1430    0.1120 C.3    32  TYR32       0.1771
     85  C         51.6840   21.2500    0.5100 C.2    32  TYR32       0.2619
     86  O         52.0970   22.3700    0.7990 O.2    32  TYR32      -0.2715
     87  CB        53.5450   19.7870    1.3000 C.3    32  TYR32       0.0574
     88  CG        52.7910   19.4570    2.5690 C.ar   32  TYR32      -0.0198
     89  CD1       51.6670   18.6440    2.5400 C.ar   32  TYR32      -0.0009
     90  CD2       53.2120   19.9470    3.7980 C.ar   32  TYR32      -0.0009
     91  CE1       50.9780   18.3330    3.6960 C.ar   32  TYR32       0.0417
     92  CE2       52.5300   19.6410    4.9610 C.ar   32  TYR32       0.0417
     93  CZ        51.4140   18.8330    4.9040 C.ar   32  TYR32       0.1957
     94  OH        50.7320   18.5260    6.0590 O.3    32  TYR32      -0.2866
     95  N         50.3960   20.9220    0.5120 N.am   33  GLN33      -0.1963
     96  CA        49.3690   21.7990    1.0620 C.3    33  GLN33       0.1733
     97  C         48.5830   21.0340    2.1150 C.2    33  GLN33       0.2616
     98  O         47.7330   20.2010    1.7910 O.2    33  GLN33      -0.2715
     99  CB        48.4440   22.3220   -0.0370 C.3    33  GLN33       0.0408
    100  CG        48.9260   23.6170   -0.6700 C.3    33  GLN33       0.0908
    101  CD        48.1720   23.9680   -1.9370 C.2    33  GLN33       0.2608
    102  OE1       48.6160   23.6570   -3.0420 O.2    33  GLN33      -0.2717
    103  NE2       47.0260   24.6230   -1.7830 N.am   33  GLN33      -0.0878
    104  N         48.8890   21.3160    3.3770 N.am   34  ALA34      -0.1963
    105  CA        48.2730   20.6230    4.4970 C.3    34  ALA34       0.1728
    106  C         46.7640   20.8080    4.4910 C.2    34  ALA34       0.2616
    107  O         46.2630   21.9060    4.2480 O.2    34  ALA34      -0.2715
    108  CB        48.8560   21.1170    5.8080 C.3    34  ALA34       0.0334
    109  N         46.0420   19.7230    4.7500 N.am   35  THR35      -0.1951
    110  CA        44.5950   19.7920    4.8630 C.3    35  THR35       0.1897
    111  C         44.2290   20.5250    6.1450 C.2    35  THR35       0.2313
    112  O         44.7490   20.2250    7.2180 O.2    35  THR35      -0.2863
    113  CB        43.9540   18.3970    4.8530 C.3    35  THR35       0.1794
    114  OG1       44.2430   17.7570    3.6050 O.3    35  THR35      -0.2208
    115  CG2       42.4400   18.4870    5.0300 C.3    35  THR35       0.0378
    116  N         40.4000   14.0740    5.9580 N.3    59  THR59      -0.1218
    117  CA        40.7190   14.7200    7.2310 C.3    59  THR59       0.1862
    118  C         42.1820   15.1460    7.3180 C.2    59  THR59       0.2287
    119  O         43.0270   14.6690    6.5620 O.2    59  THR59      -0.2866
    120  CB        40.4120   13.7990    8.4360 C.3    59  THR59       0.1770
    121  OG1       41.3650   12.7290    8.4950 O.3    59  THR59      -0.2211
    122  CG2       39.0080   13.2260    8.3390 C.3    59  THR59       0.0375
    123  N         45.9220   15.5990    9.1900 N.3    61  GLY61      -0.1210
    124  CA        46.8210   14.8940   10.0860 C.3    61  GLY61       0.1956
    125  C         47.2950   15.7750   11.2290 C.2    61  GLY61       0.2611
    126  O         47.7240   15.2720   12.2690 O.2    61  GLY61      -0.2717
    127  N         47.2230   17.0910   11.0350 N.am   62  LEU62      -0.1979
    128  CA        47.6230   18.0500   12.0670 C.3    62  LEU62       0.1596
    129  C         46.8950   17.7820   13.3810 C.2    62  LEU62       0.2287
    130  O         45.6720   17.6420   13.4080 O.2    62  LEU62      -0.2864
    131  CB        47.3560   19.4820   11.5990 C.3    62  LEU62       0.0297
    132  CG        48.3610   20.0520   10.5950 C.3    62  LEU62       0.0022
    133  CD1       47.7570   21.2230    9.8300 C.3    62  LEU62       0.0001
    134  CD2       49.6340   20.4840   11.3060 C.3    62  LEU62       0.0001
    135  N         51.5280    4.0860    1.7020 N.3   116  ASN116     -0.1225
    136  CA        51.7300    4.9790    0.5620 C.3   116  ASN116      0.1785
    137  C         53.1970    5.3880    0.3720 C.2   116  ASN116      0.2597
    138  O         54.0100    5.2550    1.2880 O.2   116  ASN116     -0.2718
    139  CB        50.8580    6.2260    0.7280 C.3   116  ASN116      0.1169
    140  CG        50.8250    7.0880   -0.5190 C.2   116  ASN116      0.2627
    141  OD1       50.6950    6.5830   -1.6390 O.2   116  ASN116     -0.2716
    142  ND2       50.9480    8.3950   -0.3350 N.am  116  ASN116     -0.0877
    143  N         53.5040    5.8710   -0.8340 N.am  117  LYS117     -0.1980
    144  CA        54.8240    6.3840   -1.2390 C.3   117  LYS117      0.1596
    145  C         55.8300    5.2800   -1.5720 C.2   117  LYS117      0.2287
    146  O         57.0180    5.4060   -1.2690 O.2   117  LYS117     -0.2864
    147  CB        55.4210    7.3020   -0.1630 C.3   117  LYS117      0.0298
    148  CG        54.4930    8.4150    0.3110 C.3   117  LYS117      0.0038
    149  CD        55.2840    9.5690    0.9260 C.3   117  LYS117      0.0206
    150  CE        54.3560   10.5890    1.5730 C.3   117  LYS117      0.1093
    151  NZ        55.0960   11.6840    2.2520 N.3   117  LYS117     -0.1314
    152  N         57.1530    4.6510   -4.2420 N.3   119  ASP119     -0.1225
    153  CA        58.1400    5.1610   -5.1960 C.3   119  ASP119      0.1805
    154  C         59.4210    5.6350   -4.5070 C.2   119  ASP119      0.2597
    155  O         60.4740    5.7130   -5.1300 O.2   119  ASP119     -0.2718
    156  CB        57.5340    6.3090   -6.0030 C.3   119  ASP119      0.1424
    157  CG        57.0890    7.4530   -5.1240 C.2   119  ASP119      0.3668
    158  OD1       56.0310    7.3200   -4.4710 O.co2 119  ASP119     -0.2456
    159  OD2       57.7980    8.4790   -5.0800 O.co2 119  ASP119     -0.2456
    160  N         59.3280    5.9510   -3.2190 N.am  120  LEU120     -0.1979
    161  CA        60.4910    6.3790   -2.4460 C.3   120  LEU120      0.1596
    162  C         61.2150    5.1610   -1.8960 C.2   120  LEU120      0.2287
    163  O         61.3920    5.0210   -0.6860 O.2   120  LEU120     -0.2864
    164  CB        60.0680    7.3090   -1.3100 C.3   120  LEU120      0.0297
    165  CG        59.3590    8.5940   -1.7450 C.3   120  LEU120      0.0022
    166  CD1       58.9450    9.4200   -0.5310 C.3   120  LEU120      0.0001
    167  CD2       60.2400    9.4220   -2.6750 C.3   120  LEU120      0.0001
    168  N         51.4010    4.2680   -4.6280 N.3   146  SER146     -0.1202
    169  CA        52.1370    5.5010   -4.8480 C.3   146  SER146      0.2020
    170  C         51.2140    6.4790   -5.5520 C.2   146  SER146      0.2619
    171  O         50.8940    6.3050   -6.7280 O.2   146  SER146     -0.2717
    172  CB        53.3980    5.2710   -5.6740 C.3   146  SER146      0.2103
    173  OG        54.0000    6.5120   -6.0110 O.3   146  SER146     -0.2182
    174  N         50.7640    7.4930   -4.8210 N.am  147  ALA147     -0.1965
    175  CA        49.9630    8.5490   -5.4160 C.3   147  ALA147      0.1728
    176  C         50.7720    9.2390   -6.5080 C.2   147  ALA147      0.2616
    177  O         50.2320    9.6280   -7.5390 O.2   147  ALA147     -0.2715
    178  CB        49.5170    9.5480   -4.3570 C.3   147  ALA147      0.0334
    179  N         52.0770    9.3620   -6.2850 N.am  148  LYS148     -0.1977
    180  CA        52.9450   10.0450   -7.2370 C.3   148  LYS148      0.1596
    181  C         53.0650    9.2720   -8.5460 C.2   148  LYS148      0.2287
    182  O         52.9180    9.8450   -9.6270 O.2   148  LYS148     -0.2864
    183  CB        54.3360   10.2700   -6.6410 C.3   148  LYS148      0.0298
    184  CG        55.3060   10.9220   -7.6250 C.3   148  LYS148      0.0038
    185  CD        56.5690   11.4260   -6.9430 C.3   148  LYS148      0.0206
    186  CE        57.4850   12.1240   -7.9360 C.3   148  LYS148      0.1093
    187  NZ        58.6900   12.6970   -7.2790 N.3   148  LYS148     -0.1314
@<TRIPOS>BOND
     1    49    50    1
     2   182   181    2
     3    52    51    2
     4    50    53    1
     5    50    51    1
     6   181   180    1
     7    53    54    1
     8    51    60   am
     9    75    73   am
    10   186   187    1
    11   186   185    1
    12   184   185    1
    13   184   183    1
    14   177   176    2
    15    56    54   ar
    16    56    58   ar
    17    54    55   ar
    18   180   183    1
    19   180   179    1
    20    60    61    1
    21    61    64    1
    22    61    62    1
    23    66    65   ar
    24   171   170    2
    25    73    74    2
    26    73    72    1
    27    64    65    1
    28   176   179   am
    29   176   175    1
    30    58    59   ar
    31    65    67   ar
    32    55    57   ar
    33    68    62   am
    34    68    69    1
    35   173   172    1
    36   156   153    1
    37   156   157    1
    38    62    63    2
    39    72    69    1
    40   172   169    1
    41   170   169    1
    42   170   174   am
    43   175   174    1
    44   175   178    1
    45    59    57   ar
    46   153   154    1
    47   153   152    1
    48    69    70    1
    49   155   154    2
    50   157   159   ar
    51   157   158   ar
    52    81    80    1
    53   169   168    1
    54    46    45    2
    55   154   160   am
    56    76    70   am
    57    76    77    1
    58    80    77    1
    59    80    82    1
    60    70    71    2
    61    45    44    1
    62    77    78    1
    63   160   161    1
    64   102   101    2
    65    44    47    1
    66    44    43    1
    67    47    48    1
    68   167   165    1
    69    79    78    2
    70    39    38    2
    71   161   162    1
    72   161   164    1
    73    78    83   am
    74   101   103   am
    75   101   100    1
    76   162   163    2
    77   165   164    1
    78   165   166    1
    79   141   140    2
    80    43    38   am
    81   145   146    2
    82   145   144    1
    83    38    37    1
    84   144   143    1
    85   144   147    1
    86    83    84    1
    87    42    40    1
    88   143   137   am
    89   100    99    1
    90   140   142   am
    91   140   139    1
    92   147   148    1
    93    37    40    1
    94    37    36    1
    95    99    96    1
    96    26    25    2
    97    84    85    1
    98    84    87    1
    99    30    29    2
   100    40    41    1
   101   148   149    1
   102   137   136    1
   103   137   138    2
   104    85    95   am
   105    85    86    2
   106    95    96    1
   107   136   139    1
   108   136   135    1
   109    36    29   am
   110   149   150    1
   111    29    28    1
   112    96    97    1
   113    25    24    1
   114    25    27   am
   115    87    88    1
   116    24    23    1
   117   150   151    1
   118    98    97    2
   119    28    27    1
   120    28    31    1
   121    97   104   am
   122    19    18    2
   123    89    88   ar
   124    89    91   ar
   125    88    90   ar
   126    23    18   am
   127    18    17    1
   128   104   105    1
   129    31    32    1
   130   114   113    1
   131    91    93   ar
   132    90    92   ar
   133    13    12    2
   134   107   106    2
   135    15    14    1
   136   106   105    1
   137   106   109   am
   138   105   108    1
   139    17    16    1
   140    17    20    1
   141    32    33    1
   142   109   110    1
   143    12    16   am
   144    12    11    1
   145   113   110    1
   146   113   115    1
   147   110   111    1
   148    93    92   ar
   149    93    94    1
   150    11    14    1
   151    11    10    1
   152    20    22    1
   153    20    21    1
   154    33    34    1
   155   116   117    1
   156   111   112    2
   157    34    35    1
   158    10     3   am
   159   119   118    2
   160   117   118    1
   161   117   120    1
   162     3     4    2
   163     3     2    1
   164   122   120    1
   165   120   121    1
   166     6     7    1
   167     6     5    1
   168     2     5    1
   169     2     1    1
   170     9     7   am
   171   123   124    1
   172     7     8    2
   173   133   132    1
   174   124   125    1
   175   132   134    1
   176   132   131    1
   177   127   125   am
   178   127   128    1
   179   125   126    2
   180   131   128    1
   181   128   129    1
   182   129   130    2
