@<TRIPOS>MOLECULE
tmp/5legE00.pdb
 83 80 0 0 0
SMALL
GASTEIGER

@<TRIPOS>ATOM
      1  N         63.0910   88.4200  136.0310 N.3    36  TYR36      -0.1241
      2  CA        62.8550   88.5530  134.6010 C.3    36  TYR36       0.1605
      3  C         64.1590   88.7850  133.8550 C.2    36  TYR36       0.2264
      4  O         64.4390   88.1380  132.8420 O.2    36  TYR36      -0.2867
      5  CB        61.8850   89.6920  134.3370 C.3    36  TYR36       0.0534
      6  CG        61.7770   90.0060  132.8800 C.ar   36  TYR36      -0.0201
      7  CD1       61.1030   89.1560  132.0320 C.ar   36  TYR36      -0.0009
      8  CD2       62.3440   91.1510  132.3570 C.ar   36  TYR36      -0.0009
      9  CE1       61.0040   89.4260  130.7030 C.ar   36  TYR36       0.0417
     10  CE2       62.2480   91.4320  131.0240 C.ar   36  TYR36       0.0417
     11  CZ        61.5720   90.5630  130.2040 C.ar   36  TYR36       0.1957
     12  OH        61.4600   90.8150  128.8660 O.3    36  TYR36      -0.2866
     13  N         66.4720   85.9490  133.2990 N.3    39  THR39      -0.1203
     14  CA        65.8950   84.9020  132.4610 C.3    39  THR39       0.1994
     15  C         65.4020   85.4530  131.1330 C.2    39  THR39       0.2618
     16  O         65.8270   84.9760  130.0760 O.2    39  THR39      -0.2717
     17  CB        64.7560   84.1970  133.2060 C.3    39  THR39       0.1784
     18  OG1       63.7670   85.1590  133.5810 O.3    39  THR39      -0.2211
     19  CG2       65.2800   83.5130  134.4480 C.3    39  THR39       0.0376
     20  N         64.4960   86.4280  131.1600 N.am   40  LYS40      -0.1965
     21  CA        63.7620   86.9190  129.9930 C.3    40  LYS40       0.1728
     22  C         62.8650   85.8270  129.4080 C.2    40  LYS40       0.2616
     23  O         63.0670   85.3050  128.3140 O.2    40  LYS40      -0.2715
     24  CB        64.7010   87.5090  128.9370 C.3    40  LYS40       0.0311
     25  CG        65.2660   88.8460  129.3520 C.3    40  LYS40       0.0038
     26  CD        66.1860   89.4360  128.3130 C.3    40  LYS40       0.0206
     27  CE        66.6860   90.7850  128.7820 C.3    40  LYS40       0.1093
     28  NZ        67.6650   91.3730  127.8360 N.3    40  LYS40      -0.1314
     29  N         61.8670   85.4960  130.2180 N.am   41  ASN41      -0.1958
     30  CA        60.6090   84.9260  129.7740 C.3    41  ASN41       0.1819
     31  C         59.5030   85.7380  130.4210 C.2    41  ASN41       0.2621
     32  O         59.6800   86.2740  131.5150 O.2    41  ASN41      -0.2715
     33  CB        60.4600   83.4590  130.1670 C.3    41  ASN41       0.1195
     34  CG        60.4480   83.2610  131.6650 C.2    41  ASN41       0.2630
     35  OD1       60.9090   84.1160  132.4160 O.2    41  ASN41      -0.2716
     36  ND2       59.8960   82.1400  132.1090 N.am   41  ASN41      -0.0877
     37  N         58.3620   85.8560  129.7560 N.am   42  LEU42      -0.1963
     38  CA        57.2750   86.5650  130.4060 C.3    42  LEU42       0.1728
     39  C         56.1810   85.5680  130.7180 C.2    42  LEU42       0.2616
     40  O         55.2520   85.3830  129.9280 O.2    42  LEU42      -0.2715
     41  CB        56.7270   87.6540  129.4950 C.3    42  LEU42       0.0311
     42  CG        57.4520   88.9650  129.2160 C.3    42  LEU42       0.0022
     43  CD1       58.6710   88.6890  128.3930 C.3    42  LEU42       0.0001
     44  CD2       56.5360   89.8900  128.4740 C.3    42  LEU42       0.0001
     45  N         56.2630   84.9300  131.8730 N.am   43  LEU43      -0.1977
     46  CA        55.1380   84.7850  132.7630 C.3    43  LEU43       0.1596
     47  C         55.3640   85.5280  134.0620 C.2    43  LEU43       0.2287
     48  O         54.4200   85.6900  134.8420 O.2    43  LEU43      -0.2864
     49  CB        54.8590   83.3040  133.0400 C.3    43  LEU43       0.0297
     50  CG        54.3980   82.5860  131.7740 C.3    43  LEU43       0.0022
     51  CD1       54.2460   81.1010  132.0150 C.3    43  LEU43       0.0001
     52  CD2       53.0980   83.1910  131.2940 C.3    43  LEU43       0.0001
     53  N         56.5630   88.7440  134.7980 N.3    45  LEU45      -0.1231
     54  CA        55.9340   90.0500  134.8780 C.3    45  LEU45       0.1693
     55  C         54.4540   89.9150  135.1850 C.2    45  LEU45       0.2591
     56  O         53.8780   90.7620  135.8740 O.2    45  LEU45      -0.2718
     57  CB        56.1430   90.8100  133.5720 C.3    45  LEU45       0.0284
     58  CG        57.6070   91.0660  133.2600 C.3    45  LEU45       0.0019
     59  CD1       57.7380   91.7660  131.9320 C.3    45  LEU45       0.0001
     60  CD2       58.2440   91.8680  134.3670 C.3    45  LEU45       0.0001
     61  N         53.8320   88.8450  134.7010 N.am   46  LEU46      -0.1980
     62  CA        52.4490   88.5810  135.0610 C.3    46  LEU46       0.1596
     63  C         52.3400   88.1310  136.5070 C.2    46  LEU46       0.2287
     64  O         51.2560   88.2080  137.0980 O.2    46  LEU46      -0.2864
     65  CB        51.8680   87.5410  134.1120 C.3    46  LEU46       0.0297
     66  CG        50.3720   87.2860  134.1500 C.3    46  LEU46       0.0022
     67  CD1       49.9110   86.9920  132.7430 C.3    46  LEU46       0.0001
     68  CD2       50.0580   86.1180  135.0530 C.3    46  LEU46       0.0001
     69  N         53.2190   89.7010  138.9380 N.3    48  LEU48      -0.1231
     70  CA        52.7660   90.8390  139.7260 C.3    48  LEU48       0.1693
     71  C         51.2480   90.9060  139.7580 C.2    48  LEU48       0.2591
     72  O         50.6590   91.3220  140.7580 O.2    48  LEU48      -0.2718
     73  CB        53.3480   92.1370  139.1800 C.3    48  LEU48       0.0284
     74  CG        53.0570   93.3930  140.0010 C.3    48  LEU48       0.0019
     75  CD1       54.2300   94.3380  139.9570 C.3    48  LEU48       0.0001
     76  CD2       51.8290   94.1050  139.4830 C.3    48  LEU48       0.0001
     77  N         50.5990   90.5040  138.6680 N.am   49  VAL49      -0.1980
     78  CA        49.1480   90.5950  138.6100 C.3    49  VAL49       0.1595
     79  C         48.5070   89.6800  139.6380 C.2    49  VAL49       0.2287
     80  O         47.5320   90.0560  140.2980 O.2    49  VAL49      -0.2864
     81  CB        48.6570   90.2840  137.1850 C.3    49  VAL49       0.0276
     82  CG1       47.1500   90.2250  137.1550 C.3    49  VAL49       0.0022
     83  CG2       49.1610   91.3390  136.2350 C.3    49  VAL49       0.0022
@<TRIPOS>BOND
     1    28    27    1
     2    26    27    1
     3    26    25    1
     4    23    22    2
     5    43    42    1
     6    44    42    1
     7    12    11    1
     8    24    25    1
     9    24    21    1
    10    42    41    1
    11    22    21    1
    12    22    29   am
    13    41    38    1
    14    37    38    1
    15    37    31   am
    16    30    33    1
    17    30    29    1
    18    30    31    1
    19    40    39    2
    20    21    20    1
    21    16    15    2
    22    33    34    1
    23    11     9   ar
    24    11    10   ar
    25    38    39    1
    26    31    32    2
    27     9     7   ar
    28    39    45   am
    29    10     8   ar
    30    15    20   am
    31    15    14    1
    32    52    50    1
    33    34    36   am
    34    34    35    2
    35    50    51    1
    36    50    49    1
    37    45    46    1
    38    59    58    1
    39     7     6   ar
    40     8     6   ar
    41    14    17    1
    42    14    13    1
    43    67    66    1
    44    46    49    1
    45    46    47    1
    46     4     3    2
    47     6     5    1
    48    17    18    1
    49    17    19    1
    50    58    57    1
    51    58    60    1
    52    57    54    1
    53     3     2    1
    54    47    48    2
    55    65    66    1
    56    65    62    1
    57    66    68    1
    58     5     2    1
    59     2     1    1
    60    61    62    1
    61    61    55   am
    62    53    54    1
    63    54    55    1
    64    62    63    1
    65    55    56    2
    66    83    81    1
    67    63    64    2
    68    82    81    1
    69    81    78    1
    70    78    77    1
    71    78    79    1
    72    77    71   am
    73    69    70    1
    74    73    70    1
    75    73    74    1
    76    76    74    1
    77    79    80    2
    78    70    71    1
    79    71    72    2
    80    75    74    1
