@<TRIPOS>MOLECULE
tmp/5legE01.pdb
 83 78 0 0 0
SMALL
GASTEIGER

@<TRIPOS>ATOM
      1  N         61.8670   85.4960  130.2180 N.3    41  ASN41      -0.1240
      2  CA        60.6090   84.9260  129.7740 C.3    41  ASN41       0.1653
      3  C         59.5030   85.7380  130.4210 C.2    41  ASN41       0.2266
      4  O         59.6800   86.2740  131.5150 O.2    41  ASN41      -0.2867
      5  CB        60.4600   83.4590  130.1670 C.3    41  ASN41       0.1155
      6  CG        60.4480   83.2610  131.6650 C.2    41  ASN41       0.2627
      7  OD1       60.9090   84.1160  132.4160 O.2    41  ASN41      -0.2716
      8  ND2       59.8960   82.1400  132.1090 N.am   41  ASN41      -0.0877
      9  N         56.2630   84.9300  131.8730 N.3    43  LEU43      -0.1231
     10  CA        55.1380   84.7850  132.7630 C.3    43  LEU43       0.1693
     11  C         55.3640   85.5280  134.0620 C.2    43  LEU43       0.2591
     12  O         54.4200   85.6900  134.8420 O.2    43  LEU43      -0.2718
     13  CB        54.8590   83.3040  133.0400 C.3    43  LEU43       0.0284
     14  CG        54.3980   82.5860  131.7740 C.3    43  LEU43       0.0019
     15  CD1       54.2460   81.1010  132.0150 C.3    43  LEU43       0.0001
     16  CD2       53.0980   83.1910  131.2940 C.3    43  LEU43       0.0001
     17  N         56.5800   86.0090  134.2960 N.am   44  ILE44      -0.1980
     18  CA        56.9480   86.4870  135.6160 C.3    44  ILE44       0.1595
     19  C         56.4620   87.9060  135.8280 C.2    44  ILE44       0.2287
     20  O         55.9990   88.2600  136.9160 O.2    44  ILE44      -0.2864
     21  CB        58.4620   86.3570  135.8130 C.3    44  ILE44       0.0276
     22  CG1       58.8460   84.8870  135.8160 C.3    44  ILE44       0.0022
     23  CG2       58.8790   86.9910  137.1110 C.3    44  ILE44       0.0022
     24  CD1       60.3240   84.6610  135.8190 C.3    44  ILE44       0.0001
     25  N         53.8320   88.8450  134.7010 N.3    46  LEU46      -0.1231
     26  CA        52.4490   88.5810  135.0610 C.3    46  LEU46       0.1693
     27  C         52.3400   88.1310  136.5070 C.2    46  LEU46       0.2592
     28  O         51.2560   88.2080  137.0980 O.2    46  LEU46      -0.2718
     29  CB        51.8680   87.5410  134.1120 C.3    46  LEU46       0.0284
     30  CG        50.3720   87.2860  134.1500 C.3    46  LEU46       0.0019
     31  CD1       49.9110   86.9920  132.7430 C.3    46  LEU46       0.0001
     32  CD2       50.0580   86.1180  135.0530 C.3    46  LEU46       0.0001
     33  N         53.4460   87.6820  137.0990 N.am   47  GLY47      -0.1957
     34  CA        53.4220   87.3120  138.5010 C.3    47  GLY47       0.1869
     35  C         53.0590   88.4670  139.4130 C.2    47  GLY47       0.2309
     36  O         52.6390   88.2540  140.5480 O.2    47  GLY47      -0.2863
     37  N         49.0450   88.4720  139.8110 N.3    50  VAL50      -0.1245
     38  CA        48.4250   87.5360  140.7350 C.3    50  VAL50       0.1561
     39  C         48.5640   87.9710  142.1780 C.2    50  VAL50       0.2260
     40  O         47.8070   87.5010  143.0240 O.2    50  VAL50      -0.2867
     41  CB        49.0010   86.1180  140.5880 C.3    50  VAL50       0.0252
     42  CG1       48.8160   85.6170  139.1740 C.3    50  VAL50       0.0019
     43  CG2       50.4450   86.0940  140.9870 C.3    50  VAL50       0.0019
     44  N         45.5160   90.7080  142.6250 N.3    53  VAL53      -0.1231
     45  CA        44.2000   90.1380  142.8640 C.3    53  VAL53       0.1692
     46  C         44.1830   89.3390  144.1520 C.2    53  VAL53       0.2592
     47  O         43.1880   89.3590  144.8830 O.2    53  VAL53      -0.2718
     48  CB        43.7570   89.2900  141.6600 C.3    53  VAL53       0.0266
     49  CG1       43.5940   90.1650  140.4510 C.3    53  VAL53       0.0020
     50  CG2       44.7620   88.2130  141.3760 C.3    53  VAL53       0.0020
     51  N         45.2760   88.6390  144.4730 N.am   54  PHE54      -0.1976
     52  CA        45.2630   87.7630  145.6370 C.3    54  PHE54       0.1639
     53  C         45.0570   88.5590  146.9160 C.2    54  PHE54       0.2290
     54  O         44.1860   88.2380  147.7280 O.2    54  PHE54      -0.2864
     55  CB        46.5510   86.9570  145.7140 C.3    54  PHE54       0.0560
     56  CG        46.5920   85.9880  146.8500 C.ar   54  PHE54      -0.0200
     57  CD1       45.9580   84.7690  146.7480 C.ar   54  PHE54      -0.0042
     58  CD2       47.2530   86.2940  148.0200 C.ar   54  PHE54      -0.0042
     59  CE1       45.9880   83.8750  147.7850 C.ar   54  PHE54      -0.0003
     60  CE2       47.2830   85.4010  149.0600 C.ar   54  PHE54      -0.0003
     61  CZ        46.6520   84.1910  148.9420 C.ar   54  PHE54      -0.0000
     62  N         41.2800   90.0770  146.7500 N.3    57  VAL57      -0.1231
     63  CA        40.2320   89.1330  147.1150 C.3    57  VAL57       0.1692
     64  C         40.5550   88.3850  148.3920 C.2    57  VAL57       0.2592
     65  O         39.6760   87.7300  148.9530 O.2    57  VAL57      -0.2718
     66  CB        39.9760   88.1040  145.9970 C.3    57  VAL57       0.0266
     67  CG1       39.6160   88.8070  144.7120 C.3    57  VAL57       0.0020
     68  CG2       41.1710   87.1990  145.8220 C.3    57  VAL57       0.0020
     69  N         41.7940   88.4470  148.8570 N.am   58  GLY58      -0.1957
     70  CA        42.1290   87.8110  150.1090 C.3    58  GLY58       0.1869
     71  C         41.6310   88.6100  151.2910 C.2    58  GLY58       0.2309
     72  O         40.9980   88.0590  152.1970 O.2    58  GLY58      -0.2863
     73  N         38.1750   88.1980  152.7970 N.3    61  PHE61      -0.1241
     74  CA        37.8250   87.0250  153.5890 C.3    61  PHE61       0.1605
     75  C         38.1550   87.1850  155.0610 C.2    61  PHE61       0.2264
     76  O         37.7670   86.3270  155.8590 O.2    61  PHE61      -0.2867
     77  CB        38.5320   85.7800  153.0600 C.3    61  PHE61       0.0534
     78  CG        38.0920   85.3680  151.6930 C.ar   61  PHE61      -0.0203
     79  CD1       36.9250   85.8670  151.1460 C.ar   61  PHE61      -0.0042
     80  CD2       38.8310   84.4530  150.9640 C.ar   61  PHE61      -0.0042
     81  CE1       36.5180   85.4810  149.8860 C.ar   61  PHE61      -0.0003
     82  CE2       38.4280   84.0630  149.7070 C.ar   61  PHE61      -0.0003
     83  CZ        37.2710   84.5740  149.1670 C.ar   61  PHE61      -0.0000
@<TRIPOS>BOND
     1     2     5    1
     2     2     1    1
     3     2     3    1
     4     5     6    1
     5     3     4    2
     6    16    14    1
     7     6     8   am
     8     6     7    2
     9    14    15    1
    10    14    13    1
    11     9    10    1
    12    31    30    1
    13    10    13    1
    14    10    11    1
    15    11    17   am
    16    11    12    2
    17    29    30    1
    18    29    26    1
    19    30    32    1
    20    17    18    1
    21    25    26    1
    22    26    27    1
    23    18    21    1
    24    18    19    1
    25    21    22    1
    26    21    23    1
    27    22    24    1
    28    19    20    2
    29    27    28    2
    30    27    33   am
    31    33    34    1
    32    34    35    1
    33    42    41    1
    34    35    36    2
    35    37    38    1
    36    49    48    1
    37    41    38    1
    38    41    43    1
    39    38    39    1
    40    50    48    1
    41    48    45    1
    42    39    40    2
    43    44    45    1
    44    45    46    1
    45    46    51   am
    46    46    47    2
    47    51    52    1
    48    67    66    1
    49    52    55    1
    50    52    53    1
    51    55    56    1
    52    68    66    1
    53    66    63    1
    54    57    56   ar
    55    57    59   ar
    56    62    63    1
    57    56    58   ar
    58    53    54    2
    59    63    64    1
    60    59    61   ar
    61    58    60   ar
    62    64    69   am
    63    64    65    2
    64    69    70    1
    65    61    60   ar
    66    83    82   ar
    67    83    81   ar
    68    82    80   ar
    69    81    79   ar
    70    70    71    1
    71    80    78   ar
    72    79    78   ar
    73    71    72    2
    74    78    77    1
    75    73    74    1
    76    77    74    1
    77    74    75    1
    78    75    76    2
