@<TRIPOS>MOLECULE
tmp/5leoA00.pdb
 116 107 0 0 0
SMALL
GASTEIGER

@<TRIPOS>ATOM
      1  N        -45.3490   -3.5560   67.1950 N.3     2  TRP2       -0.1241
      2  CA       -45.3480   -2.2320   67.8010 C.3     2  TRP2        0.1605
      3  C        -45.8820   -1.1970   66.8180 C.2     2  TRP2        0.2264
      4  O        -45.6560   -1.3090   65.6080 O.2     2  TRP2       -0.2867
      5  CB       -43.9340   -1.8470   68.2460 C.3     2  TRP2        0.0550
      6  CG       -43.3670   -2.7290   69.3140 C.ar    2  TRP2        0.0003
      7  CD1      -42.8720   -3.9960   69.1580 C.ar    2  TRP2        0.0946
      8  CD2      -43.2210   -2.4100   70.7070 C.ar    2  TRP2        0.0152
      9  NE1      -42.4380   -4.4830   70.3650 N.ar    2  TRP2       -0.2442
     10  CE2      -42.6540   -3.5390   71.3350 C.ar    2  TRP2        0.0810
     11  CE3      -43.5250   -1.2900   71.4830 C.ar    2  TRP2        0.0012
     12  CZ2      -42.3730   -3.5730   72.7010 C.ar    2  TRP2        0.0191
     13  CZ3      -43.2560   -1.3240   72.8340 C.ar    2  TRP2        0.0001
     14  CH2      -42.6790   -2.4580   73.4350 C.ar    2  TRP2        0.0015
     15  N        -46.8620    0.8020   72.2440 N.3    12  LYS12      -0.1245
     16  CA       -48.1630    0.1430   72.2660 C.3    12  LYS12       0.1561
     17  C        -48.7700    0.2210   73.6610 C.2    12  LYS12       0.2260
     18  O        -48.1490    0.7480   74.5910 O.2    12  LYS12      -0.2867
     19  CB       -48.0580   -1.3190   71.8240 C.3    12  LYS12       0.0271
     20  CG       -47.1420   -2.1550   72.6600 C.3    12  LYS12       0.0035
     21  CD       -47.1920   -3.5840   72.1350 C.3    12  LYS12       0.0206
     22  CE       -46.0950   -4.4520   72.6990 C.3    12  LYS12       0.1093
     23  NZ       -46.1770   -5.7830   72.0240 N.3    12  LYS12      -0.1314
     24  N        -50.0010   -1.4480   77.1650 N.3    14  GLU14      -0.1245
     25  CA       -49.8070   -2.5410   78.0920 C.3    14  GLU14       0.1567
     26  C        -50.0480   -1.9220   79.4520 C.2    14  GLU14       0.2260
     27  O        -49.6050   -0.8000   79.6900 O.2    14  GLU14      -0.2867
     28  CB       -48.4100   -3.1540   77.9910 C.3    14  GLU14       0.0388
     29  CG       -48.1050   -4.1200   79.1340 C.3    14  GLU14       0.1160
     30  CD       -46.7040   -4.6810   79.0810 C.2    14  GLU14       0.3649
     31  OE1      -46.3270   -5.2260   78.0180 O.co2  14  GLU14      -0.2457
     32  OE2      -45.9870   -4.5850   80.1040 O.co2  14  GLU14      -0.2457
     33  N        -48.8120    1.8900   84.8300 N.3    49  TYR49      -0.1241
     34  CA       -48.5790    2.3830   83.4770 C.3    49  TYR49       0.1605
     35  C        -49.5790    1.8190   82.4790 C.2    49  TYR49       0.2264
     36  O        -50.1850    0.7670   82.7140 O.2    49  TYR49      -0.2867
     37  CB       -47.1480    2.0670   83.0230 C.3    49  TYR49       0.0534
     38  CG       -46.7740    0.6040   82.8560 C.ar   49  TYR49      -0.0201
     39  CD1      -46.9770   -0.0630   81.6480 C.ar   49  TYR49      -0.0009
     40  CD2      -46.1560   -0.0880   83.8860 C.ar   49  TYR49      -0.0009
     41  CE1      -46.6050   -1.3910   81.4910 C.ar   49  TYR49       0.0417
     42  CE2      -45.7820   -1.4090   83.7430 C.ar   49  TYR49       0.0417
     43  CZ       -46.0040   -2.0610   82.5420 C.ar   49  TYR49       0.1957
     44  OH       -45.6300   -3.3840   82.4080 O.3    49  TYR49      -0.2866
     45  N        -46.2540    1.2980   76.7130 N.3    52  VAL52      -0.1245
     46  CA       -44.8670    0.8560   76.7060 C.3    52  VAL52       0.1561
     47  C        -44.1860    1.3680   75.4370 C.2    52  VAL52       0.2260
     48  O        -44.7970    1.3870   74.3630 O.2    52  VAL52      -0.2867
     49  CB       -44.7700   -0.6840   76.7980 C.3    52  VAL52       0.0252
     50  CG1      -43.3330   -1.1460   76.7330 C.3    52  VAL52       0.0019
     51  CG2      -45.4140   -1.1770   78.0770 C.3    52  VAL52       0.0019
     52  N        -40.2940    1.7000   73.0940 N.3    54  LYS54      -0.1245
     53  CA       -38.8870    1.3830   72.8370 C.3    54  LYS54       0.1561
     54  C        -38.2520    2.5680   72.1100 C.2    54  LYS54       0.2260
     55  O        -38.6040    2.8720   70.9720 O.2    54  LYS54      -0.2867
     56  CB       -38.7340    0.0890   72.0170 C.3    54  LYS54       0.0271
     57  CG       -39.3270   -1.1480   72.7090 C.3    54  LYS54       0.0035
     58  CD       -38.8430   -2.4590   72.0830 C.3    54  LYS54       0.0206
     59  CE       -39.3350   -2.6480   70.6430 C.3    54  LYS54       0.1093
     60  NZ       -39.0960   -4.0630   70.1560 N.3    54  LYS54      -0.1314
     61  N        -36.4940    0.4930   77.2330 N.3    59  VAL59      -0.1245
     62  CA       -37.9330    0.3030   77.2770 C.3    59  VAL59       0.1561
     63  C        -38.4720    1.2730   78.3260 C.2    59  VAL59       0.2260
     64  O        -37.9930    1.2990   79.4670 O.2    59  VAL59      -0.2867
     65  CB       -38.3350   -1.1410   77.6470 C.3    59  VAL59       0.0252
     66  CG1      -39.8450   -1.3040   77.5510 C.3    59  VAL59       0.0019
     67  CG2      -37.6110   -2.1560   76.7600 C.3    59  VAL59       0.0019
     68  N        -42.0290    3.0350   80.2390 N.3    61  VAL61      -0.1245
     69  CA       -43.4700    2.9630   80.4520 C.3    61  VAL61       0.1561
     70  C        -44.0380    4.3660   80.6320 C.2    61  VAL61       0.2260
     71  O        -43.3540    5.2780   81.1120 O.2    61  VAL61      -0.2867
     72  CB       -43.8350    2.0570   81.6580 C.3    61  VAL61       0.0252
     73  CG1      -43.2620    0.6570   81.4390 C.3    61  VAL61       0.0019
     74  CG2      -43.3430    2.6290   82.9660 C.3    61  VAL61       0.0019
     75  N        -37.3890    1.5210   82.3700 N.3    75  VAL75      -0.1231
     76  CA       -37.4350    0.4200   83.3240 C.3    75  VAL75       0.1692
     77  C        -36.3890   -0.6620   83.0350 C.2    75  VAL75       0.2591
     78  O        -36.1370   -1.5010   83.8870 O.2    75  VAL75      -0.2718
     79  CB       -38.8280   -0.2350   83.3650 C.3    75  VAL75       0.0266
     80  CG1      -39.8960    0.7870   83.8310 C.3    75  VAL75       0.0020
     81  CG2      -39.1750   -0.8530   81.9920 C.3    75  VAL75       0.0020
     82  N        -35.8010   -0.6360   81.8370 N.am   76  ARG76      -0.1980
     83  CA       -34.7050   -1.5330   81.4510 C.3    76  ARG76       0.1597
     84  C        -34.1030   -1.0570   80.1320 C.2    76  ARG76       0.2287
     85  O        -34.7190   -0.2790   79.4040 O.2    76  ARG76      -0.2864
     86  CB       -35.2030   -2.9690   81.2940 C.3    76  ARG76       0.0334
     87  CG       -36.1510   -3.1030   80.1050 C.3    76  ARG76       0.0492
     88  CD       -37.0610   -4.3140   80.2790 C.3    76  ARG76       0.2205
     89  NE       -36.2940   -5.5200   80.5530 N.pl3  76  ARG76      -0.0865
     90  CZ       -36.8410   -6.6960   80.8490 C.cat  76  ARG76       0.5346
     91  NH1      -38.1660   -6.8260   80.8750 N.pl3  76  ARG76       0.1354
     92  NH2      -36.0700   -7.7480   81.1060 N.pl3  76  ARG76       0.1354
     93  N        -33.2690   -7.0550   75.5090 N.3    85  LEU85      -0.1245
     94  CA       -33.5940   -6.2560   76.6940 C.3    85  LEU85       0.1561
     95  C        -32.5890   -6.5020   77.8210 C.2    85  LEU85       0.2260
     96  O        -32.0240   -7.5950   77.9430 O.2    85  LEU85      -0.2867
     97  CB       -35.0110   -6.5660   77.1990 C.3    85  LEU85       0.0270
     98  CG       -36.1500   -6.6700   76.1830 C.3    85  LEU85       0.0019
     99  CD1      -37.4740   -6.9360   76.8930 C.3    85  LEU85       0.0001
    100  CD2      -36.2600   -5.3920   75.3270 C.3    85  LEU85       0.0001
    101  N        -34.5740   -5.9620   84.2640 N.3    88  LEU88      -0.1245
    102  CA       -35.6070   -5.0480   84.7520 C.3    88  LEU88       0.1561
    103  C        -35.1690   -4.3840   86.0570 C.2    88  LEU88       0.2260
    104  O        -34.7130   -5.0520   86.9770 O.2    88  LEU88      -0.2867
    105  CB       -36.9290   -5.7940   84.9530 C.3    88  LEU88       0.0270
    106  CG       -38.1670   -4.9210   85.1950 C.3    88  LEU88       0.0019
    107  CD1      -38.4300   -3.9950   83.9950 C.3    88  LEU88       0.0001
    108  CD2      -39.3960   -5.7890   85.4950 C.3    88  LEU88       0.0001
    109  N        -42.6500   -6.1110   88.1930 N.3    92  ILE92      -0.1245
    110  CA       -43.9010   -5.7680   87.5450 C.3    92  ILE92       0.1561
    111  C        -44.9740   -6.7620   87.9480 C.2    92  ILE92       0.2260
    112  O        -44.7530   -7.9720   87.9230 O.2    92  ILE92      -0.2867
    113  CB       -43.7470   -5.7210   86.0100 C.3    92  ILE92       0.0252
    114  CG1      -43.0670   -4.4040   85.6130 C.3    92  ILE92       0.0019
    115  CG2      -45.0980   -5.8050   85.3310 C.3    92  ILE92       0.0019
    116  CD1      -42.7780   -4.2470   84.1350 C.3    92  ILE92       0.0001
@<TRIPOS>BOND
     1     4     3    2
     2     3     2    1
     3     1     2    1
     4     2     5    1
     5     5     6    1
     6     7     6   ar
     7     7     9   ar
     8     6     8   ar
     9    60    59    1
    10     9    10   ar
    11    59    58    1
    12     8    10   ar
    13     8    11   ar
    14    55    54    2
    15    10    12   ar
    16    11    13   ar
    17    19    16    1
    18    19    20    1
    19    56    57    1
    20    56    53    1
    21    23    22    1
    22    58    57    1
    23    54    53    1
    24    21    20    1
    25    21    22    1
    26    15    16    1
    27    16    17    1
    28    12    14   ar
    29    13    14   ar
    30    53    52    1
    31    17    18    2
    32    48    47    2
    33   100    98    1
    34    47    46    1
    35    93    94    1
    36    98    99    1
    37    98    97    1
    38    94    97    1
    39    94    95    1
    40    46    45    1
    41    46    49    1
    42    50    49    1
    43    67    65    1
    44    49    51    1
    45    24    25    1
    46    61    62    1
    47    62    65    1
    48    62    63    1
    49    66    65    1
    50    95    96    2
    51    28    25    1
    52    28    29    1
    53    31    30   ar
    54    25    26    1
    55    63    64    2
    56    30    29    1
    57    30    32   ar
    58    85    84    2
    59    26    27    2
    60    87    88    1
    61    87    86    1
    62    84    83    1
    63    68    69    1
    64    88    89    1
    65    69    70    1
    66    69    72    1
    67    89    90    2
    68    70    71    2
    69    90    91    1
    70    90    92    1
    71    86    83    1
    72    73    72    1
    73    83    82    1
    74    41    39   ar
    75    41    43   ar
    76    39    38   ar
    77    72    74    1
    78    82    77   am
    79    81    79    1
    80    75    76    1
    81    44    43    1
    82    35    36    2
    83    35    34    1
    84    43    42   ar
    85    38    37    1
    86    38    40   ar
    87    37    34    1
    88    77    76    1
    89    77    78    2
    90    76    79    1
    91    79    80    1
    92    34    33    1
    93    42    40   ar
    94   107   106    1
    95   116   114    1
    96   101   102    1
    97   102   105    1
    98   102   103    1
    99   105   106    1
   100   106   108    1
   101   115   113    1
   102   114   113    1
   103   113   110    1
   104   103   104    2
   105   110   111    1
   106   110   109    1
   107   112   111    2
