@<TRIPOS>MOLECULE
tmp/5levA00.pdb
 147 138 0 0 0
SMALL
GASTEIGER

@<TRIPOS>ATOM
      1  N         42.2690   49.1080  120.8400 N.3   168  GLY168     -0.1225
      2  CA        43.0970   49.4500  119.6870 C.3   168  GLY168      0.1811
      3  C         44.5370   49.8030  120.0120 C.2   168  GLY168      0.2280
      4  O         45.4520   49.2830  119.3640 O.2   168  GLY168     -0.2866
      5  N         46.3320   46.7840  120.9940 N.3   171  LEU171     -0.1231
      6  CA        46.6490   45.9250  119.8570 C.3   171  LEU171      0.1693
      7  C         47.9570   46.3720  119.2010 C.2   171  LEU171      0.2591
      8  O         48.7710   45.5190  118.8550 O.2   171  LEU171     -0.2718
      9  CB        45.5080   45.9040  118.8310 C.3   171  LEU171      0.0284
     10  CG        44.2860   45.0790  119.2020 C.3   171  LEU171      0.0019
     11  CD1       43.0710   45.5730  118.4720 C.3   171  LEU171      0.0001
     12  CD2       44.5010   43.6140  118.9150 C.3   171  LEU171      0.0001
     13  N         48.1730   47.7040  119.0730 N.am  172  VAL172     -0.1980
     14  CA        49.3900   48.2870  118.4880 C.3   172  VAL172      0.1595
     15  C         50.5790   47.9630  119.4060 C.2   172  VAL172      0.2287
     16  O         51.6120   47.5160  118.9110 O.2   172  VAL172     -0.2864
     17  CB        49.2630   49.8180  118.2130 C.3   172  VAL172      0.0276
     18  CG1       50.5340   50.3810  117.5820 C.3   172  VAL172      0.0022
     19  CG2       48.0580   50.1290  117.3290 C.3   172  VAL172      0.0022
     20  N         51.1780   44.0790  119.4390 N.3   175  ALA175     -0.1231
     21  CA        51.7250   43.7040  118.1310 C.3   175  ALA175      0.1694
     22  C         53.1830   44.1570  118.0050 C.2   175  ALA175      0.2592
     23  O         53.9940   43.4360  117.4150 O.2   175  ALA175     -0.2718
     24  CB        50.8930   44.2980  117.0140 C.3   175  ALA175      0.0304
     25  N         53.5210   45.3340  118.5920 N.am  176  SER176     -0.1952
     26  CA        54.8830   45.8700  118.6050 C.3   176  SER176      0.1924
     27  C         55.7850   44.9390  119.4060 C.2   176  SER176      0.2314
     28  O         56.8570   44.5740  118.9160 O.2   176  SER176     -0.2863
     29  CB        54.9110   47.2820  119.1780 C.3   176  SER176      0.2116
     30  OG        54.1960   48.1710  118.3380 O.3   176  SER176     -0.2180
     31  N         56.3540   41.7190  117.3520 N.3   179  VAL179     -0.1245
     32  CA        57.3580   41.9980  116.3070 C.3   179  VAL179      0.1561
     33  C         58.7790   42.0200  116.9280 C.2   179  VAL179      0.2260
     34  O         59.6780   41.3440  116.4160 O.2   179  VAL179     -0.2867
     35  CB        57.0310   43.3150  115.5360 C.3   179  VAL179      0.0252
     36  CG1       58.1920   43.7580  114.6440 C.3   179  VAL179      0.0019
     37  CG2       55.7510   43.1740  114.7150 C.3   179  VAL179      0.0019
     38  N         46.7230   39.4800  121.9690 N.3   204  PHE204     -0.1241
     39  CA        46.4190   40.1490  120.7090 C.3   204  PHE204      0.1605
     40  C         45.1110   39.6210  120.1160 C.2   204  PHE204      0.2264
     41  O         44.2200   40.4170  119.8280 O.2   204  PHE204     -0.2867
     42  CB        47.5800   39.9790  119.7020 C.3   204  PHE204      0.0534
     43  CG        47.3730   40.6900  118.3840 C.ar  204  PHE204     -0.0203
     44  CD1       47.7810   42.0090  118.2150 C.ar  204  PHE204     -0.0042
     45  CD2       46.7610   40.0440  117.3130 C.ar  204  PHE204     -0.0042
     46  CE1       47.5690   42.6730  117.0050 C.ar  204  PHE204     -0.0003
     47  CE2       46.5400   40.7110  116.1080 C.ar  204  PHE204     -0.0003
     48  CZ        46.9540   42.0190  115.9590 C.ar  204  PHE204     -0.0000
     49  N         41.4810   41.3980  119.7480 N.3   208  LEU208     -0.1245
     50  CA        40.9830   41.5260  118.3750 C.3   208  LEU208      0.1561
     51  C         39.4810   41.1850  118.3280 C.2   208  LEU208      0.2260
     52  O         38.7010   41.9480  117.7510 O.2   208  LEU208     -0.2867
     53  CB        41.7900   40.6080  117.4410 C.3   208  LEU208      0.0270
     54  CG        41.8100   40.9560  115.9550 C.3   208  LEU208      0.0019
     55  CD1       42.5950   42.2280  115.6990 C.3   208  LEU208      0.0001
     56  CD2       42.4410   39.8380  115.1700 C.3   208  LEU208      0.0001
     57  N         37.6750   44.0710  120.1370 N.3   211  LEU211     -0.1245
     58  CA        37.6370   45.2270  119.2490 C.3   211  LEU211      0.1561
     59  C         36.6000   44.9880  118.1360 C.2   211  LEU211      0.2260
     60  O         35.9520   45.9380  117.6900 O.2   211  LEU211     -0.2867
     61  CB        39.0300   45.5370  118.6620 C.3   211  LEU211      0.0270
     62  CG        39.1460   46.8760  117.9180 C.3   211  LEU211      0.0019
     63  CD1       39.6550   47.9780  118.8220 C.3   211  LEU211      0.0001
     64  CD2       40.0010   46.7510  116.6910 C.3   211  LEU211      0.0001
     65  N         34.8070   48.3600  118.3090 N.3   215  TRP215     -0.1227
     66  CA        35.1130   49.2940  117.2220 C.3   215  TRP215      0.1737
     67  C         33.8580   50.0260  116.7480 C.2   215  TRP215      0.2595
     68  O         32.7650   49.4600  116.8080 O.2   215  TRP215     -0.2718
     69  CB        35.7940   48.5730  116.0520 C.3   215  TRP215      0.0564
     70  CG        36.3270   49.4900  114.9930 C.ar  215  TRP215      0.0003
     71  CD1       35.8580   49.6300  113.7220 C.ar  215  TRP215      0.0946
     72  CD2       37.4100   50.4170  115.1290 C.ar  215  TRP215      0.0152
     73  NE1       36.6010   50.5670  113.0450 N.ar  215  TRP215     -0.2442
     74  CE2       37.5540   51.0750  113.8880 C.ar  215  TRP215      0.0810
     75  CE3       38.2940   50.7380  116.1720 C.ar  215  TRP215      0.0012
     76  CZ2       38.5430   52.0430  113.6650 C.ar  215  TRP215      0.0191
     77  CZ3       39.2700   51.6950  115.9520 C.ar  215  TRP215      0.0001
     78  CH2       39.3810   52.3460  114.7170 C.ar  215  TRP215      0.0015
     79  N         34.0230   51.2970  116.3210 N.am  216  TYR216     -0.1976
     80  CA        32.9420   52.1700  115.8690 C.3   216  TYR216      0.1639
     81  C         32.0520   51.4690  114.8140 C.2   216  TYR216      0.2290
     82  O         32.5740   50.9800  113.8090 O.2   216  TYR216     -0.2864
     83  CB        33.4990   53.4970  115.3140 C.3   216  TYR216      0.0560
     84  CG        32.4390   54.5590  115.0990 C.ar  216  TYR216     -0.0198
     85  CD1       31.7190   54.6260  113.9100 C.ar  216  TYR216     -0.0009
     86  CD2       32.1570   55.4990  116.0860 C.ar  216  TYR216     -0.0009
     87  CE1       30.7260   55.5850  113.7180 C.ar  216  TYR216      0.0417
     88  CE2       31.1830   56.4770  115.8960 C.ar  216  TYR216      0.0417
     89  CZ        30.4650   56.5130  114.7130 C.ar  216  TYR216      0.1957
     90  OH        29.4970   57.4710  114.5330 O.3   216  TYR216     -0.2866
     91  N         35.2220   57.7090  114.5540 N.3   349  ARG349     -0.1245
     92  CA        35.9010   56.6010  113.8680 C.3   349  ARG349      0.1563
     93  C         37.2710   57.0230  113.3140 C.2   349  ARG349      0.2260
     94  O         38.2040   56.2180  113.3280 O.2   349  ARG349     -0.2867
     95  CB        35.0240   56.0190  112.7510 C.3   349  ARG349      0.0307
     96  CG        35.4740   54.6340  112.2710 C.3   349  ARG349      0.0489
     97  CD        35.3690   54.4820  110.7630 C.3   349  ARG349      0.2205
     98  NE        36.2330   55.4240  110.0420 N.pl3 349  ARG349     -0.0865
     99  CZ        37.3020   55.0800  109.3310 C.cat 349  ARG349      0.5346
    100  NH1       37.6470   53.8040  109.2130 N.pl3 349  ARG349      0.1354
    101  NH2       38.0250   56.0070  108.7200 N.pl3 349  ARG349      0.1354
    102  N         41.2910   56.1110  115.0130 N.3   353  LEU353     -0.1245
    103  CA        42.1810   55.6330  113.9530 C.3   353  LEU353      0.1561
    104  C         43.4410   56.4830  113.8790 C.2   353  LEU353      0.2260
    105  O         44.5290   55.9350  113.7060 O.2   353  LEU353     -0.2867
    106  CB        41.4270   55.6550  112.6160 C.3   353  LEU353      0.0270
    107  CG        41.7780   54.5990  111.5650 C.3   353  LEU353      0.0019
    108  CD1       41.6940   53.1810  112.1160 C.3   353  LEU353      0.0001
    109  CD2       40.8420   54.7050  110.3850 C.3   353  LEU353      0.0001
    110  N         45.5430   55.6810  116.8130 N.3   356  LEU356     -0.1245
    111  CA        46.1000   54.3460  116.5590 C.3   356  LEU356      0.1561
    112  C         47.3050   54.4740  115.6390 C.2   356  LEU356      0.2260
    113  O         48.3220   53.8180  115.8570 O.2   356  LEU356     -0.2867
    114  CB        45.0590   53.3840  115.9540 C.3   356  LEU356      0.0270
    115  CG        43.8090   53.0760  116.7790 C.3   356  LEU356      0.0019
    116  CD1       42.9880   51.9900  116.1240 C.3   356  LEU356      0.0001
    117  CD2       44.1490   52.7010  118.2090 C.3   356  LEU356      0.0001
    118  N         51.2270   53.7750  116.2140 N.3   360  ILE360     -0.1245
    119  CA        52.0740   53.0650  115.2390 C.3   360  ILE360      0.1561
    120  C         53.3640   53.8820  115.0260 C.2   360  ILE360      0.2260
    121  O         54.4550   53.3080  115.0770 O.2   360  ILE360     -0.2867
    122  CB        51.3330   52.7760  113.8850 C.3   360  ILE360      0.0252
    123  CG1       50.1490   51.8120  114.0720 C.3   360  ILE360      0.0019
    124  CG2       52.2940   52.2280  112.8130 C.3   360  ILE360      0.0019
    125  CD1       49.0150   51.9980  113.0690 C.3   360  ILE360      0.0001
    126  N         55.8420   53.5520  117.8420 N.3   363  SER363     -0.1202
    127  CA        56.4210   52.2080  117.8320 C.3   363  SER363      0.2020
    128  C         57.5310   52.1450  116.7960 C.2   363  SER363      0.2618
    129  O         58.6090   51.6290  117.0950 O.2   363  SER363     -0.2717
    130  CB        55.3540   51.1540  117.5600 C.3   363  SER363      0.2103
    131  OG        54.5850   50.8910  118.7250 O.3   363  SER363     -0.2182
    132  N         57.2930   52.7430  115.6040 N.am  364  ALA364     -0.1979
    133  CA        58.2740   52.8470  114.5250 C.3   364  ALA364      0.1597
    134  C         59.4870   53.6390  115.0150 C.2   364  ALA364      0.2287
    135  O         60.6090   53.1980  114.7950 O.2   364  ALA364     -0.2864
    136  CB        57.6500   53.5120  113.3070 C.3   364  ALA364      0.0319
    137  N         61.4970   51.4110  117.4200 N.3   367  PHE367     -0.1241
    138  CA        62.1870   50.4130  116.6020 C.3   367  PHE367      0.1605
    139  C         63.3640   51.0290  115.8380 C.2   367  PHE367      0.2264
    140  O         64.4220   50.4050  115.7700 O.2   367  PHE367     -0.2867
    141  CB        61.2130   49.7300  115.6210 C.3   367  PHE367      0.0534
    142  CG        60.3760   48.6030  116.1890 C.ar  367  PHE367     -0.0203
    143  CD1       60.9640   47.4040  116.5800 C.ar  367  PHE367     -0.0042
    144  CD2       58.9920   48.7050  116.2490 C.ar  367  PHE367     -0.0042
    145  CE1       60.1850   46.3540  117.0800 C.ar  367  PHE367     -0.0003
    146  CE2       58.2170   47.6560  116.7470 C.ar  367  PHE367     -0.0003
    147  CZ        58.8180   46.4860  117.1520 C.ar  367  PHE367     -0.0000
@<TRIPOS>BOND
     1   101    99    1
     2   100    99    1
     3    99    98    2
     4    98    97    1
     5   109   107    1
     6    97    96    1
     7   107   108    1
     8   107   106    1
     9    96    95    1
    10   106   103    1
    11    95    92    1
    12   124   122    1
    13    73    71   ar
    14    73    74   ar
    15   125   123    1
    16   136   133    1
    17    93    94    2
    18    93    92    1
    19    76    74   ar
    20    76    78   ar
    21   105   104    2
    22    87    85   ar
    23    87    89   ar
    24    71    70   ar
    25    82    81    2
    26    92    91    1
    27   104   103    1
    28   122   123    1
    29   122   119    1
    30    74    72   ar
    31    85    84   ar
    32   103   102    1
    33   133   134    1
    34   133   132    1
    35    90    89    1
    36    36    35    1
    37    89    88   ar
    38    37    35    1
    39    78    77   ar
    40   135   134    2
    41    81    80    1
    42    70    72   ar
    43    70    69    1
    44   120   121    2
    45   120   119    1
    46    84    83    1
    47    84    86   ar
    48    72    75   ar
    49    56    54    1
    50   119   118    1
    51    83    80    1
    52    35    32    1
    53   132   128   am
    54   141   142    1
    55   141   138    1
    56   112   113    2
    57   112   111    1
    58    55    54    1
    59   140   139    2
    60   139   138    1
    61    80    79    1
    62    88    86   ar
    63    77    75   ar
    64   114   111    1
    65   114   115    1
    66    54    53    1
    67    48    47   ar
    68    48    46   ar
    69    69    66    1
    70    47    45   ar
    71   116   115    1
    72   142   144   ar
    73   142   143   ar
    74   144   146   ar
    75    32    33    1
    76    32    31    1
    77    79    67   am
    78    34    33    2
    79   111   110    1
    80   143   145   ar
    81   138   137    1
    82    64    62    1
    83   146   147   ar
    84    67    68    2
    85    67    66    1
    86   115   117    1
    87   128   129    2
    88   128   127    1
    89    46    44   ar
    90    24    21    1
    91   145   147   ar
    92    66    65    1
    93    45    43   ar
    94    19    17    1
    95    23    22    2
    96    53    50    1
    97   130   127    1
    98   130   131    1
    99    18    17    1
   100    60    59    2
   101    52    51    2
   102   127   126    1
   103    62    61    1
   104    62    63    1
   105    22    21    1
   106    22    25   am
   107    21    20    1
   108    59    58    1
   109    17    14    1
   110    44    43   ar
   111    51    50    1
   112    30    29    1
   113    50    49    1
   114    43    42    1
   115    11    10    1
   116    14    13    1
   117    14    15    1
   118    25    26    1
   119    26    29    1
   120    26    27    1
   121    61    58    1
   122     9    10    1
   123     9     6    1
   124     8     7    2
   125    16    15    2
   126    12    10    1
   127    28    27    2
   128    13     7   am
   129     7     6    1
   130    58    57    1
   131     4     3    2
   132     2     3    1
   133     2     1    1
   134    42    39    1
   135    41    40    2
   136     6     5    1
   137    40    39    1
   138    39    38    1
