@<TRIPOS>MOLECULE
tmp/5lewA00.pdb
 105 101 0 0 0
SMALL
GASTEIGER

@<TRIPOS>ATOM
      1  N         -8.5220   45.3330   65.0740 N.3   659  MET659     -0.1245
      2  CA        -9.5560   44.4750   65.6430 C.3   659  MET659      0.1570
      3  C         -9.8120   44.7380   67.0870 C.2   659  MET659      0.2261
      4  O        -10.6100   44.0510   67.7050 O.2   659  MET659     -0.2867
      5  CB        -9.0970   43.0310   65.5530 C.3   659  MET659      0.0387
      6  CG        -9.1610   42.4720   64.1450 C.3   659  MET659      0.0595
      7  SD       -10.8680   42.3520   63.5490 S.3   659  MET659     -0.1393
      8  CE       -11.6610   41.3050   64.7860 C.3   659  MET659      0.0692
      9  N         -7.7500   44.0020   69.3800 N.3   661  ALA661     -0.1245
     10  CA        -7.3090   42.7990   70.0460 C.3   661  ALA661      0.1562
     11  C         -6.4690   43.1550   71.2790 C.2   661  ALA661      0.2260
     12  O         -6.5580   42.4960   72.3190 O.2   661  ALA661     -0.2867
     13  CB        -6.5330   41.9480   69.0720 C.3   661  ALA661      0.0290
     14  N         -9.6130   41.8190   79.1850 N.3   668  ARG668     -0.1245
     15  CA        -9.8930   40.4550   79.6140 C.3   668  ARG668      0.1563
     16  C         -8.9360   39.9900   80.6900 C.2   668  ARG668      0.2260
     17  O         -9.3540   39.3810   81.6470 O.2   668  ARG668     -0.2867
     18  CB        -9.8680   39.4890   78.4450 C.3   668  ARG668      0.0307
     19  CG       -10.9170   39.7520   77.4260 C.3   668  ARG668      0.0489
     20  CD       -10.8290   38.7190   76.3310 C.3   668  ARG668      0.2205
     21  NE       -11.8500   39.0100   75.3380 N.pl3 668  ARG668     -0.0865
     22  CZ       -12.0510   38.2910   74.2520 C.cat 668  ARG668      0.5346
     23  NH1      -11.2650   37.2710   73.9960 N.pl3 668  ARG668      0.1354
     24  NH2      -13.0230   38.6030   73.4120 N.pl3 668  ARG668      0.1354
     25  N        -14.9210   35.9000   74.9810 N.3   676  LYS676     -0.1183
     26  CA       -15.9230   35.3640   74.0040 C.3   676  LYS676      0.1894
     27  C        -15.3640   34.0580   73.3400 C.2   676  LYS676      0.2476
     28  O        -14.1630   33.9690   72.9970 O.2   676  LYS676     -0.2729
     29  CB       -16.4060   36.3340   72.8770 C.2   676  LYS676     -0.0029
     30  CG       -17.2260   37.5750   73.0530 C.2   676  LYS676     -0.0272
     31  CD       -17.6290   38.4750   71.8650 C.3   676  LYS676      0.0462
     32  CE       -18.4970   39.6550   72.4180 C.3   676  LYS676      0.1140
     33  NZ       -19.0970   40.8050   71.5950 N.3   676  LYS676     -0.1310
     34  N        -16.2120   33.0330   73.1640 N.am  677  PRO677     -0.2715
     35  CA       -15.6990   31.8540   72.4310 C.3   677  PRO677      0.1536
     36  C        -15.8110   32.0710   70.9280 C.2   677  PRO677      0.2598
     37  O        -16.6110   32.8930   70.5140 O.2   677  PRO677     -0.2715
     38  CB       -16.6400   30.7660   72.8750 C.3   677  PRO677      0.0310
     39  CG       -17.9280   31.4740   73.0820 C.3   677  PRO677      0.0237
     40  CD       -17.5820   32.8210   73.6560 C.3   677  PRO677      0.0939
     41  N        -15.0370   31.3800   70.1010 N.am  678  ILE678     -0.1978
     42  CA       -15.1480   31.6750   68.6490 C.3   678  ILE678      0.1596
     43  C        -16.5660   31.3230   68.1690 C.2   678  ILE678      0.2287
     44  O        -17.1400   31.9500   67.2820 O.2   678  ILE678     -0.2864
     45  CB       -14.0620   30.9670   67.8100 C.3   678  ILE678      0.0276
     46  CG1      -12.7010   31.5780   68.1280 C.3   678  ILE678      0.0022
     47  CG2      -14.3550   31.0640   66.2990 C.3   678  ILE678      0.0022
     48  CD1      -11.5780   31.2240   67.1670 C.3   678  ILE678      0.0001
     49  N         -8.3080   34.0070   75.1730 N.3   695  GLY695     -0.1210
     50  CA        -9.2640   33.6220   74.1600 C.3   695  GLY695      0.1956
     51  C         -9.1060   34.2660   72.8090 C.2   695  GLY695      0.2612
     52  O         -9.9040   33.9440   71.9510 O.2   695  GLY695     -0.2717
     53  N         -8.1220   35.0960   72.5430 N.am  696  LEU696     -0.1965
     54  CA        -7.9930   35.6660   71.2180 C.3   696  LEU696      0.1728
     55  C         -6.9480   34.9390   70.4360 C.2   696  LEU696      0.2616
     56  O         -6.0590   34.3970   71.0160 O.2   696  LEU696     -0.2715
     57  CB        -7.4980   37.0950   71.3060 C.3   696  LEU696      0.0311
     58  CG        -8.2120   38.3510   71.7520 C.3   696  LEU696      0.0022
     59  CD1       -9.6700   38.1490   71.9930 C.3   696  LEU696      0.0001
     60  CD2       -7.5460   38.8320   72.9950 C.3   696  LEU696      0.0001
     61  N         -7.0320   34.9340   69.1160 N.am  697  ILE697     -0.1977
     62  CA        -5.9760   34.2840   68.3530 C.3   697  ILE697      0.1596
     63  C         -4.9510   35.3540   68.0870 C.2   697  ILE697      0.2287
     64  O         -5.2960   36.3660   67.5020 O.2   697  ILE697     -0.2864
     65  CB        -6.4260   33.6670   67.0080 C.3   697  ILE697      0.0276
     66  CG1       -7.7790   32.9830   67.1210 C.3   697  ILE697      0.0022
     67  CG2       -5.4360   32.5990   66.5840 C.3   697  ILE697      0.0022
     68  CD1       -8.2790   32.4480   65.7900 C.3   697  ILE697      0.0001
     69  N        -13.1140   33.5360   61.1310 N.3   760  THR760     -0.1218
     70  CA       -12.1970   34.1780   62.0620 C.3   760  THR760      0.1862
     71  C        -10.7560   34.1100   61.5840 C.2   760  THR760      0.2287
     72  O        -10.1230   35.1360   61.4490 O.2   760  THR760     -0.2866
     73  CB       -12.2590   33.5780   63.4610 C.3   760  THR760      0.1770
     74  OG1      -13.5580   33.7620   63.9760 O.3   760  THR760     -0.2211
     75  CG2      -11.3730   34.3310   64.3640 C.3   760  THR760      0.0375
     76  N         -9.1960   36.2860   57.8030 N.3   763  PRO763     -0.2102
     77  CA        -8.5800   37.6020   57.7500 C.3   763  PRO763      0.1504
     78  C         -7.3870   37.6960   58.6820 C.2   763  PRO763      0.2575
     79  O         -6.3560   38.2530   58.3100 O.2   763  PRO763     -0.2718
     80  CB        -9.6810   38.5480   58.2540 C.3   763  PRO763      0.0282
     81  CG       -10.9170   37.7390   58.3810 C.3   763  PRO763      0.0208
     82  CD       -10.4630   36.3230   58.5630 C.3   763  PRO763      0.0893
     83  N         -7.5260   37.1590   59.8930 N.am  764  PHE764     -0.1977
     84  CA        -6.4460   37.1060   60.8500 C.3   764  PHE764      0.1639
     85  C         -5.1340   36.5240   60.3020 C.2   764  PHE764      0.2290
     86  O         -4.0610   36.8480   60.7810 O.2   764  PHE764     -0.2864
     87  CB        -6.8900   36.3330   62.0580 C.3   764  PHE764      0.0560
     88  CG        -5.7770   35.8950   62.9450 C.ar  764  PHE764     -0.0200
     89  CD1       -5.1450   36.7970   63.8040 C.ar  764  PHE764     -0.0042
     90  CD2       -5.3550   34.5620   62.9490 C.ar  764  PHE764     -0.0042
     91  CE1       -4.0930   36.3800   64.6230 C.ar  764  PHE764     -0.0003
     92  CE2       -4.3160   34.1460   63.7840 C.ar  764  PHE764     -0.0003
     93  CZ        -3.6950   35.0500   64.6250 C.ar  764  PHE764     -0.0000
     94  N         -2.1760   38.8730   58.8560 N.3   767  TYR767     -0.1241
     95  CA        -1.3540   39.5680   59.7540 C.3   767  TYR767      0.1605
     96  C         -0.8580   38.8220   60.9880 C.2   767  TYR767      0.2264
     97  O         -0.0350   39.3640   61.6810 O.2   767  TYR767     -0.2867
     98  CB        -2.0530   40.8400   60.1300 C.3   767  TYR767      0.0534
     99  CG        -3.2690   40.6970   60.9720 C.ar  767  TYR767     -0.0201
    100  CD1       -3.1640   40.5110   62.3420 C.ar  767  TYR767     -0.0009
    101  CD2       -4.5470   40.8200   60.4130 C.ar  767  TYR767     -0.0009
    102  CE1       -4.2940   40.4210   63.1460 C.ar  767  TYR767      0.0417
    103  CE2       -5.6950   40.7270   61.2010 C.ar  767  TYR767      0.0417
    104  CZ        -5.5610   40.5350   62.5700 C.ar  767  TYR767      0.1957
    105  OH        -6.6770   40.4350   63.3640 O.3   767  TYR767     -0.2866
@<TRIPOS>BOND
     1    77    76    1
     2    77    80    1
     3    77    78    1
     4    76    82    1
     5    80    81    1
     6    79    78    2
     7    81    82    1
     8    78    83   am
     9    94    95    1
    10    95    98    1
    11    95    96    1
    12    83    84    1
    13    98    99    1
    14    85    86    2
    15    85    84    1
    16   101    99   ar
    17   101   103   ar
    18    84    87    1
    19    99   100   ar
    20    96    97    2
    21    69    70    1
    22   103   104   ar
    23    72    71    2
    24    71    70    1
    25    87    88    1
    26    70    73    1
    27   100   102   ar
    28   104   102   ar
    29   104   105    1
    30    88    90   ar
    31    88    89   ar
    32    90    92   ar
    33    73    74    1
    34    73    75    1
    35     7     6    1
    36     7     8    1
    37    92    93   ar
    38    89    91   ar
    39     6     5    1
    40    91    93   ar
    41     1     2    1
    42     5     2    1
    43     2     3    1
    44    68    66    1
    45    47    45    1
    46    67    65    1
    47    65    66    1
    48    65    62    1
    49     3     4    2
    50    48    46    1
    51    44    43    2
    52    64    63    2
    53    45    46    1
    54    45    42    1
    55    63    62    1
    56    43    42    1
    57    62    61    1
    58    42    41    1
    59    13    10    1
    60    61    55   am
    61     9    10    1
    62    10    11    1
    63    41    36   am
    64    55    56    2
    65    55    54    1
    66    37    36    2
    67    36    35    1
    68    54    57    1
    69    54    53    1
    70    11    12    2
    71    57    58    1
    72    33    32    1
    73    58    59    1
    74    58    60    1
    75    31    32    1
    76    31    30    1
    77    52    51    2
    78    35    38    1
    79    35    34    1
    80    53    51   am
    81    51    50    1
    82    38    39    1
    83    29    30    2
    84    29    26    1
    85    28    27    2
    86    39    40    1
    87    34    27   am
    88    34    40    1
    89    27    26    1
    90    24    22    1
    91    23    22    1
    92    26    25    1
    93    50    49    1
    94    22    21    2
    95    21    20    1
    96    20    19    1
    97    19    18    1
    98    18    15    1
    99    14    15    1
   100    15    16    1
   101    16    17    2
