@<TRIPOS>MOLECULE
tmp/5lfaA01.pdb
 180 174 0 0 0
SMALL
GASTEIGER

@<TRIPOS>ATOM
      1  N         13.2140  -42.2190   18.5400 N.3     6  ILE6       -0.1231
      2  CA        12.0140  -41.4230   18.8330 C.3     6  ILE6        0.1692
      3  C         11.9310  -40.2150   17.8980 C.2     6  ILE6        0.2592
      4  O         12.8850  -39.4470   17.7700 O.2     6  ILE6       -0.2718
      5  CB        11.9620  -40.9660   20.3170 C.3     6  ILE6        0.0266
      6  CG1       11.8880  -42.1960   21.2240 C.3     6  ILE6        0.0019
      7  CG2       10.7410  -40.0840   20.5630 C.3     6  ILE6        0.0020
      8  CD1       11.8770  -41.8990   22.7010 C.3     6  ILE6        0.0001
      9  N         10.7790  -40.0650   17.2550 N.am    7  LEU7       -0.1966
     10  CA        10.5580  -39.0100   16.2760 C.3     7  LEU7        0.1728
     11  C         10.0400  -37.7690   16.9470 C.2     7  LEU7        0.2617
     12  O          9.5330  -37.8200   18.0670 O.2     7  LEU7       -0.2715
     13  CB         9.5450  -39.4440   15.2250 C.3     7  LEU7        0.0311
     14  CG         9.8290  -40.8100   14.5960 C.3     7  LEU7        0.0022
     15  CD1        8.7950  -41.1090   13.5340 C.3     7  LEU7        0.0001
     16  CD2       11.2180  -40.9000   13.9950 C.3     7  LEU7        0.0001
     17  N         10.1340  -36.6650   16.2200 N.am    8  GLY8       -0.1940
     18  CA         9.8130  -35.3540   16.7460 C.3     8  GLY8        0.2014
     19  C          8.3730  -35.1760   17.1780 C.2     8  GLY8        0.2638
     20  O          8.0770  -34.2850   17.9740 O.2     8  GLY8       -0.2714
     21  N          7.4760  -36.0100   16.6600 N.am    9  ASP9       -0.1971
     22  CA         6.0890  -36.0060   17.1170 C.3     9  ASP9        0.1709
     23  C          5.7490  -37.1450   18.1060 C.2     9  ASP9        0.2293
     24  O          4.5840  -37.4720   18.3010 O.2     9  ASP9       -0.2864
     25  CB         5.1330  -35.9940   15.9160 C.3     9  ASP9        0.1436
     26  CG         5.1550  -37.2930   15.1040 C.2     9  ASP9        0.3671
     27  OD1        6.0890  -38.1250   15.2590 O.co2   9  ASP9       -0.2456
     28  OD2        4.2300  -37.4700   14.2710 O.co2   9  ASP9       -0.2456
     29  N         16.9850  -37.0120   16.5390 N.3    31  CYS31      -0.1221
     30  CA        17.7790  -36.3090   15.5700 C.3    31  CYS31       0.1808
     31  C         16.9600  -35.2430   14.8690 C.2    31  CYS31       0.2601
     32  O         15.8590  -35.5140   14.3950 O.2    31  CYS31      -0.2717
     33  CB        18.3940  -37.3030   14.5660 C.3    31  CYS31       0.0970
     34  SG        17.2590  -38.4370   13.7070 S.3    31  CYS31      -0.0800
     35  N         17.5040  -34.0300   14.8390 N.am   32  GLU32      -0.1965
     36  CA        16.9800  -32.9570   14.0050 C.3    32  GLU32       0.1733
     37  C         17.6600  -33.0880   12.6330 C.2    32  GLU32       0.2616
     38  O         18.8320  -32.7480   12.4820 O.2    32  GLU32      -0.2715
     39  CB        17.2690  -31.5850   14.6350 C.3    32  GLU32       0.0429
     40  CG        16.7820  -31.4130   16.0720 C.3    32  GLU32       0.1163
     41  CD        17.2540  -30.1150   16.7120 C.2    32  GLU32       0.3649
     42  OE1       17.9770  -29.3310   16.0580 O.co2  32  GLU32      -0.2457
     43  OE2       16.9070  -29.8760   17.8920 O.co2  32  GLU32      -0.2457
     44  N         16.9290  -33.6150   11.6510 N.am   33  VAL33      -0.1977
     45  CA        17.4870  -33.9460   10.3250 C.3    33  VAL33       0.1596
     46  C         16.8510  -33.0870    9.2210 C.2    33  VAL33       0.2287
     47  O         15.6500  -32.7710    9.2730 O.2    33  VAL33      -0.2864
     48  CB        17.3390  -35.4530   10.0120 C.3    33  VAL33       0.0276
     49  CG1       18.1750  -36.2700   10.9840 C.3    33  VAL33       0.0022
     50  CG2       15.8940  -35.9030   10.1030 C.3    33  VAL33       0.0022
     51  N         13.5900  -34.0390    7.1230 N.3    36  GLU36      -0.1231
     52  CA        12.3180  -33.8080    7.7700 C.3    36  GLU36       0.1699
     53  C         12.0080  -32.3420    7.8850 C.2    36  GLU36       0.2592
     54  O         10.8550  -31.9630    7.8570 O.2    36  GLU36      -0.2718
     55  CB        12.3300  -34.4430    9.1520 C.3    36  GLU36       0.0402
     56  CG        12.5810  -35.9380    9.0860 C.3    36  GLU36       0.1161
     57  CD        11.5790  -36.6570    8.1900 C.2    36  GLU36       0.3649
     58  OE1       10.3720  -36.3480    8.2940 O.co2  36  GLU36      -0.2457
     59  OE2       11.9880  -37.5200    7.3720 O.co2  36  GLU36      -0.2457
     60  N         13.0320  -31.5100    8.0220 N.am   37  ALA37      -0.1980
     61  CA        12.8120  -30.0760    8.1370 C.3    37  ALA37       0.1597
     62  C         12.6200  -29.3880    6.7980 C.2    37  ALA37       0.2287
     63  O         12.3100  -28.1930    6.7720 O.2    37  ALA37      -0.2864
     64  CB        13.9530  -29.4190    8.9040 C.3    37  ALA37       0.0319
     65  N         11.2130  -31.4520    3.7600 N.3    39  TYR39      -0.1241
     66  CA        10.2920  -32.1310    2.8500 C.3    39  TYR39       0.1605
     67  C          9.1130  -31.2420    2.4930 C.2    39  TYR39       0.2264
     68  O          8.5110  -31.4370    1.4560 O.2    39  TYR39      -0.2867
     69  CB         9.8190  -33.4830    3.3670 C.3    39  TYR39       0.0534
     70  CG         8.7800  -33.4520    4.4400 C.ar   39  TYR39      -0.0201
     71  CD1        9.1460  -33.3360    5.7730 C.ar   39  TYR39      -0.0009
     72  CD2        7.4360  -33.6140    4.1330 C.ar   39  TYR39      -0.0009
     73  CE1        8.1970  -33.3380    6.7850 C.ar   39  TYR39       0.0417
     74  CE2        6.4660  -33.6240    5.1340 C.ar   39  TYR39       0.0417
     75  CZ         6.8480  -33.4980    6.4610 C.ar   39  TYR39       0.1957
     76  OH         5.9000  -33.5060    7.4560 O.3    39  TYR39      -0.2866
     77  N          8.1930  -25.7950    5.8320 N.3    42  HIS42      -0.1241
     78  CA         7.4900  -25.6180    7.0850 C.3    42  HIS42       0.1621
     79  C          7.5520  -24.1630    7.5510 C.2    42  HIS42       0.2264
     80  O          8.5390  -23.4800    7.3260 O.2    42  HIS42      -0.2867
     81  CB         8.1150  -26.4970    8.1830 C.3    42  HIS42       0.0745
     82  CG         8.0730  -27.9690    7.9090 C.ar   42  HIS42       0.0817
     83  ND1        6.9950  -28.7570    8.2420 N.ar   42  HIS42      -0.2268
     84  CD2        9.0040  -28.8080    7.3930 C.ar   42  HIS42       0.1154
     85  CE1        7.2510  -30.0100    7.9180 C.ar   42  HIS42       0.1986
     86  NE2        8.4630  -30.0670    7.3960 N.ar   42  HIS42      -0.2212
     87  N          6.9600  -23.4410   13.2120 N.3    46  LYS46      -0.1231
     88  CA         6.7630  -24.8980   13.2720 C.3    46  LYS46       0.1693
     89  C          8.0930  -25.6000   13.5230 C.2    46  LYS46       0.2591
     90  O          8.2020  -26.4220   14.4420 O.2    46  LYS46      -0.2718
     91  CB         6.1340  -25.4090   11.9710 C.3    46  LYS46       0.0285
     92  CG         5.9020  -26.9130   11.9170 C.3    46  LYS46       0.0035
     93  CD         5.1240  -27.2590   10.6720 C.3    46  LYS46       0.0206
     94  CE         4.7350  -28.7170   10.7130 C.3    46  LYS46       0.1093
     95  NZ         4.0560  -29.1530    9.4720 N.3    46  LYS46      -0.1314
     96  N          9.1010  -25.2420   12.7230 N.am   47  ILE47      -0.1980
     97  CA        10.4570  -25.7840   12.8800 C.3    47  ILE47       0.1595
     98  C         10.9820  -25.4310   14.2680 C.2    47  ILE47       0.2287
     99  O         11.5180  -26.2920   14.9730 O.2    47  ILE47      -0.2864
    100  CB        11.4230  -25.2660   11.7830 C.3    47  ILE47       0.0276
    101  CG1       10.8850  -25.6250   10.3960 C.3    47  ILE47       0.0022
    102  CG2       12.8060  -25.8820   11.9370 C.3    47  ILE47       0.0022
    103  CD1       11.6370  -25.0070    9.2490 C.3    47  ILE47       0.0001
    104  N          9.0920  -27.5200   17.0550 N.3    50  ILE50      -0.1231
    105  CA         9.5010  -28.9350   17.0400 C.3    50  ILE50       0.1692
    106  C         10.9300  -29.1280   17.5420 C.2    50  ILE50       0.2592
    107  O         11.1910  -29.9830   18.3780 O.2    50  ILE50      -0.2718
    108  CB         9.3250  -29.5530   15.6290 C.3    50  ILE50       0.0266
    109  CG1        7.8270  -29.5700   15.2860 C.3    50  ILE50       0.0019
    110  CG2        9.9200  -30.9540   15.5660 C.3    50  ILE50       0.0020
    111  CD1        7.4530  -30.1860   13.9530 C.3    50  ILE50       0.0001
    112  N         11.8610  -28.3370   17.0410 N.am   51  PHE51      -0.1976
    113  CA        13.2180  -28.5150   17.4790 C.3    51  PHE51       0.1639
    114  C         13.3260  -28.2430   18.9540 C.2    51  PHE51       0.2290
    115  O         13.9230  -29.0370   19.6600 O.2    51  PHE51      -0.2864
    116  CB        14.1750  -27.6360   16.7110 C.3    51  PHE51       0.0560
    117  CG        14.4050  -28.0700   15.2920 C.ar   51  PHE51      -0.0200
    118  CD1       14.0440  -29.3380   14.8460 C.ar   51  PHE51      -0.0042
    119  CD2       15.0670  -27.2280   14.4150 C.ar   51  PHE51      -0.0042
    120  CE1       14.2810  -29.7220   13.5430 C.ar   51  PHE51      -0.0003
    121  CE2       15.3200  -27.6190   13.1110 C.ar   51  PHE51      -0.0003
    122  CZ        14.9180  -28.8670   12.6730 C.ar   51  PHE51      -0.0000
    123  N         11.7930  -31.0460   20.9130 N.3    54  MET54      -0.1245
    124  CA        12.6720  -32.2220   20.8500 C.3    54  MET54       0.1570
    125  C         13.8560  -32.0690   21.8250 C.2    54  MET54       0.2261
    126  O         14.2480  -33.0260   22.5240 O.2    54  MET54      -0.2867
    127  CB        13.1840  -32.4500   19.4300 C.3    54  MET54       0.0387
    128  CG        12.1450  -32.9820   18.4740 C.3    54  MET54       0.0595
    129  SD        12.7210  -32.9380   16.7740 S.3    54  MET54      -0.1393
    130  CE        14.0650  -34.1110   16.8150 C.3    54  MET54       0.0692
    131  N         16.7920  -39.6310    8.5790 N.3    82  PHE82      -0.1241
    132  CA        16.6270  -40.5880    9.6650 C.3    82  PHE82       0.1605
    133  C         17.5660  -41.7710    9.4670 C.2    82  PHE82       0.2264
    134  O         18.3120  -42.1560   10.3880 O.2    82  PHE82      -0.2867
    135  CB        15.1760  -41.0820    9.7660 C.3    82  PHE82       0.0534
    136  CG        14.2310  -40.1060   10.4240 C.ar   82  PHE82      -0.0203
    137  CD1       14.5560  -39.5010   11.6410 C.ar   82  PHE82      -0.0042
    138  CD2       12.9930  -39.8230    9.8440 C.ar   82  PHE82      -0.0042
    139  CE1       13.6840  -38.6140   12.2480 C.ar   82  PHE82      -0.0003
    140  CE2       12.1090  -38.9550   10.4610 C.ar   82  PHE82      -0.0003
    141  CZ        12.4530  -38.3450   11.6610 C.ar   82  PHE82      -0.0000
    142  N          5.2390  -44.1890   12.5710 N.3   103  PRO103     -0.2102
    143  CA         5.1260  -42.7470   12.3800 C.3   103  PRO103      0.1504
    144  C          3.7530  -42.3190   11.8980 C.2   103  PRO103      0.2576
    145  O          2.8770  -43.1550   11.7570 O.2   103  PRO103     -0.2718
    146  CB         6.1520  -42.4870   11.2860 C.3   103  PRO103      0.0282
    147  CG         6.1090  -43.7210   10.4530 C.3   103  PRO103      0.0208
    148  CD         5.7830  -44.8590   11.3770 C.3   103  PRO103      0.0893
    149  N          3.5900  -41.0250   11.6240 N.am  104  GLY104     -0.1943
    150  CA         2.3450  -40.4650   11.1090 C.3   104  GLY104      0.2014
    151  C          2.3670  -40.0340    9.6530 C.2   104  GLY104      0.2638
    152  O          1.4910  -39.2960    9.2380 O.2   104  GLY104     -0.2714
    153  N          3.3530  -40.4810    8.8700 N.am  105  GLU105     -0.1977
    154  CA         3.4270  -40.1420    7.4440 C.3   105  GLU105      0.1602
    155  C          3.8280  -41.3690    6.6150 C.2   105  GLU105      0.2287
    156  O          4.6770  -42.1610    7.0350 O.2   105  GLU105     -0.2864
    157  CB         4.4170  -38.9980    7.1960 C.3   105  GLU105      0.0415
    158  CG         3.9410  -37.6490    7.7230 C.3   105  GLU105      0.1163
    159  CD         4.7750  -36.4500    7.2310 C.2   105  GLU105      0.3649
    160  OE1        5.8000  -36.6380    6.5430 O.co2 105  GLU105     -0.2457
    161  OE2        4.3780  -35.2940    7.5300 O.co2 105  GLU105     -0.2457
    162  N          7.6370  -41.1610    5.8930 N.3   108  VAL108     -0.1245
    163  CA         8.4830  -41.5820    6.9810 C.3   108  VAL108      0.1561
    164  C          8.3480  -43.0820    7.2260 C.2   108  VAL108      0.2260
    165  O          9.3290  -43.7740    7.4510 O.2   108  VAL108     -0.2867
    166  CB         8.1620  -40.7690    8.2360 C.3   108  VAL108      0.0252
    167  CG1        9.1000  -41.1360    9.3670 C.3   108  VAL108      0.0019
    168  CG2        8.2820  -39.2780    7.9220 C.3   108  VAL108      0.0019
    169  N          0.6660  -32.3330   10.3550 N.3   386  TYR386     -0.1241
    170  CA         1.3680  -33.5310    9.8900 C.3   386  TYR386      0.1605
    171  C          0.4030  -34.2050    8.9290 C.2   386  TYR386      0.2264
    172  O         -0.8220  -34.0760    9.0820 O.2   386  TYR386     -0.2867
    173  CB         1.7110  -34.4800   11.0500 C.3   386  TYR386      0.0534
    174  CG         2.4110  -33.7820   12.1710 C.ar  386  TYR386     -0.0201
    175  CD1        1.6940  -33.0760   13.1080 C.ar  386  TYR386     -0.0009
    176  CD2        3.7940  -33.7890   12.2680 C.ar  386  TYR386     -0.0009
    177  CE1        2.3290  -32.3830   14.1260 C.ar  386  TYR386      0.0417
    178  CE2        4.4480  -33.1190   13.2920 C.ar  386  TYR386      0.0417
    179  CZ         3.7080  -32.4140   14.2170 C.ar  386  TYR386      0.1957
    180  OH         4.3470  -31.7440   15.2300 O.3   386  TYR386     -0.2866
@<TRIPOS>BOND
     1    68    67    2
     2    67    66    1
     3    66    69    1
     4    66    65    1
     5    69    70    1
     6    72    70   ar
     7    72    74   ar
     8    70    71   ar
     9    74    75   ar
    10    71    73   ar
    11    77    78    1
    12   162   163    1
    13    75    73   ar
    14    75    76    1
    15   160   159   ar
    16   155   156    2
    17   155   154    1
    18    63    62    2
    19    62    61    1
    20   163   164    1
    21   163   166    1
    22    78    79    1
    23    78    81    1
    24    51    52    1
    25   157   154    1
    26   157   158    1
    27   164   165    2
    28   159   161   ar
    29   159   158    1
    30    80    79    2
    31    59    57   ar
    32    84    86   ar
    33    84    82   ar
    34    86    85   ar
    35   154   153    1
    36    52    53    1
    37    52    55    1
    38    54    53    2
    39    53    60   am
    40    82    81    1
    41    82    83   ar
    42    85    83   ar
    43   168   166    1
    44    60    61    1
    45    61    64    1
    46    57    58   ar
    47    57    56    1
    48   166   167    1
    49   131   132    1
    50   153   151   am
    51   171   172    2
    52   171   170    1
    53    56    55    1
    54    46    47    2
    55    46    45    1
    56   152   151    2
    57   103   101    1
    58   133   132    1
    59   133   134    2
    60    95    94    1
    61   151   150    1
    62   132   135    1
    63   135   136    1
    64   138   136   ar
    65   138   140   ar
    66   170   169    1
    67   170   173    1
    68    48    50    1
    69    48    45    1
    70    48    49    1
    71    45    44    1
    72   101   100    1
    73   136   137   ar
    74   147   146    1
    75   147   148    1
    76   140   141   ar
    77    93    94    1
    78    93    92    1
    79   173   174    1
    80   150   149    1
    81   146   143    1
    82   148   142    1
    83   149   144   am
    84   137   139   ar
    85    44    37   am
    86   141   139   ar
    87   145   144    2
    88   100   102    1
    89   100    97    1
    90   144   143    1
    91    92    91    1
    92    91    88    1
    93   174   176   ar
    94   174   175   ar
    95   176   178   ar
    96   143   142    1
    97    38    37    2
    98    37    36    1
    99   122   121   ar
   100   122   120   ar
   101    96    97    1
   102    96    89   am
   103    97    98    1
   104   175   177   ar
   105   121   119   ar
   106    87    88    1
   107    88    89    1
   108   178   179   ar
   109    89    90    2
   110    15    14    1
   111   120   118   ar
   112    34    33    1
   113   111   109    1
   114    16    14    1
   115    36    39    1
   116    36    35    1
   117   177   179   ar
   118   179   180    1
   119    98    99    2
   120    28    26   ar
   121    32    31    2
   122   119   117   ar
   123    33    30    1
   124    14    13    1
   125    39    40    1
   126    35    31   am
   127   118   117   ar
   128    31    30    1
   129    26    27   ar
   130    26    25    1
   131    13    10    1
   132   109   108    1
   133   117   116    1
   134   110   108    1
   135    30    29    1
   136   108   105    1
   137    25    22    1
   138    42    41   ar
   139    40    41    1
   140    17    18    1
   141    17    11   am
   142    10    11    1
   143    10     9    1
   144    21    22    1
   145    21    19   am
   146   116   113    1
   147    41    43   ar
   148    18    19    1
   149   129   130    1
   150   129   128    1
   151    11    12    2
   152   105   104    1
   153   105   106    1
   154   112   113    1
   155   112   106   am
   156    22    23    1
   157    19    20    2
   158     9     3   am
   159   113   114    1
   160   106   107    2
   161     4     3    2
   162     3     2    1
   163    23    24    2
   164   128   127    1
   165     1     2    1
   166     2     5    1
   167   114   115    2
   168   127   124    1
   169     5     7    1
   170     5     6    1
   171   124   123    1
   172   124   125    1
   173     6     8    1
   174   125   126    2
