@<TRIPOS>MOLECULE
tmp/5lfgB00.pdb
 212 201 0 0 0
SMALL
GASTEIGER

@<TRIPOS>ATOM
      1  N         26.4000    1.5890   13.7530 N.3    28  LEU28      -0.1245
      2  CA        27.4970    1.1520   14.6460 C.3    28  LEU28       0.1561
      3  C         27.3000   -0.3020   15.0610 C.2    28  LEU28       0.2260
      4  O         28.2370   -1.1100   15.0580 O.2    28  LEU28      -0.2867
      5  CB        27.5820    2.0990   15.8360 C.3    28  LEU28       0.0270
      6  CG        28.6540    1.8650   16.8910 C.3    28  LEU28       0.0019
      7  CD1       30.0420    1.9150   16.2650 C.3    28  LEU28       0.0001
      8  CD2       28.5450    2.8950   18.0150 C.3    28  LEU28       0.0001
      9  N         28.5470   -2.3090   12.1900 N.3    31  CYS31      -0.1235
     10  CA        30.0060   -2.3040   12.0680 C.3    31  CYS31       0.1677
     11  C         30.6850   -3.1690   13.1210 C.2    31  CYS31       0.2270
     12  O         31.7360   -3.7640   12.8670 O.2    31  CYS31      -0.2867
     13  CB        30.4720   -0.8530   12.1570 C.3    31  CYS31       0.0956
     14  SG        32.2400   -0.5180   12.1860 S.3    31  CYS31      -0.0801
     15  N         36.4210   -3.6300   15.8210 N.3    38  THR38      -0.1218
     16  CA        36.0240   -2.3300   16.3560 C.3    38  THR38       0.1862
     17  C         35.4400   -2.4460   17.7580 C.2    38  THR38       0.2287
     18  O         35.2530   -1.4380   18.4470 O.2    38  THR38      -0.2866
     19  CB        34.9720   -1.6070   15.4890 C.3    38  THR38       0.1770
     20  OG1       33.8660   -2.4960   15.2880 O.3    38  THR38      -0.2211
     21  CG2       35.5270   -1.2450   14.1210 C.3    38  THR38       0.0375
     22  N         37.2020   -0.6950   21.2060 N.3    41  TYR41      -0.1227
     23  CA        37.0280    0.6160   21.8240 C.3    41  TYR41       0.1736
     24  C         35.8260    0.7220   22.7420 C.2    41  TYR41       0.2595
     25  O         35.7010    1.6920   23.4970 O.2    41  TYR41      -0.2718
     26  CB        36.9160    1.6570   20.6890 C.3    41  TYR41       0.0548
     27  CG        38.0660    1.4520   19.7160 C.ar   41  TYR41      -0.0200
     28  CD1       39.3530    1.8140   20.0980 C.ar   41  TYR41      -0.0009
     29  CD2       37.8430    0.8970   18.4670 C.ar   41  TYR41      -0.0009
     30  CE1       40.4070    1.6300   19.2230 C.ar   41  TYR41       0.0417
     31  CE2       38.8940    0.7100   17.5940 C.ar   41  TYR41       0.0417
     32  CZ        40.1650    1.0820   17.9840 C.ar   41  TYR41       0.1957
     33  OH        41.2150    0.9000   17.1220 O.3    41  TYR41      -0.2866
     34  N         34.9230   -0.2470   22.7160 N.am   42  PHE42      -0.1976
     35  CA        33.7380   -0.2360   23.5590 C.3    42  PHE42       0.1639
     36  C         33.7320   -1.3500   24.5930 C.2    42  PHE42       0.2290
     37  O         32.8700   -1.3730   25.4730 O.2    42  PHE42      -0.2864
     38  CB        32.4840   -0.3390   22.6570 C.3    42  PHE42       0.0560
     39  CG        32.4640    0.8500   21.7000 C.ar   42  PHE42      -0.0200
     40  CD1       32.0040    2.0850   22.1370 C.ar   42  PHE42      -0.0042
     41  CD2       32.9110    0.6970   20.4030 C.ar   42  PHE42      -0.0042
     42  CE1       32.0040    3.1470   21.2540 C.ar   42  PHE42      -0.0003
     43  CE2       32.9150    1.7590   19.5170 C.ar   42  PHE42      -0.0003
     44  CZ        32.4610    2.9930   19.9550 C.ar   42  PHE42      -0.0000
     45  N         32.5060   -1.0320   28.0310 N.3    45  PHE45      -0.1241
     46  CA        31.1150   -0.7780   28.3950 C.3    45  PHE45       0.1605
     47  C         30.5040   -2.0650   28.9620 C.2    45  PHE45       0.2264
     48  O         29.6190   -1.9900   29.8150 O.2    45  PHE45      -0.2867
     49  CB        30.3080   -0.2590   27.2040 C.3    45  PHE45       0.0534
     50  CG        30.6840    1.1770   26.8700 C.ar   45  PHE45      -0.0203
     51  CD1       31.9790    1.4850   26.4900 C.ar   45  PHE45      -0.0042
     52  CD2       29.7400    2.1860   26.9490 C.ar   45  PHE45      -0.0042
     53  CE1       32.3310    2.7890   26.1950 C.ar   45  PHE45      -0.0003
     54  CE2       30.0840    3.4960   26.6570 C.ar   45  PHE45      -0.0003
     55  CZ        31.3820    3.7920   26.2790 C.ar   45  PHE45      -0.0000
     56  N         26.2910    5.4930   20.4680 N.3    63  HIS63      -0.1241
     57  CA        27.3930    6.3130   19.9790 C.3    63  HIS63       0.1621
     58  C         27.2130    6.6380   18.5000 C.2    63  HIS63       0.2264
     59  O         27.6940    7.6690   18.0140 O.2    63  HIS63      -0.2867
     60  CB        28.7210    5.5890   20.2230 C.3    63  HIS63       0.0745
     61  CG        29.0080    5.6210   21.6970 C.ar   63  HIS63       0.0817
     62  ND1       28.3240    4.8100   22.5680 N.ar   63  HIS63      -0.2268
     63  CD2       29.8700    6.3520   22.4350 C.ar   63  HIS63       0.1154
     64  CE1       28.7660    5.0370   23.7940 C.ar   63  HIS63       0.1986
     65  NE2       29.6990    5.9630   23.7450 N.ar   63  HIS63      -0.2212
     66  N         25.8850   10.0280   18.0140 N.3    66  LYS66      -0.1231
     67  CA        26.8950   11.0820   18.1500 C.3    66  LYS66       0.1693
     68  C         27.7480   11.1950   16.8960 C.2    66  LYS66       0.2591
     69  O         28.1260   12.2830   16.4660 O.2    66  LYS66      -0.2718
     70  CB        27.7900   10.8330   19.3700 C.3    66  LYS66       0.0285
     71  CG        27.0000   10.6540   20.6570 C.3    66  LYS66       0.0035
     72  CD        27.9190   10.5460   21.8590 C.3    66  LYS66       0.0206
     73  CE        27.8120   11.7660   22.7570 C.3    66  LYS66       0.1093
     74  NZ        29.0650   12.0360   23.5180 N.3    66  LYS66      -0.1314
     75  N         28.0570   10.0520   16.2870 N.am   67  VAL67      -0.1980
     76  CA        28.7600   10.1010   15.0130 C.3    67  VAL67       0.1595
     77  C         27.9560   10.9320   14.0210 C.2    67  VAL67       0.2287
     78  O         28.4820   11.8570   13.4100 O.2    67  VAL67      -0.2864
     79  CB        28.9720    8.7030   14.4040 C.3    67  VAL67       0.0276
     80  CG1       29.4810    8.7990   12.9650 C.3    67  VAL67       0.0022
     81  CG2       29.9220    7.8890   15.2630 C.3    67  VAL67       0.0022
     82  N         28.0910   14.3160   14.5880 N.3    70  GLY70      -0.1210
     83  CA        29.4660   14.7510   14.3120 C.3    70  GLY70       0.1956
     84  C         29.5790   15.0870   12.8320 C.2    70  GLY70       0.2611
     85  O         30.3220   15.9780   12.4220 O.2    70  GLY70      -0.2717
     86  N         28.8050   14.3310   12.0540 N.am   71  LEU71      -0.1979
     87  CA        28.6660   14.6090   10.6340 C.3    71  LEU71       0.1596
     88  C         27.9060   15.9140   10.3880 C.2    71  LEU71       0.2287
     89  O         28.0740   16.5320    9.3350 O.2    71  LEU71      -0.2864
     90  CB        27.9450   13.4540    9.9500 C.3    71  LEU71       0.0297
     91  CG        28.6970   12.1230    9.8390 C.3    71  LEU71       0.0022
     92  CD1       27.9510   11.2330    8.8560 C.3    71  LEU71       0.0001
     93  CD2       30.1450   12.3060    9.4170 C.3    71  LEU71       0.0001
     94  N         28.2910   18.8330   11.4170 N.3    73  ARG73      -0.1245
     95  CA        29.2460   19.9180   11.3540 C.3    73  ARG73       0.1563
     96  C         29.8440   20.0380    9.9640 C.2    73  ARG73       0.2260
     97  O         29.9000   21.1350    9.4130 O.2    73  ARG73      -0.2867
     98  CB        30.3770   19.7280   12.3750 C.3    73  ARG73       0.0307
     99  CG        31.7670   19.9960   11.8040 C.3    73  ARG73       0.0489
    100  CD        32.8400   19.5540   12.7950 C.3    73  ARG73       0.2205
    101  NE        32.2420   18.8570   13.9240 N.pl3  73  ARG73      -0.0865
    102  CZ        32.6440   18.8450   15.1810 C.cat  73  ARG73       0.5346
    103  NH1       33.7140   19.5160   15.5650 N.pl3  73  ARG73       0.1354
    104  NH2       31.9440   18.1360   16.0610 N.pl3  73  ARG73       0.1354
    105  N         37.0200   19.4380   11.7920 N.3    85  TYR85      -0.1241
    106  CA        37.1340   18.2510   12.6450 C.3    85  TYR85       0.1605
    107  C         38.4110   18.1040   13.4450 C.2    85  TYR85       0.2264
    108  O         38.7720   16.9900   13.8510 O.2    85  TYR85      -0.2867
    109  CB        36.9540   17.0200   11.7110 C.3    85  TYR85       0.0534
    110  CG        35.5090   16.9510   11.2510 C.ar   85  TYR85      -0.0201
    111  CD1       35.0530   17.6220   10.1360 C.ar   85  TYR85      -0.0009
    112  CD2       34.6110   16.1860   11.9850 C.ar   85  TYR85      -0.0009
    113  CE1       33.7210   17.5270    9.7570 C.ar   85  TYR85       0.0417
    114  CE2       33.2900   16.0840   11.6240 C.ar   85  TYR85       0.0417
    115  CZ        32.8550   16.7620   10.5010 C.ar   85  TYR85       0.1957
    116  OH        31.5360   16.6440   10.1660 O.3    85  TYR85      -0.2866
    117  N         37.8330   16.8080   17.0510 N.3    88  LEU88      -0.1245
    118  CA        37.3440   15.4260   17.0300 C.3    88  LEU88       0.1561
    119  C         38.4880   14.4910   16.6400 C.2    88  LEU88       0.2260
    120  O         38.6810   13.3970   17.1760 O.2    88  LEU88      -0.2867
    121  CB        36.1420   15.3310   16.0930 C.3    88  LEU88       0.0270
    122  CG        34.7690   15.6520   16.6890 C.3    88  LEU88       0.0019
    123  CD1       33.6750   15.3850   15.6660 C.3    88  LEU88       0.0001
    124  CD2       34.5250   14.8490   17.9620 C.3    88  LEU88       0.0001
    125  N         40.8020   13.9400   19.5040 N.3    91  LEU91      -0.1231
    126  CA        40.1820   13.1000   20.5070 C.3    91  LEU91       0.1693
    127  C         40.2340   11.6150   20.1870 C.2    91  LEU91       0.2592
    128  O         40.5170   10.7670   21.0350 O.2    91  LEU91      -0.2718
    129  CB        38.7190   13.5500   20.6330 C.3    91  LEU91       0.0284
    130  CG        37.8990   12.7880   21.6720 C.3    91  LEU91       0.0019
    131  CD1       38.2860   13.2650   23.0670 C.3    91  LEU91       0.0001
    132  CD2       36.4060   12.9390   21.4120 C.3    91  LEU91       0.0001
    133  N         39.9500   11.2390   18.9410 N.am   92  HIS92      -0.1976
    134  CA        39.9250    9.8170   18.5890 C.3    92  HIS92       0.1656
    135  C         41.3280    9.2420   18.5160 C.2    92  HIS92       0.2291
    136  O         41.5840    8.0490   18.6760 O.2    92  HIS92      -0.2864
    137  CB        39.2040    9.6190   17.2590 C.3    92  HIS92       0.0771
    138  CG        37.7130    9.7240   17.3450 C.ar   92  HIS92       0.0820
    139  ND1       37.0730   10.9420   17.3550 N.ar   92  HIS92      -0.2267
    140  CD2       36.7370    8.7990   17.4270 C.ar   92  HIS92       0.1154
    141  CE1       35.7690   10.7580   17.4360 C.ar   92  HIS92       0.1986
    142  NE2       35.5330    9.4620   17.4820 N.ar   92  HIS92      -0.2212
    143  N         41.4380    8.4470   22.4270 N.3    96  LEU96      -0.1245
    144  CA        40.7430    7.1620   22.2810 C.3    96  LEU96       0.1561
    145  C         41.6340    6.1040   21.6710 C.2    96  LEU96       0.2260
    146  O         41.3120    4.9150   21.7540 O.2    96  LEU96      -0.2867
    147  CB        39.4910    7.3850   21.4300 C.3    96  LEU96       0.0270
    148  CG        38.5560    8.4670   21.9800 C.3    96  LEU96       0.0019
    149  CD1       37.4430    8.7250   20.9840 C.3    96  LEU96       0.0001
    150  CD2       38.0080    8.0610   23.3430 C.3    96  LEU96       0.0001
    151  N         41.9580    5.4940   18.4670 N.3    98  VAL98      -0.1245
    152  CA        41.1650    4.7290   17.5080 C.3    98  VAL98       0.1561
    153  C         41.8660    4.5760   16.1750 C.2    98  VAL98       0.2260
    154  O         42.3200    5.5240   15.5550 O.2    98  VAL98      -0.2867
    155  CB        39.7870    5.3820   17.2860 C.3    98  VAL98       0.0252
    156  CG1       39.0640    4.7470   16.1080 C.3    98  VAL98       0.0019
    157  CG2       38.9340    5.2650   18.5470 C.3    98  VAL98       0.0019
    158  N         39.2830    2.4560   10.9130 N.3   102  ASN102     -0.1225
    159  CA        37.9400    2.1900   11.4320 C.3   102  ASN102      0.1785
    160  C         36.9540    3.2700   11.0130 C.2   102  ASN102      0.2597
    161  O         35.7260    3.0950   10.9020 O.2   102  ASN102     -0.2718
    162  CB        38.0840    2.0310   12.9440 C.3   102  ASN102      0.1169
    163  CG        38.8450    0.7450   13.2710 C.2   102  ASN102      0.2627
    164  OD1       38.4880   -0.3230   12.7680 O.2   102  ASN102     -0.2716
    165  ND2       39.8700    0.8330   14.0950 N.am  102  ASN102     -0.0877
    166  N         37.4640    4.4750   10.7260 N.am  103  PHE103     -0.1976
    167  CA        36.5330    5.4910   10.2420 C.3   103  PHE103      0.1639
    168  C         35.9660    5.0800    8.8930 C.2   103  PHE103      0.2290
    169  O         34.7970    5.3510    8.6010 O.2   103  PHE103     -0.2864
    170  CB        37.2140    6.8490   10.1320 C.3   103  PHE103      0.0560
    171  CG        37.8340    7.4020   11.3960 C.ar  103  PHE103     -0.0200
    172  CD1       37.2750    7.2010   12.6480 C.ar  103  PHE103     -0.0042
    173  CD2       39.0000    8.1500   11.3370 C.ar  103  PHE103     -0.0042
    174  CE1       37.8460    7.7300   13.7890 C.ar  103  PHE103     -0.0003
    175  CE2       39.5840    8.6790   12.4710 C.ar  103  PHE103     -0.0003
    176  CZ        39.0110    8.4700   13.7090 C.ar  103  PHE103     -0.0000
    177  N         33.3030    2.2280    9.4380 N.3   106  LEU106     -0.1231
    178  CA        32.0060    2.7330    9.8800 C.3   106  LEU106      0.1693
    179  C         31.2760    3.4890    8.7800 C.2   106  LEU106      0.2592
    180  O         30.0590    3.3860    8.6280 O.2   106  LEU106     -0.2718
    181  CB        32.1770    3.6500   11.1040 C.3   106  LEU106      0.0284
    182  CG        30.8670    4.1470   11.7310 C.3   106  LEU106      0.0019
    183  CD1       29.9170    2.9950   12.0680 C.3   106  LEU106      0.0001
    184  CD2       31.1400    4.9790   12.9760 C.3   106  LEU106      0.0001
    185  N         31.9970    4.2810    7.9910 N.am  107  SER107     -0.1952
    186  CA        31.3800    5.0180    6.8960 C.3   107  SER107      0.1924
    187  C         30.6380    4.0630    5.9570 C.2   107  SER107      0.2314
    188  O         29.5080    4.3350    5.5770 O.2   107  SER107     -0.2863
    189  CB        32.4040    5.7950    6.0710 C.3   107  SER107      0.2116
    190  OG        32.8890    6.9360    6.7650 O.3   107  SER107     -0.2180
    191  N         35.2070   13.6750    5.3490 N.3   137  VAL137     -0.1231
    192  CA        35.2290   13.7800    6.8180 C.3   137  VAL137      0.1692
    193  C         36.2430   12.8140    7.3890 C.2   137  VAL137      0.2591
    194  O         36.9460   13.0570    8.3650 O.2   137  VAL137     -0.2718
    195  CB        33.8220   13.5270    7.3580 C.3   137  VAL137      0.0266
    196  CG1       33.8190   13.4860    8.8750 C.3   137  VAL137      0.0020
    197  CG2       32.8890   14.6250    6.8560 C.3   137  VAL137      0.0020
    198  N         36.3050   11.6550    6.7240 N.am  138  VAL138     -0.1980
    199  CA        37.2420   10.6330    7.1950 C.3   138  VAL138      0.1595
    200  C         38.6520   11.2060    7.1390 C.2   138  VAL138      0.2287
    201  O         39.4040   11.1680    8.1090 O.2   138  VAL138     -0.2864
    202  CB        37.1630    9.3450    6.3680 C.3   138  VAL138      0.0276
    203  CG1       38.3490    8.4230    6.6610 C.3   138  VAL138      0.0022
    204  CG2       35.8630    8.5950    6.6210 C.3   138  VAL138      0.0022
    205  N         39.3150   13.4960    9.7410 N.3   141  LEU141     -0.1245
    206  CA        39.5060   12.8970   11.0660 C.3   141  LEU141      0.1561
    207  C         40.8670   12.2530   11.2370 C.2   141  LEU141      0.2260
    208  O         41.3740   12.0200   12.3310 O.2   141  LEU141     -0.2867
    209  CB        38.4230   11.8410   11.3100 C.3   141  LEU141      0.0270
    210  CG        37.0490   12.3920   11.6560 C.3   141  LEU141      0.0019
    211  CD1       36.0090   11.2880   11.5840 C.3   141  LEU141      0.0001
    212  CD2       37.0650   13.0230   13.0390 C.3   141  LEU141      0.0001
@<TRIPOS>BOND
     1   191   192    1
     2   188   187    2
     3   187   186    1
     4   189   190    1
     5   189   186    1
     6   202   204    1
     7   202   203    1
     8   202   199    1
     9   198   199    1
    10   198   193   am
    11   192   195    1
    12   192   193    1
    13   197   195    1
    14   186   185    1
    15   200   199    1
    16   200   201    2
    17   195   196    1
    18   193   194    2
    19   185   179   am
    20   169   168    2
    21   180   179    2
    22   179   178    1
    23    92    91    1
    24   168   167    1
    25    89    88    2
    26    97    96    2
    27    93    91    1
    28   177   178    1
    29   205   206    1
    30   113   111   ar
    31   113   115   ar
    32    91    90    1
    33   178   181    1
    34    90    87    1
    35    96    95    1
    36   170   167    1
    37   170   171    1
    38   111   110   ar
    39   116   115    1
    40   167   166    1
    41    88    87    1
    42   115   114   ar
    43    87    86    1
    44   166   160   am
    45   161   160    2
    46   158   159    1
    47   160   159    1
    48   206   207    1
    49   206   209    1
    50   181   182    1
    51   207   208    2
    52   110   109    1
    53   110   112   ar
    54   209   210    1
    55   173   171   ar
    56   173   175   ar
    57    95    94    1
    58    95    98    1
    59   171   172   ar
    60   159   162    1
    61   211   210    1
    62   114   112   ar
    63   210   212    1
    64   109   106    1
    65   182   183    1
    66   182   184    1
    67   105   106    1
    68    99    98    1
    69    99   100    1
    70    86    84   am
    71    10    13    1
    72    10     9    1
    73    10    11    1
    74    13    14    1
    75    85    84    2
    76   175   176   ar
    77   106   107    1
    78   172   174   ar
    79   164   163    2
    80   100   101    1
    81    84    83    1
    82    12    11    2
    83   162   163    1
    84    80    79    1
    85   163   165   am
    86    78    77    2
    87   107   108    2
    88   176   174   ar
    89     1     2    1
    90   101   102    2
    91    77    76    1
    92    21    19    1
    93    83    82    1
    94    79    76    1
    95    79    81    1
    96     2     3    1
    97     2     5    1
    98    76    75    1
    99     4     3    2
   100   102   103    1
   101   102   104    1
   102    20    19    1
   103    19    16    1
   104   154   153    2
   105   123   122    1
   106    15    16    1
   107     5     6    1
   108   121   122    1
   109   121   118    1
   110   156   155    1
   111   153   152    1
   112     7     6    1
   113    75    68   am
   114    16    17    1
   115    69    68    2
   116   119   118    1
   117   119   120    2
   118   122   124    1
   119     6     8    1
   120    68    67    1
   121   118   117    1
   122    33    32    1
   123   137   138    1
   124   137   134    1
   125   155   152    1
   126   155   157    1
   127   138   139   ar
   128   138   140   ar
   129   139   141   ar
   130   140   142   ar
   131   141   142   ar
   132   152   151    1
   133    31    32   ar
   134    31    29   ar
   135    17    18    2
   136    32    30   ar
   137    66    67    1
   138    59    58    2
   139    67    70    1
   140    29    27   ar
   141    58    57    1
   142   135   134    1
   143   135   136    2
   144   134   133    1
   145   133   127   am
   146    30    28   ar
   147    70    71    1
   148   125   126    1
   149    43    44   ar
   150    43    41   ar
   151    27    28   ar
   152    27    26    1
   153    44    42   ar
   154    57    60    1
   155    57    56    1
   156   127   126    1
   157   127   128    2
   158    60    61    1
   159    41    39   ar
   160   126   129    1
   161   129   130    1
   162    71    72    1
   163    26    23    1
   164   149   148    1
   165    22    23    1
   166    42    40   ar
   167   132   130    1
   168   147   148    1
   169   147   144    1
   170   145   146    2
   171   145   144    1
   172   130   131    1
   173    61    63   ar
   174    61    62   ar
   175    39    40   ar
   176    39    38    1
   177    23    24    1
   178    72    73    1
   179   148   150    1
   180   144   143    1
   181    63    65   ar
   182    62    64   ar
   183    38    35    1
   184    34    24   am
   185    34    35    1
   186    24    25    2
   187    73    74    1
   188    35    36    1
   189    65    64   ar
   190    36    37    2
   191    53    55   ar
   192    53    51   ar
   193    55    54   ar
   194    51    50   ar
   195    54    52   ar
   196    50    52   ar
   197    50    49    1
   198    49    46    1
   199    45    46    1
   200    46    47    1
   201    47    48    2
