@<TRIPOS>MOLECULE
tmp/5lg3J00.pdb
 175 171 0 0 0
SMALL
GASTEIGER

@<TRIPOS>ATOM
      1  N        -98.1290 -103.2280  -13.2770 N.3    10  ILE10      -0.1231
      2  CA       -96.9420 -103.2330  -14.1260 C.3    10  ILE10       0.1692
      3  C        -96.0440 -104.3850  -13.6990 C.2    10  ILE10       0.2592
      4  O        -95.5540 -104.4180  -12.5630 O.2    10  ILE10      -0.2718
      5  CB       -96.1920 -101.8940  -14.0700 C.3    10  ILE10       0.0266
      6  CG1      -97.0140 -100.8070  -14.7680 C.3    10  ILE10       0.0019
      7  CG2      -94.8100 -102.0400  -14.6940 C.3    10  ILE10       0.0020
      8  CD1      -96.2440  -99.5430  -15.0780 C.3    10  ILE10       0.0001
      9  N        -95.8160 -105.3200  -14.6200 N.am   11  ASN11      -0.1960
     10  CA       -95.0960 -106.5530  -14.3270 C.3    11  ASN11       0.1819
     11  C        -93.6180 -106.4560  -14.6550 C.2    11  ASN11       0.2621
     12  O        -92.7940 -107.0700  -13.9660 O.2    11  ASN11      -0.2715
     13  CB       -95.6930 -107.7220  -15.1160 C.3    11  ASN11       0.1195
     14  CG       -96.7730 -108.4490  -14.3540 C.2    11  ASN11       0.2630
     15  OD1      -97.2410 -109.5050  -14.7770 O.2    11  ASN11      -0.2716
     16  ND2      -97.1840 -107.8830  -13.2260 N.am   11  ASN11      -0.0877
     17  N        -93.2730 -105.6940  -15.6910 N.am   12  LYS12      -0.1963
     18  CA       -91.9110 -105.6380  -16.1970 C.3    12  LYS12       0.1728
     19  C        -91.7550 -104.4880  -17.1840 C.2    12  LYS12       0.2616
     20  O        -92.5870 -104.3130  -18.0800 O.2    12  LYS12      -0.2715
     21  CB       -91.5570 -106.9710  -16.8660 C.3    12  LYS12       0.0311
     22  CG       -90.1410 -107.0940  -17.3990 C.3    12  LYS12       0.0038
     23  CD       -89.9940 -108.3990  -18.1730 C.3    12  LYS12       0.0206
     24  CE       -88.6290 -108.5340  -18.8330 C.3    12  LYS12       0.1093
     25  NZ       -87.5690 -108.9260  -17.8600 N.3    12  LYS12      -0.1314
     26  N        -90.7020 -103.6940  -17.0160 N.am   13  ILE13      -0.1963
     27  CA       -90.3150 -102.6580  -17.9670 C.3    13  ILE13       0.1727
     28  C        -88.9150 -103.0060  -18.4500 C.2    13  ILE13       0.2616
     29  O        -87.9940 -103.1470  -17.6360 O.2    13  ILE13      -0.2715
     30  CB       -90.3620 -101.2500  -17.3480 C.3    13  ILE13       0.0290
     31  CG1      -91.7020 -101.0060  -16.6460 C.3    13  ILE13       0.0022
     32  CG2      -90.1310 -100.1880  -18.4090 C.3    13  ILE13       0.0023
     33  CD1      -91.8680  -99.5890  -16.1160 C.3    13  ILE13       0.0001
     34  N        -88.7610 -103.1940  -19.7590 N.am   14  TYR14      -0.1974
     35  CA       -87.5060 -103.7010  -20.2950 C.3    14  TYR14       0.1639
     36  C        -87.3150 -103.1980  -21.7210 C.2    14  TYR14       0.2290
     37  O        -88.2170 -102.6110  -22.3230 O.2    14  TYR14      -0.2864
     38  CB       -87.4750 -105.2310  -20.2540 C.3    14  TYR14       0.0560
     39  CG       -88.3970 -105.8790  -21.2600 C.ar   14  TYR14      -0.0198
     40  CD1      -89.7420 -106.0870  -20.9800 C.ar   14  TYR14      -0.0009
     41  CD2      -87.9120 -106.3020  -22.4890 C.ar   14  TYR14      -0.0009
     42  CE1      -90.5800 -106.6860  -21.9080 C.ar   14  TYR14       0.0417
     43  CE2      -88.7360 -106.8990  -23.4160 C.ar   14  TYR14       0.0417
     44  CZ       -90.0670 -107.0900  -23.1260 C.ar   14  TYR14       0.1957
     45  OH       -90.8750 -107.6860  -24.0650 O.3    14  TYR14      -0.2866
     46  N        -85.1860 -100.7910  -23.5200 N.3    16  VAL16      -0.1245
     47  CA       -85.1850  -99.4160  -24.0020 C.3    16  VAL16       0.1561
     48  C        -84.6030  -99.3700  -25.4130 C.2    16  VAL16       0.2260
     49  O        -83.6870 -100.1290  -25.7570 O.2    16  VAL16      -0.2867
     50  CB       -84.3940  -98.5130  -23.0370 C.3    16  VAL16       0.0252
     51  CG1      -84.6690  -97.0500  -23.3270 C.3    16  VAL16       0.0019
     52  CG2      -84.7300  -98.8480  -21.5900 C.3    16  VAL16       0.0019
     53  N        -90.5420  -93.0400  -17.6060 N.3   116  PHE116     -0.1241
     54  CA       -91.3450  -93.9850  -18.3710 C.3   116  PHE116      0.1605
     55  C        -92.8240  -93.7820  -18.0590 C.2   116  PHE116      0.2264
     56  O        -93.2090  -93.6730  -16.8910 O.2   116  PHE116     -0.2867
     57  CB       -90.8860  -95.4080  -18.0550 C.3   116  PHE116      0.0534
     58  CG       -89.3970  -95.5970  -18.2060 C.ar  116  PHE116     -0.0203
     59  CD1      -88.5250  -95.2460  -17.1810 C.ar  116  PHE116     -0.0042
     60  CD2      -88.8650  -96.0930  -19.3840 C.ar  116  PHE116     -0.0042
     61  CE1      -87.1550  -95.3980  -17.3290 C.ar  116  PHE116     -0.0003
     62  CE2      -87.4970  -96.2520  -19.5340 C.ar  116  PHE116     -0.0003
     63  CZ       -86.6410  -95.9020  -18.5060 C.ar  116  PHE116     -0.0000
     64  N        -97.1740 -101.3290   -8.6960 N.3   137  VAL137     -0.1231
     65  CA       -95.8170 -101.8040   -8.9270 C.3   137  VAL137      0.1692
     66  C        -95.3450 -102.5290   -7.6760 C.2   137  VAL137      0.2592
     67  O        -95.6260 -102.0890   -6.5550 O.2   137  VAL137     -0.2718
     68  CB       -94.8800 -100.6320   -9.2700 C.3   137  VAL137      0.0266
     69  CG1      -93.5500 -101.1550   -9.6930 C.3   137  VAL137      0.0020
     70  CG2      -95.4920  -99.7780  -10.3770 C.3   137  VAL137      0.0020
     71  N        -94.6410 -103.6490   -7.8560 N.am  138  TYR138     -0.1962
     72  CA       -94.2030 -104.4580   -6.7220 C.3   138  TYR138      0.1771
     73  C        -92.6900 -104.6720   -6.8220 C.2   138  TYR138      0.2620
     74  O        -92.2010 -105.7820   -7.0410 O.2   138  TYR138     -0.2715
     75  CB       -94.9590 -105.7900   -6.6500 C.3   138  TYR138      0.0574
     76  CG       -94.8190 -106.7220   -7.8400 C.ar  138  TYR138     -0.0198
     77  CD1      -94.1800 -107.9460   -7.6930 C.ar  138  TYR138     -0.0009
     78  CD2      -95.3120 -106.3880   -9.0970 C.ar  138  TYR138     -0.0009
     79  CE1      -94.0400 -108.8150   -8.7520 C.ar  138  TYR138      0.0417
     80  CE2      -95.1750 -107.2570  -10.1690 C.ar  138  TYR138      0.0417
     81  CZ       -94.5370 -108.4680   -9.9870 C.ar  138  TYR138      0.1957
     82  OH       -94.3940 -109.3390  -11.0430 O.3   138  TYR138     -0.2866
     83  N        -91.9360 -103.5950   -6.6350 N.am  139  THR139     -0.1937
     84  CA       -90.4800 -103.6720   -6.6390 C.3   139  THR139      0.2028
     85  C        -89.9580 -102.8120   -5.4950 C.2   139  THR139      0.2642
     86  O        -90.6910 -102.4440   -4.5710 O.2   139  THR139     -0.2714
     87  CB       -89.8850 -103.2580   -7.9970 C.3   139  THR139      0.1808
     88  OG1      -89.9710 -101.8370   -8.1580 O.3   139  THR139     -0.2208
     89  CG2      -90.5740 -103.9610   -9.1590 C.3   139  THR139      0.0379
     90  N        -88.6780 -102.4680   -5.5690 N.am  140  GLU140     -0.1963
     91  CA       -87.9400 -101.8940   -4.4570 C.3   140  GLU140      0.1733
     92  C        -86.6400 -101.2880   -4.9630 C.2   140  GLU140      0.2616
     93  O        -86.0170 -101.8150   -5.8870 O.2   140  GLU140     -0.2715
     94  CB       -87.6890 -102.9330   -3.3480 C.3   140  GLU140      0.0429
     95  CG       -86.6950 -104.0480   -3.6630 C.3   140  GLU140      0.1163
     96  CD       -87.1090 -104.8860   -4.8660 C.2   140  GLU140      0.3649
     97  OE1      -86.3430 -104.9660   -5.8500 O.co2 140  GLU140     -0.2457
     98  OE2      -88.2500 -105.3980   -4.8530 O.co2 140  GLU140     -0.2457
     99  N        -86.2410 -100.1850   -4.3400 N.am  141  ASN141     -0.1972
    100  CA       -85.2240  -99.2680   -4.8470 C.3   141  ASN141      0.1688
    101  C        -84.6260  -98.5420   -3.6430 C.2   141  ASN141      0.2292
    102  O        -85.3610  -98.2300   -2.7160 O.2   141  ASN141     -0.2864
    103  CB       -85.8540  -98.2880   -5.8400 C.3   141  ASN141      0.1181
    104  CG       -84.9870  -98.0380   -7.0470 C.2   141  ASN141      0.2629
    105  OD1      -84.0470  -97.2430   -6.9880 O.2   141  ASN141     -0.2716
    106  ND2      -85.2330  -98.7770   -8.1210 N.am  141  ASN141     -0.0877
    107  N        -81.8600 -104.0760   -5.6920 N.3   144  ASN144     -0.1225
    108  CA       -81.3750 -105.0770   -6.6550 C.3   144  ASN144      0.1785
    109  C        -80.6270 -104.4850   -7.8510 C.2   144  ASN144      0.2597
    110  O        -79.5280 -104.9480   -8.1820 O.2   144  ASN144     -0.2718
    111  CB       -82.5580 -105.9160   -7.1500 C.3   144  ASN144      0.1169
    112  CG       -82.9990 -106.9670   -6.1390 C.2   144  ASN144      0.2627
    113  OD1      -83.0030 -106.7200   -4.9310 O.2   144  ASN144     -0.2716
    114  ND2      -83.3770 -108.1400   -6.6300 N.am  144  ASN144     -0.0877
    115  N        -81.2330 -103.5320   -8.5600 N.am  145  GLU145     -0.1979
    116  CA       -80.6860 -102.8630   -9.7470 C.3   145  GLU145      0.1602
    117  C        -79.1840 -102.6130   -9.8340 C.2   145  GLU145      0.2287
    118  O        -78.7450 -101.6820  -10.5160 O.2   145  GLU145     -0.2864
    119  CB       -81.3550 -101.5310   -9.8750 C.3   145  GLU145      0.0415
    120  CG       -81.2130 -100.9160   -8.5680 C.3   145  GLU145      0.1163
    121  CD       -82.5280 -100.6100   -7.9950 C.2   145  GLU145      0.3649
    122  OE1      -83.3150 -101.5510   -7.7770 O.co2 145  GLU145     -0.2457
    123  OE2      -82.7600  -99.4260   -7.7210 O.co2 145  GLU145     -0.2457
    124  N        -80.2050 -105.1160  -11.9670 N.3   148  ASP148     -0.1225
    125  CA       -81.0920 -104.4670  -12.9260 C.3   148  ASP148      0.1805
    126  C        -80.4930 -103.1550  -13.4270 C.2   148  ASP148      0.2598
    127  O        -79.6270 -102.5580  -12.7870 O.2   148  ASP148     -0.2718
    128  CB       -82.4820 -104.2260  -12.3260 C.3   148  ASP148      0.1424
    129  CG       -83.2100 -105.5210  -12.0020 C.2   148  ASP148      0.3668
    130  OD1      -83.1260 -106.4680  -12.8130 O.co2 148  ASP148     -0.2456
    131  OD2      -83.8600 -105.5990  -10.9400 O.co2 148  ASP148     -0.2456
    132  N        -80.9400 -102.7340  -14.6120 N.am  149  GLU149     -0.1965
    133  CA       -80.2890 -101.6270  -15.3080 C.3   149  GLU149      0.1733
    134  C        -80.6210 -100.2550  -14.7150 C.2   149  GLU149      0.2616
    135  O        -79.8020  -99.3340  -14.8150 O.2   149  GLU149     -0.2715
    136  CB       -80.6390 -101.6950  -16.7920 C.3   149  GLU149      0.0429
    137  CG       -79.6330 -101.0230  -17.7030 C.3   149  GLU149      0.1163
    138  CD       -79.9440 -101.2760  -19.1580 C.2   149  GLU149      0.3649
    139  OE1      -79.9420 -100.3150  -19.9520 O.co2 149  GLU149     -0.2457
    140  OE2      -80.2210 -102.4470  -19.4960 O.co2 149  GLU149     -0.2457
    141  N        -81.8010 -100.0800  -14.1160 N.am  150  TRP150     -0.1974
    142  CA       -82.3300  -98.7560  -13.7950 C.3   150  TRP150      0.1640
    143  C        -82.6620  -98.5820  -12.3140 C.2   150  TRP150      0.2290
    144  O        -83.0410  -99.5350  -11.6290 O.2   150  TRP150     -0.2864
    145  CB       -83.5730  -98.4760  -14.6420 C.3   150  TRP150      0.0576
    146  CG       -83.2490  -98.3170  -16.0870 C.ar  150  TRP150      0.0006
    147  CD1      -83.1910  -99.3010  -17.0280 C.ar  150  TRP150      0.0946
    148  CD2      -83.0020  -97.0880  -16.7770 C.ar  150  TRP150      0.0152
    149  NE1      -82.8870  -98.7670  -18.2550 N.ar  150  TRP150     -0.2442
    150  CE2      -82.7690  -97.4080  -18.1280 C.ar  150  TRP150      0.0810
    151  CE3      -82.9420  -95.7500  -16.3790 C.ar  150  TRP150      0.0012
    152  CZ2      -82.4790  -96.4380  -19.0850 C.ar  150  TRP150      0.0191
    153  CZ3      -82.6530  -94.7890  -17.3290 C.ar  150  TRP150      0.0001
    154  CH2      -82.4260  -95.1380  -18.6660 C.ar  150  TRP150      0.0015
    155  N        -85.2610  -96.6500  -10.0510 N.3   152  ILE152     -0.1245
    156  CA       -86.4930  -95.8690   -9.9340 C.3   152  ILE152      0.1561
    157  C        -86.3800  -94.9390   -8.7330 C.2   152  ILE152      0.2260
    158  O        -85.8700  -95.3220   -7.6730 O.2   152  ILE152     -0.2867
    159  CB       -87.7350  -96.7750   -9.8450 C.3   152  ILE152      0.0252
    160  CG1      -87.9770  -97.3010   -8.4280 C.3   152  ILE152      0.0019
    161  CG2      -87.5930  -97.9510  -10.7940 C.3   152  ILE152      0.0019
    162  CD1      -89.0480  -98.3810   -8.3350 C.3   152  ILE152      0.0001
    163  N        -93.5350  -93.0400  -14.1550 N.3   185  ILE185     -0.1245
    164  CA       -92.5790  -93.5210  -13.1630 C.3   185  ILE185      0.1561
    165  C        -91.1920  -93.0180  -13.5510 C.2   185  ILE185      0.2260
    166  O        -90.7900  -93.1320  -14.7150 O.2   185  ILE185     -0.2867
    167  CB       -92.6040  -95.0580  -13.0500 C.3   185  ILE185      0.0252
    168  CG1      -94.0330  -95.5470  -12.7850 C.3   185  ILE185      0.0019
    169  CG2      -91.6650  -95.5260  -11.9440 C.3   185  ILE185      0.0019
    170  CD1      -94.3930  -96.8480  -13.4850 C.3   185  ILE185      0.0001
    171  N        -86.9780  -92.8590  -13.2980 N.3   187  ALA187     -0.1245
    172  CA       -85.9050  -93.8370  -13.1660 C.3   187  ALA187      0.1562
    173  C        -84.5600  -93.2220  -13.5390 C.2   187  ALA187      0.2260
    174  O        -84.4780  -92.2380  -14.2790 O.2   187  ALA187     -0.2867
    175  CB       -86.1670  -95.0770  -14.0280 C.3   187  ALA187      0.0290
@<TRIPOS>BOND
     1    49    48    2
     2    48    47    1
     3    45    44    1
     4    47    46    1
     5    47    50    1
     6    43    44   ar
     7    43    41   ar
     8    51    50    1
     9    44    42   ar
    10    50    52    1
    11    41    39   ar
    12    37    36    2
    13    42    40   ar
    14    36    35    1
    15    39    40   ar
    16    39    38    1
    17    35    38    1
    18    35    34    1
    19   139   138   ar
    20    34    28   am
    21    62    60   ar
    22    62    63   ar
    23   140   138   ar
    24    60    58   ar
    25   138   137    1
    26   152   154   ar
    27   152   150   ar
    28    24    23    1
    29    24    25    1
    30   154   153   ar
    31    63    61   ar
    32    28    27    1
    33    28    29    2
    34    32    30    1
    35    54    55    1
    36    54    57    1
    37    54    53    1
    38   149   150   ar
    39   149   147   ar
    40    58    57    1
    41    58    59   ar
    42    23    22    1
    43   150   148   ar
    44    20    19    2
    45    55    56    2
    46    27    30    1
    47    27    26    1
    48   137   136    1
    49    22    21    1
    50    30    31    1
    51   153   151   ar
    52    61    59   ar
    53    19    26   am
    54    19    18    1
    55   147   146   ar
    56    21    18    1
    57   136   133    1
    58   148   151   ar
    59   148   146   ar
    60    31    33    1
    61    18    17    1
    62   146   145    1
    63    17    11   am
    64   133   134    1
    65   133   132    1
    66    13    14    1
    67    13    10    1
    68     8     6    1
    69   135   134    2
    70    15    14    2
    71     6     5    1
    72   166   165    2
    73   134   141   am
    74     7     5    1
    75    11    10    1
    76    11    12    2
    77   145   142    1
    78     9    10    1
    79     9     3   am
    80   132   126   am
    81    14    16   am
    82   174   173    2
    83   163   164    1
    84     2     5    1
    85     2     3    1
    86     2     1    1
    87   141   142    1
    88   175   172    1
    89   142   143    1
    90     3     4    2
    91   165   164    1
    92   173   172    1
    93   170   168    1
    94   126   125    1
    95   126   127    2
    96   171   172    1
    97   164   167    1
    98   167   168    1
    99   167   169    1
   100   125   128    1
   101   125   124    1
   102   130   129   ar
   103   128   129    1
   104   143   144    2
   105   129   131   ar
   106    82    81    1
   107   161   159    1
   108   118   117    2
   109    70    68    1
   110    80    81   ar
   111    80    78   ar
   112   155   156    1
   113    81    79   ar
   114   156   159    1
   115   156   157    1
   116   119   116    1
   117   119   120    1
   118   159   160    1
   119   117   116    1
   120   116   115    1
   121    69    68    1
   122    68    65    1
   123    89    87    1
   124    78    76   ar
   125    65    64    1
   126    65    66    1
   127    79    77   ar
   128   157   158    2
   129   120   121    1
   130   115   109   am
   131   160   162    1
   132   110   109    2
   133    88    87    1
   134   106   104   am
   135    87    84    1
   136   121   122   ar
   137   121   123   ar
   138    71    66   am
   139    71    72    1
   140   109   108    1
   141    76    77   ar
   142    76    75    1
   143    66    67    2
   144   111   108    1
   145   111   112    1
   146   104   105    2
   147   104   103    1
   148    74    73    2
   149    73    72    1
   150    73    83   am
   151    72    75    1
   152   108   107    1
   153    84    83    1
   154    84    85    1
   155   114   112   am
   156   112   113    2
   157    93    92    2
   158    97    96   ar
   159   103   100    1
   160    90    85   am
   161    90    91    1
   162    85    86    2
   163    92    91    1
   164    92    99   am
   165    96    98   ar
   166    96    95    1
   167   100    99    1
   168   100   101    1
   169    91    94    1
   170    95    94    1
   171   101   102    2
