@<TRIPOS>MOLECULE
tmp/5lg6A01.pdb
 85 78 0 0 0
SMALL
GASTEIGER

@<TRIPOS>ATOM
      1  N         62.5970  115.5980   22.1060 N.3    22  SER22      -0.1202
      2  CA        61.3890  115.2000   21.4130 C.3    22  SER22       0.2020
      3  C         61.4870  113.7650   20.8910 C.2    22  SER22       0.2619
      4  O         62.5880  113.2670   20.6560 O.2    22  SER22      -0.2717
      5  CB        61.1630  116.1790   20.2540 C.3    22  SER22       0.2103
      6  OG        59.9730  115.8770   19.5690 O.3    22  SER22      -0.2182
      7  N         60.3380  113.1240   20.6770 N.am   23  TYR23      -0.1961
      8  CA        60.2870  111.7690   20.1230 C.3    23  TYR23       0.1771
      9  C         59.3540  111.6650   18.9210 C.2    23  TYR23       0.2619
     10  O         58.2860  112.2720   18.9050 O.2    23  TYR23      -0.2715
     11  CB        59.7430  110.7600   21.1420 C.3    23  TYR23       0.0574
     12  CG        60.5410  110.5140   22.4010 C.ar   23  TYR23      -0.0198
     13  CD1       61.2920  109.3430   22.5600 C.ar   23  TYR23      -0.0009
     14  CD2       60.4810  111.4020   23.4640 C.ar   23  TYR23      -0.0009
     15  CE1       61.9890  109.0890   23.7440 C.ar   23  TYR23       0.0417
     16  CE2       61.1630  111.1620   24.6350 C.ar   23  TYR23       0.0417
     17  CZ        61.9080  110.0110   24.7810 C.ar   23  TYR23       0.1957
     18  OH        62.5750  109.7990   25.9530 O.3    23  TYR23      -0.2866
     19  N         59.7480  110.8610   17.9330 N.am   24  ASN24      -0.1972
     20  CA        58.8100  110.3290   16.9520 C.3    24  ASN24       0.1688
     21  C         58.5880  108.8510   17.2340 C.2    24  ASN24       0.2292
     22  O         59.5270  108.0760   17.2980 O.2    24  ASN24      -0.2864
     23  CB        59.3480  110.4630   15.5250 C.3    24  ASN24       0.1181
     24  CG        59.2920  111.8680   15.0080 C.2    24  ASN24       0.2629
     25  OD1       58.9130  112.7910   15.7270 O.2    24  ASN24      -0.2716
     26  ND2       59.6820  112.0530   13.7510 N.am   24  ASN24      -0.0877
     27  N         62.3230  107.4030   17.0870 N.3    46  ILE46      -0.1245
     28  CA        63.4870  108.2760   17.0540 C.3    46  ILE46       0.1561
     29  C         63.4050  109.2760   18.2010 C.2    46  ILE46       0.2260
     30  O         62.4130  109.9870   18.3470 O.2    46  ILE46      -0.2867
     31  CB        63.5850  109.0330   15.7220 C.3    46  ILE46       0.0252
     32  CG1       63.4900  108.0540   14.5530 C.3    46  ILE46       0.0019
     33  CG2       64.8960  109.7890   15.6310 C.3    46  ILE46       0.0019
     34  CD1       63.5880  108.7240   13.1990 C.3    46  ILE46       0.0001
     35  N         65.2200  112.6110   19.9870 N.3    48  ARG48      -0.1245
     36  CA        66.2160  113.6570   19.8700 C.3    48  ARG48       0.1563
     37  C         66.5580  114.1650   21.2560 C.2    48  ARG48       0.2260
     38  O         65.6820  114.6010   22.0030 O.2    48  ARG48      -0.2867
     39  CB        65.7390  114.8080   18.9940 C.3    48  ARG48       0.0307
     40  CG        66.8140  115.8570   18.7760 C.3    48  ARG48       0.0489
     41  CD        66.2270  117.1800   18.3290 C.3    48  ARG48       0.2205
     42  NE        65.2830  116.9910   17.2370 N.pl3  48  ARG48      -0.0865
     43  CZ        64.0920  117.5710   17.1820 C.cat  48  ARG48       0.5346
     44  NH1       63.7000  118.3930   18.1500 N.pl3  48  ARG48       0.1354
     45  NH2       63.2980  117.3310   16.1600 N.pl3  48  ARG48       0.1354
     46  N         70.1320  112.3840   17.3600 N.3   108  GLU108     -0.1245
     47  CA        68.9370  111.5830   17.1400 C.3   108  GLU108      0.1567
     48  C         69.3090  110.1220   17.0640 C.2   108  GLU108      0.2260
     49  O         70.2450  109.7380   16.3770 O.2   108  GLU108     -0.2867
     50  CB        68.2280  111.9830   15.8520 C.3   108  GLU108      0.0388
     51  CG        67.7190  113.3960   15.8190 C.3   108  GLU108      0.1160
     52  CD        67.5470  113.8980   14.3970 C.2   108  GLU108      0.3649
     53  OE1       67.7800  113.1020   13.4530 O.co2 108  GLU108     -0.2457
     54  OE2       67.1910  115.0900   14.2230 O.co2 108  GLU108     -0.2457
     55  N         58.3950  116.3020   23.9850 N.3   159  THR159     -0.1218
     56  CA        57.3180  116.4760   23.0620 C.3   159  THR159      0.1862
     57  C         57.2050  115.1560   22.2840 C.2   159  THR159      0.2287
     58  O         58.2170  114.5130   21.9960 O.2   159  THR159     -0.2866
     59  CB        57.6880  117.6880   22.1940 C.3   159  THR159      0.1770
     60  OG1       56.5940  118.6040   22.1540 O.3   159  THR159     -0.2211
     61  CG2       58.1220  117.2920   20.8210 C.3   159  THR159      0.0375
     62  N         55.6430  112.9770   18.9280 N.3   161  ASN161     -0.1240
     63  CA        54.9290  112.8330   17.6680 C.3   161  ASN161      0.1653
     64  C         54.5900  111.3760   17.4390 C.2   161  ASN161      0.2266
     65  O         55.4690  110.5670   17.1410 O.2   161  ASN161     -0.2867
     66  CB        55.7870  113.3470   16.5170 C.3   161  ASN161      0.1155
     67  CG        56.1410  114.8130   16.6650 C.2   161  ASN161      0.2627
     68  OD1       55.3770  115.5950   17.2410 O.2   161  ASN161     -0.2716
     69  ND2       57.3010  115.1950   16.1480 N.am  161  ASN161     -0.0877
     70  N         46.7470  114.8810   13.0850 N.3   178  LYS178     -0.1245
     71  CA        47.2930  115.9170   12.2540 C.3   178  LYS178      0.1561
     72  C         46.8850  115.5710   10.8320 C.2   178  LYS178      0.2260
     73  O         47.3290  114.5610   10.2830 O.2   178  LYS178     -0.2867
     74  CB        48.8100  115.8850   12.3800 C.3   178  LYS178      0.0271
     75  CG        49.5580  116.9130   11.5550 C.3   178  LYS178      0.0035
     76  CD        51.0620  116.6270   11.6100 C.3   178  LYS178      0.0206
     77  CE        51.8740  117.8950   11.3850 C.3   178  LYS178      0.1093
     78  NZ        51.4700  118.9920   12.3280 N.3   178  LYS178     -0.1314
     79  N         51.7190  117.1800   17.5900 N.3   197  THR197     -0.1218
     80  CA        52.7050  117.1440   18.6460 C.3   197  THR197      0.1862
     81  C         52.0570  117.3480   20.0210 C.2   197  THR197      0.2287
     82  O         51.1880  118.2070   20.1950 O.2   197  THR197     -0.2866
     83  CB        53.7750  118.2220   18.4320 C.3   197  THR197      0.1770
     84  OG1       54.2700  118.1500   17.0930 O.3   197  THR197     -0.2211
     85  CG2       54.9350  118.0190   19.4040 C.3   197  THR197      0.0375
@<TRIPOS>BOND
     1    73    72    2
     2    72    71    1
     3    77    76    1
     4    77    78    1
     5    75    76    1
     6    75    74    1
     7    71    74    1
     8    71    70    1
     9    34    32    1
    10    53    52   ar
    11    26    24   am
    12    54    52   ar
    13    52    51    1
    14    32    31    1
    15    24    23    1
    16    24    25    2
    17    23    20    1
    18    33    31    1
    19    31    28    1
    20    51    50    1
    21    50    47    1
    22    69    67   am
    23    45    43    1
    24    49    48    2
    25    66    67    1
    26    66    63    1
    27    67    68    2
    28    20    21    1
    29    20    19    1
    30    28    27    1
    31    28    29    1
    32    48    47    1
    33    84    83    1
    34    47    46    1
    35    65    64    2
    36    43    42    2
    37    43    44    1
    38    21    22    2
    39    42    41    1
    40    64    63    1
    41    79    80    1
    42    63    62    1
    43    19     9   am
    44    29    30    2
    45    41    40    1
    46    83    80    1
    47    83    85    1
    48    80    81    1
    49    40    39    1
    50    10     9    2
    51     9     8    1
    52    39    36    1
    53     6     5    1
    54    36    35    1
    55    36    37    1
    56    81    82    2
    57     8     7    1
    58     8    11    1
    59     5     2    1
    60     4     3    2
    61     7     3   am
    62    61    59    1
    63     3     2    1
    64    11    12    1
    65    37    38    2
    66     2     1    1
    67    58    57    2
    68    60    59    1
    69    59    56    1
    70    57    56    1
    71    12    13   ar
    72    12    14   ar
    73    13    15   ar
    74    56    55    1
    75    14    16   ar
    76    15    17   ar
    77    16    17   ar
    78    17    18    1
