@<TRIPOS>MOLECULE
tmp/5lgbA01.pdb
 132 127 0 0 0
SMALL
GASTEIGER

@<TRIPOS>ATOM
      1  N         -0.5000   48.1700    1.0230 N.3    58  HIS58      -0.1241
      2  CA        -0.1830   48.1280   -0.4150 C.3    58  HIS58       0.1621
      3  C          0.8350   49.1670   -0.7640 C.2    58  HIS58       0.2264
      4  O          0.6010   50.3520   -0.5480 O.2    58  HIS58      -0.2867
      5  CB        -1.4470   48.3250   -1.2630 C.3    58  HIS58       0.0745
      6  CG        -2.4200   47.2020   -1.1570 C.ar   58  HIS58       0.0817
      7  ND1       -3.7550   47.4360   -0.9330 N.ar   58  HIS58      -0.2268
      8  CD2       -2.2140   45.8670   -1.2350 C.ar   58  HIS58       0.1154
      9  CE1       -4.3270   46.2440   -0.8970 C.ar   58  HIS58       0.1986
     10  NE2       -3.4310   45.2650   -1.0560 N.ar   58  HIS58      -0.2212
     11  N         -3.7250   41.6920  -18.4990 N.3   104  ILE104     -0.1231
     12  CA        -4.1550   42.6950  -17.4920 C.3   104  ILE104      0.1692
     13  C         -3.4280   44.0230  -17.7530 C.2   104  ILE104      0.2591
     14  O         -4.0580   45.0940  -17.7190 O.2   104  ILE104     -0.2718
     15  CB        -3.9460   42.1770  -16.0390 C.3   104  ILE104      0.0266
     16  CG1       -5.0170   41.0930  -15.7120 C.3   104  ILE104      0.0019
     17  CG2       -4.0000   43.3610  -15.0090 C.3   104  ILE104      0.0020
     18  CD1       -6.5270   41.6370  -15.5600 C.3   104  ILE104      0.0001
     19  N         -2.1400   43.9440  -18.1030 N.am  105  GLU105     -0.1979
     20  CA        -1.3640   45.1630  -18.4110 C.3   105  GLU105      0.1602
     21  C         -1.8970   45.9020  -19.6490 C.2   105  GLU105      0.2287
     22  O         -1.9580   47.1360  -19.6460 O.2   105  GLU105     -0.2864
     23  CB         0.1280   44.8470  -18.5230 C.3   105  GLU105      0.0415
     24  CG         0.7860   44.5650  -17.1760 C.3   105  GLU105      0.1163
     25  CD         0.8120   45.7250  -16.1940 C.2   105  GLU105      0.3649
     26  OE1        1.4110   46.7740  -16.5260 O.co2 105  GLU105     -0.2457
     27  OE2        0.2330   45.5840  -15.0920 O.co2 105  GLU105     -0.2457
     28  N         -4.9410   46.2890  -20.4880 N.3   107  THR107     -0.1218
     29  CA        -6.1750   47.0650  -20.2610 C.3   107  THR107      0.1862
     30  C         -5.8870   48.5860  -20.2580 C.2   107  THR107      0.2287
     31  O         -6.8200   49.3820  -20.3750 O.2   107  THR107     -0.2866
     32  CB        -6.8960   46.6400  -18.9960 C.3   107  THR107      0.1770
     33  OG1       -6.0320   46.9100  -17.8840 O.3   107  THR107     -0.2211
     34  CG2       -7.3120   45.1990  -19.0390 C.3   107  THR107      0.0375
     35  N         -8.2560   37.6720   -9.6300 N.3   154  GLU154     -0.1245
     36  CA        -8.5100   39.0420  -10.0850 C.3   154  GLU154      0.1567
     37  C         -9.8490   39.5500   -9.5290 C.2   154  GLU154      0.2260
     38  O         -9.9200   40.7060   -9.0990 O.2   154  GLU154     -0.2867
     39  CB        -8.4000   39.1500  -11.6160 C.3   154  GLU154      0.0388
     40  CG        -7.9610   40.5220  -12.1240 C.3   154  GLU154      0.1160
     41  CD        -6.6230   41.0740  -11.6520 C.2   154  GLU154      0.3649
     42  OE1       -6.4970   42.3170  -11.5800 O.co2 154  GLU154     -0.2457
     43  OE2       -5.7040   40.2770  -11.3520 O.co2 154  GLU154     -0.2457
     44  N         -9.2020   40.6040   -5.9710 N.3   157  VAL157     -0.1231
     45  CA        -8.4790   41.8980   -5.9550 C.3   157  VAL157      0.1692
     46  C         -9.4190   43.0740   -6.2250 C.2   157  VAL157      0.2592
     47  O         -9.3800   44.0780   -5.4970 O.2   157  VAL157     -0.2718
     48  CB        -7.2570   41.8780   -6.8960 C.3   157  VAL157      0.0266
     49  CG1       -6.6180   43.2670   -7.0380 C.3   157  VAL157      0.0020
     50  CG2       -6.2400   40.8600   -6.4000 C.3   157  VAL157      0.0020
     51  N        -10.3070   42.9230   -7.2250 N.am  158  SER158     -0.1952
     52  CA       -11.2750   43.9710   -7.5330 C.3   158  SER158      0.1924
     53  C        -12.4640   44.0380   -6.5640 C.2   158  SER158      0.2314
     54  O        -13.1530   45.0600   -6.4940 O.2   158  SER158     -0.2863
     55  CB       -11.7680   43.8110   -8.9640 C.3   158  SER158      0.2116
     56  OG       -10.8720   44.4800   -9.8320 O.3   158  SER158     -0.2180
     57  N        -10.3060   51.1260  -15.7080 N.3   171  PHE171     -0.1227
     58  CA        -9.4950   50.1490  -14.9530 C.3   171  PHE171      0.1736
     59  C         -8.0320   50.6010  -14.6810 C.2   171  PHE171      0.2596
     60  O         -7.5420   50.4640  -13.5520 O.2   171  PHE171     -0.2718
     61  CB        -9.5620   48.7800  -15.6480 C.3   171  PHE171      0.0547
     62  CG        -9.0670   47.6170  -14.8240 C.ar  171  PHE171     -0.0202
     63  CD1       -9.7820   47.1840  -13.7010 C.ar  171  PHE171     -0.0042
     64  CD2       -7.9720   46.8780  -15.2370 C.ar  171  PHE171     -0.0042
     65  CE1       -9.3450   46.0820  -12.9540 C.ar  171  PHE171     -0.0003
     66  CE2       -7.5530   45.7550  -14.5070 C.ar  171  PHE171     -0.0003
     67  CZ        -8.2360   45.3760  -13.3710 C.ar  171  PHE171     -0.0000
     68  N         -7.3870   51.2100  -15.6810 N.am  172  GLY172     -0.1957
     69  CA        -6.0120   51.6870  -15.5590 C.3   172  GLY172      0.1869
     70  C         -5.8000   52.9320  -14.7170 C.2   172  GLY172      0.2309
     71  O         -4.6540   53.2610  -14.4220 O.2   172  GLY172     -0.2863
     72  N         -6.5640   53.3400  -11.5190 N.3   174  TYR174     -0.1241
     73  CA        -6.1600   52.9580  -10.1550 C.3   174  TYR174      0.1605
     74  C         -4.6080   52.9250  -10.0830 C.2   174  TYR174      0.2264
     75  O         -3.9670   52.3690  -10.9800 O.2   174  TYR174     -0.2867
     76  CB        -6.7720   51.5770   -9.8010 C.3   174  TYR174      0.0534
     77  CG        -6.2810   51.0380   -8.4840 C.ar  174  TYR174     -0.0201
     78  CD1       -6.8830   51.4140   -7.2840 C.ar  174  TYR174     -0.0009
     79  CD2       -5.2200   50.1350   -8.4300 C.ar  174  TYR174     -0.0009
     80  CE1       -6.3690   50.9860   -6.0600 C.ar  174  TYR174      0.0417
     81  CE2       -4.7350   49.6610   -7.2190 C.ar  174  TYR174      0.0417
     82  CZ        -5.2990   50.1030   -6.0340 C.ar  174  TYR174      0.1957
     83  OH        -4.8060   49.6080   -4.8490 O.3   174  TYR174     -0.2866
     84  N         -1.1770   51.6740   -8.4730 N.3   176  VAL176     -0.1245
     85  CA        -0.5150   50.5970   -7.7280 C.3   176  VAL176      0.1561
     86  C          0.7830   51.2310   -7.1760 C.2   176  VAL176      0.2260
     87  O          1.5650   51.7870   -7.9550 O.2   176  VAL176     -0.2867
     88  CB        -0.2380   49.3690   -8.6540 C.3   176  VAL176      0.0252
     89  CG1        0.4530   48.2330   -7.8890 C.3   176  VAL176      0.0019
     90  CG2       -1.5200   48.8620   -9.3210 C.3   176  VAL176      0.0019
     91  N        -15.6250   46.3910   -0.6300 N.3   388  TYR388     -0.1241
     92  CA       -15.0530   47.6460   -1.1470 C.3   388  TYR388      0.1605
     93  C        -15.5400   47.9280   -2.5400 C.2   388  TYR388      0.2264
     94  O        -16.0900   47.0450   -3.2050 O.2   388  TYR388     -0.2867
     95  CB       -13.5110   47.7230   -1.0860 C.3   388  TYR388      0.0534
     96  CG       -12.8020   46.4280   -1.4070 C.ar  388  TYR388     -0.0201
     97  CD1      -12.5160   46.0740   -2.7230 C.ar  388  TYR388     -0.0009
     98  CD2      -12.3670   45.5830   -0.3970 C.ar  388  TYR388     -0.0009
     99  CE1      -11.7970   44.9180   -3.0190 C.ar  388  TYR388      0.0417
    100  CE2      -11.7070   44.3890   -0.6830 C.ar  388  TYR388      0.0417
    101  CZ       -11.4180   44.0650   -1.9970 C.ar  388  TYR388      0.1957
    102  OH       -10.7730   42.8880   -2.2660 O.3   388  TYR388     -0.2866
    103  N        -15.5980   49.2700   -6.6240 N.3   390  TYR390     -0.1241
    104  CA       -14.9160   49.1410   -7.8900 C.3   390  TYR390      0.1605
    105  C        -15.6930   49.9740   -8.8970 C.2   390  TYR390      0.2264
    106  O        -16.8600   50.3160   -8.6550 O.2   390  TYR390     -0.2867
    107  CB       -14.7750   47.6700   -8.3630 C.3   390  TYR390      0.0534
    108  CG       -16.0810   46.9370   -8.5680 C.ar  390  TYR390     -0.0201
    109  CD1      -16.6800   46.2350   -7.5240 C.ar  390  TYR390     -0.0009
    110  CD2      -16.6630   46.8480   -9.8350 C.ar  390  TYR390     -0.0009
    111  CE1      -17.8390   45.4730   -7.7270 C.ar  390  TYR390      0.0417
    112  CE2      -17.8440   46.1310  -10.0410 C.ar  390  TYR390      0.0417
    113  CZ       -18.4150   45.4270   -8.9910 C.ar  390  TYR390      0.1957
    114  OH       -19.5530   44.6890   -9.1910 O.3   390  TYR390     -0.2866
    115  N         -9.0410   54.1490   -4.4540 N.3   424  TYR424     -0.1227
    116  CA       -10.2410   53.5350   -3.9060 C.3   424  TYR424      0.1736
    117  C         -9.9520   52.0820   -3.5180 C.2   424  TYR424      0.2596
    118  O         -9.0130   51.5040   -4.0490 O.2   424  TYR424     -0.2718
    119  CB       -11.4180   53.6100   -4.9020 C.3   424  TYR424      0.0548
    120  CG       -11.1480   52.9560   -6.2440 C.ar  424  TYR424     -0.0200
    121  CD1      -10.6270   53.6900   -7.3050 C.ar  424  TYR424     -0.0009
    122  CD2      -11.4430   51.6090   -6.4620 C.ar  424  TYR424     -0.0009
    123  CE1      -10.3820   53.1000   -8.5430 C.ar  424  TYR424      0.0417
    124  CE2      -11.1750   50.9970   -7.7000 C.ar  424  TYR424      0.0417
    125  CZ       -10.6750   51.7580   -8.7410 C.ar  424  TYR424      0.1957
    126  OH       -10.4700   51.2170   -9.9890 O.3   424  TYR424     -0.2866
    127  N        -10.7460   51.5120   -2.5880 N.am  425  SER425     -0.1952
    128  CA       -10.6110   50.1130   -2.1230 C.3   425  SER425      0.1924
    129  C         -9.3310   49.8710   -1.3180 C.2   425  SER425      0.2314
    130  O         -8.9200   48.7270   -1.1830 O.2   425  SER425     -0.2863
    131  CB       -10.7750   49.0890   -3.2550 C.3   425  SER425      0.2116
    132  OG        -9.5860   48.9160   -4.0240 O.3   425  SER425     -0.2180
@<TRIPOS>BOND
     1    28    29    1
     2    31    30    2
     3    29    30    1
     4    29    32    1
     5    21    22    2
     6    21    20    1
     7    34    32    1
     8    32    33    1
     9    23    20    1
    10    23    24    1
    11    11    12    1
    12    20    19    1
    13    19    13   am
    14    13    14    2
    15    13    12    1
    16    12    15    1
    17    24    25    1
    18    26    25   ar
    19    25    27   ar
    20    15    16    1
    21    15    17    1
    22    16    18    1
    23    57    58    1
    24    68    69    1
    25    68    59   am
    26    61    58    1
    27    61    62    1
    28    69    70    1
    29    64    62   ar
    30    64    66   ar
    31    58    59    1
    32    62    63   ar
    33    70    71    2
    34    59    60    2
    35    66    67   ar
    36    63    65   ar
    37    67    65   ar
    38    40    41    1
    39    40    39    1
    40    41    42   ar
    41    41    43   ar
    42    39    36    1
    43    72    73    1
    44    75    74    2
    45    73    74    1
    46    73    76    1
    47    36    35    1
    48    36    37    1
    49   112   110   ar
    50   112   113   ar
    51   126   125    1
    52   110   108   ar
    53    56    55    1
    54    76    77    1
    55    37    38    2
    56    90    88    1
    57   114   113    1
    58   113   111   ar
    59    55    52    1
    60   105   106    2
    61   105   104    1
    62   125   123   ar
    63   125   124   ar
    64    88    89    1
    65    88    85    1
    66   108   107    1
    67   108   109   ar
    68   123   121   ar
    69    77    79   ar
    70    77    78   ar
    71    84    85    1
    72    79    81   ar
    73   107   104    1
    74    87    86    2
    75   104   103    1
    76    85    86    1
    77   111   109   ar
    78   124   122   ar
    79    52    51    1
    80    52    53    1
    81   121   120   ar
    82    78    80   ar
    83    51    46   am
    84    81    82   ar
    85    49    48    1
    86    48    50    1
    87    48    45    1
    88    53    54    2
    89   122   120   ar
    90   120   119    1
    91    46    45    1
    92    46    47    2
    93    80    82   ar
    94    82    83    1
    95    44    45    1
    96   119   116    1
    97   115   116    1
    98   118   117    2
    99   132   131    1
   100   116   117    1
   101   117   127   am
   102   131   128    1
   103    94    93    2
   104    99    97   ar
   105    99   101   ar
   106    97    96   ar
   107   127   128    1
   108    93    92    1
   109   102   101    1
   110   128   129    1
   111   101   100   ar
   112    96    95    1
   113    96    98   ar
   114   129   130    2
   115     5     6    1
   116     5     2    1
   117     8     6   ar
   118     8    10   ar
   119     6     7   ar
   120    92    95    1
   121    92    91    1
   122    10     9   ar
   123     7     9   ar
   124     3     4    2
   125     3     2    1
   126   100    98   ar
   127     2     1    1
