@<TRIPOS>MOLECULE
tmp/5lgcA00.pdb
 136 133 0 0 0
SMALL
GASTEIGER

@<TRIPOS>ATOM
      1  N         10.9280   -0.1510  -17.2950 N.3    15  ASP15      -0.1225
      2  CA        11.6190    0.8710  -16.5190 C.3    15  ASP15       0.1805
      3  C         11.0350    2.2680  -16.7010 C.2    15  ASP15       0.2597
      4  O         10.4350    2.5700  -17.7350 O.2    15  ASP15      -0.2718
      5  CB        13.1000    0.8980  -16.8910 C.3    15  ASP15       0.1424
      6  CG        13.8720   -0.2550  -16.2910 C.2    15  ASP15       0.3668
      7  OD1       13.2770   -1.3200  -16.0270 O.co2  15  ASP15      -0.2456
      8  OD2       15.0860   -0.0890  -16.0800 O.co2  15  ASP15      -0.2456
      9  N         11.2180    3.0920  -15.6680 N.am   16  ASP16      -0.1974
     10  CA        11.0620    4.5510  -15.7250 C.3    16  ASP16       0.1709
     11  C          9.6260    5.0360  -15.6910 C.2    16  ASP16       0.2293
     12  O          9.3610    6.2150  -15.9080 O.2    16  ASP16      -0.2864
     13  CB        11.7460    5.1270  -16.9660 C.3    16  ASP16       0.1436
     14  CG        13.2490    5.0180  -16.8980 C.2    16  ASP16       0.3671
     15  OD1       13.7660    4.8330  -15.7780 O.co2  16  ASP16      -0.2456
     16  OD2       13.9060    5.1250  -17.9550 O.co2  16  ASP16      -0.2456
     17  N         13.8980    1.9120   -9.3000 N.3    65  HIS65      -0.1241
     18  CA        14.8350    2.3820  -10.3120 C.3    65  HIS65       0.1621
     19  C         15.5440    3.6450   -9.8300 C.2    65  HIS65       0.2264
     20  O         16.0440    4.4290  -10.6390 O.2    65  HIS65      -0.2867
     21  CB        14.1330    2.6430  -11.6460 C.3    65  HIS65       0.0745
     22  CG        15.0510    2.5570  -12.8260 C.ar   65  HIS65       0.0817
     23  ND1       14.8420    3.2660  -13.9910 N.ar   65  HIS65      -0.2268
     24  CD2       16.1930    1.8510  -13.0170 C.ar   65  HIS65       0.1154
     25  CE1       15.8120    2.9940  -14.8480 C.ar   65  HIS65       0.1986
     26  NE2       16.6450    2.1410  -14.2800 N.ar   65  HIS65      -0.2212
     27  N         16.7050    8.6920  -11.4640 N.3    69  HIS69      -0.1241
     28  CA        17.4310    8.0760  -12.5720 C.3    69  HIS69       0.1621
     29  C         18.8870    8.5550  -12.6880 C.2    69  HIS69       0.2264
     30  O         19.4190    8.7050  -13.7920 O.2    69  HIS69      -0.2867
     31  CB        16.6820    8.3560  -13.8760 C.3    69  HIS69       0.0745
     32  CG        17.0310    7.4280  -14.9920 C.ar   69  HIS69       0.0817
     33  ND1       17.2750    7.8710  -16.2740 N.ar   69  HIS69      -0.2268
     34  CD2       17.1590    6.0810  -15.0270 C.ar   69  HIS69       0.1154
     35  CE1       17.5490    6.8360  -17.0480 C.ar   69  HIS69       0.1986
     36  NE2       17.4850    5.7380  -16.3160 N.ar   69  HIS69      -0.2212
     37  N         16.9750   -1.8690   -9.7750 N.3   103  ARG103     -0.1231
     38  CA        17.7600   -1.8500  -11.0080 C.3   103  ARG103      0.1679
     39  C         18.5570   -0.5530  -11.0860 C.2   103  ARG103      0.2434
     40  O         17.9880    0.5310  -11.0550 O.2   103  ARG103     -0.2733
     41  CB        16.8600   -2.0020  -12.2370 C.3   103  ARG103      0.0321
     42  CG        17.5910   -1.9380  -13.5800 C.3   103  ARG103      0.0489
     43  CD        16.6560   -2.3010  -14.7330 C.3   103  ARG103      0.2205
     44  NE        16.4660   -3.7440  -14.8790 N.pl3 103  ARG103     -0.0865
     45  CZ        15.4560   -4.3090  -15.5350 C.cat 103  ARG103      0.5346
     46  NH1       14.5150   -3.5610  -16.0970 N.pl3 103  ARG103      0.1354
     47  NH2       15.3740   -5.6310  -15.6150 N.pl3 103  ARG103      0.1354
     48  N         19.8900   -0.6600  -11.1660 N.am  104  PRO104     -0.2729
     49  CA        20.7040    0.5580  -11.2620 C.3   104  PRO104      0.1401
     50  C         20.5180    1.2700  -12.6010 C.2   104  PRO104      0.2269
     51  O         20.5440    0.6180  -13.6470 O.2   104  PRO104     -0.2865
     52  CB        22.1390    0.0420  -11.1050 C.3   104  PRO104      0.0296
     53  CG        22.0790   -1.4070  -11.4910 C.3   104  PRO104      0.0237
     54  CD        20.7070   -1.8830  -11.0830 C.3   104  PRO104      0.0939
     55  N         21.0750    3.0760  -16.0120 N.3   106  TYR106     -0.1241
     56  CA        22.0910    2.9010  -17.0540 C.3   106  TYR106      0.1605
     57  C         22.8820    1.6110  -16.8760 C.2   106  TYR106      0.2264
     58  O         23.8670    1.3810  -17.5730 O.2   106  TYR106     -0.2867
     59  CB        23.0250    4.1160  -17.0920 C.3   106  TYR106      0.0534
     60  CG        22.2420    5.4050  -17.0280 C.ar  106  TYR106     -0.0201
     61  CD1       21.4550    5.8070  -18.0980 C.ar  106  TYR106     -0.0009
     62  CD2       22.2490    6.1960  -15.8840 C.ar  106  TYR106     -0.0009
     63  CE1       20.7130    6.9740  -18.0420 C.ar  106  TYR106      0.0417
     64  CE2       21.5080    7.3650  -15.8190 C.ar  106  TYR106      0.0417
     65  CZ        20.7410    7.7470  -16.9020 C.ar  106  TYR106      0.1957
     66  OH        19.9990    8.9060  -16.8460 O.3   106  TYR106     -0.2866
     67  N         19.5830   -7.0180  -16.7780 N.3   124  TRP124     -0.1241
     68  CA        18.8120   -7.6180  -17.8620 C.3   124  TRP124      0.1605
     69  C         19.7480   -8.3950  -18.7680 C.2   124  TRP124      0.2264
     70  O         20.9580   -8.1710  -18.7490 O.2   124  TRP124     -0.2867
     71  CB        18.0760   -6.5420  -18.6640 C.3   124  TRP124      0.0550
     72  CG        19.0150   -5.5170  -19.1940 C.ar  124  TRP124      0.0003
     73  CD1       19.6950   -5.5620  -20.3750 C.ar  124  TRP124      0.0946
     74  CD2       19.4160   -4.3070  -18.5440 C.ar  124  TRP124      0.0152
     75  NE1       20.4860   -4.4510  -20.5060 N.ar  124  TRP124     -0.2442
     76  CE2       20.3330   -3.6630  -19.3960 C.ar  124  TRP124      0.0810
     77  CE3       19.0820   -3.7010  -17.3270 C.ar  124  TRP124      0.0012
     78  CZ2       20.9240   -2.4450  -19.0720 C.ar  124  TRP124      0.0191
     79  CZ3       19.6700   -2.4890  -17.0060 C.ar  124  TRP124      0.0001
     80  CH2       20.5800   -1.8750  -17.8760 C.ar  124  TRP124      0.0015
     81  N         18.1810   -6.5170  -24.1490 N.3   127  ASP127     -0.1239
     82  CA        17.8770   -5.1010  -24.2810 C.3   127  ASP127      0.1674
     83  C         17.1120   -4.8800  -25.5780 C.2   127  ASP127      0.2266
     84  O         17.6830   -4.9860  -26.6610 O.2   127  ASP127     -0.2867
     85  CB        19.1620   -4.2680  -24.2560 C.3   127  ASP127      0.1410
     86  CG        18.8960   -2.7850  -24.0850 C.2   127  ASP127      0.3668
     87  OD1       17.7270   -2.3570  -24.2120 O.co2 127  ASP127     -0.2456
     88  OD2       19.8620   -2.0410  -23.8270 O.co2 127  ASP127     -0.2456
     89  N         16.0760   -2.2240  -26.7080 N.3   129  LEU129     -0.1245
     90  CA        16.4830   -0.9260  -27.2330 C.3   129  LEU129      0.1561
     91  C         15.2910   -0.0190  -27.5400 C.2   129  LEU129      0.2260
     92  O         15.4240    0.9370  -28.3000 O.2   129  LEU129     -0.2867
     93  CB        17.3460   -1.1010  -28.4880 C.3   129  LEU129      0.0270
     94  CG        18.6210   -1.9250  -28.3050 C.3   129  LEU129      0.0019
     95  CD1       19.3070   -2.1740  -29.6360 C.3   129  LEU129      0.0001
     96  CD2       19.5640   -1.2330  -27.3320 C.3   129  LEU129      0.0001
     97  N         13.9760    2.2150  -25.8560 N.3   131  TRP131     -0.1241
     98  CA        14.2640    3.5850  -25.4450 C.3   131  TRP131      0.1605
     99  C         14.8500    4.3950  -26.5910 C.2   131  TRP131      0.2264
    100  O         14.6810    5.6120  -26.6520 O.2   131  TRP131     -0.2867
    101  CB        15.2270    3.6100  -24.2530 C.3   131  TRP131      0.0550
    102  CG        16.4960    2.8340  -24.4620 C.ar  131  TRP131      0.0003
    103  CD1       16.6730    1.4950  -24.2710 C.ar  131  TRP131      0.0946
    104  CD2       17.7720    3.3500  -24.8820 C.ar  131  TRP131      0.0152
    105  NE1       17.9690    1.1410  -24.5520 N.ar  131  TRP131     -0.2442
    106  CE2       18.6660    2.2590  -24.9290 C.ar  131  TRP131      0.0810
    107  CE3       18.2410    4.6210  -25.2250 C.ar  131  TRP131      0.0012
    108  CZ2       20.0020    2.4020  -25.3050 C.ar  131  TRP131      0.0191
    109  CZ3       19.5730    4.7610  -25.6000 C.ar  131  TRP131      0.0001
    110  CH2       20.4360    3.6570  -25.6360 C.ar  131  TRP131      0.0015
    111  N         14.4060   -6.1540  -21.0370 N.3   154  LEU154     -0.1245
    112  CA        14.3080   -4.7560  -20.6540 C.3   154  LEU154      0.1561
    113  C         13.4920   -3.9470  -21.6480 C.2   154  LEU154      0.2260
    114  O         13.8360   -3.8470  -22.8280 O.2   154  LEU154     -0.2867
    115  CB        15.6970   -4.1340  -20.5110 C.3   154  LEU154      0.0270
    116  CG        15.6700   -2.6160  -20.3200 C.3   154  LEU154      0.0019
    117  CD1       14.9920   -2.2360  -19.0160 C.3   154  LEU154      0.0001
    118  CD2       17.0750   -2.0350  -20.3840 C.3   154  LEU154      0.0001
    119  N         10.8430   -0.1550  -21.7200 N.3   156  HIS156     -0.1241
    120  CA        10.6230    1.0790  -20.9850 C.3   156  HIS156      0.1621
    121  C          9.1800    1.5410  -21.0570 C.2   156  HIS156      0.2264
    122  O          8.6040    1.6710  -22.1340 O.2   156  HIS156     -0.2867
    123  CB        11.5550    2.1770  -21.4940 C.3   156  HIS156      0.0745
    124  CG        12.9920    1.9420  -21.1560 C.ar  156  HIS156      0.0817
    125  ND1       13.7660    1.0070  -21.8080 N.ar  156  HIS156     -0.2268
    126  CD2       13.7920    2.5080  -20.2210 C.ar  156  HIS156      0.1154
    127  CE1       14.9860    1.0160  -21.2980 C.ar  156  HIS156      0.1986
    128  NE2       15.0270    1.9150  -20.3320 N.ar  156  HIS156     -0.2212
    129  N          7.6340    4.2950  -21.0730 N.3   158  ILE158     -0.1245
    130  CA         7.7970    5.7230  -21.3010 C.3   158  ILE158      0.1561
    131  C          7.1760    6.1530  -22.6150 C.2   158  ILE158      0.2260
    132  O          7.2620    7.3180  -22.9890 O.2   158  ILE158     -0.2867
    133  CB         9.2940    6.1360  -21.3240 C.3   158  ILE158      0.0252
    134  CG1       10.0360    5.3860  -22.4340 C.3   158  ILE158      0.0019
    135  CG2        9.9500    5.8780  -19.9890 C.3   158  ILE158      0.0019
    136  CD1       11.4990    5.8150  -22.6310 C.3   158  ILE158      0.0001
@<TRIPOS>BOND
     1    95    94    1
     2    93    94    1
     3    93    90    1
     4    94    96    1
     5    92    91    2
     6    91    90    1
     7    90    89    1
     8    84    83    2
     9   100    99    2
    10    99    98    1
    11    97    98    1
    12   110   109   ar
    13   110   108   ar
    14   109   107   ar
    15    83    82    1
    16    98   101    1
    17   108   106   ar
    18   107   104   ar
    19   106   104   ar
    20   106   105   ar
    21   104   102   ar
    22   105   103   ar
    23   102   103   ar
    24   102   101    1
    25    82    85    1
    26    82    81    1
    27    85    86    1
    28    87    86   ar
    29    86    88   ar
    30   132   131    2
    31   114   113    2
    32   136   134    1
    33   131   130    1
    34   134   133    1
    35   122   121    2
    36   125   127   ar
    37   125   124   ar
    38   119   120    1
    39   113   112    1
    40   123   124    1
    41   123   120    1
    42   133   130    1
    43   133   135    1
    44   130   129    1
    45   127   128   ar
    46   124   126   ar
    47   121   120    1
    48   111   112    1
    49   112   115    1
    50   115   116    1
    51    75    73   ar
    52    75    76   ar
    53   118   116    1
    54    73    72   ar
    55   128   126   ar
    56   116   117    1
    57    76    78   ar
    58    76    74   ar
    59    72    71    1
    60    72    74   ar
    61    78    80   ar
    62    69    70    2
    63    69    68    1
    64    71    68    1
    65    74    77   ar
    66    61    63   ar
    67    61    60   ar
    68    63    65   ar
    69    16    14   ar
    70    80    79   ar
    71    68    67    1
    72     4     3    2
    73    58    57    2
    74    77    79   ar
    75     1     2    1
    76    59    56    1
    77    59    60    1
    78    56    57    1
    79    56    55    1
    80    35    36   ar
    81    35    33   ar
    82    60    62   ar
    83    13    14    1
    84    13    10    1
    85    65    66    1
    86    65    64   ar
    87    14    15   ar
    88     5     2    1
    89     5     6    1
    90     3     2    1
    91     3     9   am
    92    36    34   ar
    93     6     8   ar
    94     6     7   ar
    95    33    32   ar
    96    46    45    1
    97    12    11    2
    98    62    64   ar
    99    10    11    1
   100    10     9    1
   101    47    45    1
   102    45    44    2
   103    34    32   ar
   104    32    31    1
   105    44    43    1
   106    25    26   ar
   107    25    23   ar
   108    43    42    1
   109    26    24   ar
   110    23    22   ar
   111    31    28    1
   112    30    29    2
   113    51    50    2
   114    42    41    1
   115    24    22   ar
   116    22    21    1
   117    29    28    1
   118    50    49    1
   119    28    27    1
   120    41    38    1
   121    21    18    1
   122    53    52    1
   123    53    54    1
   124    49    48    1
   125    49    52    1
   126    48    39   am
   127    48    54    1
   128    39    40    2
   129    39    38    1
   130    38    37    1
   131    20    19    2
   132    18    19    1
   133    18    17    1
