@<TRIPOS>MOLECULE
tmp/5lgdA05.pdb
 93 91 0 0 0
SMALL
GASTEIGER

@<TRIPOS>ATOM
      1  N        -30.7580  -36.2330   19.6910 N.3    59  TYR59      -0.1241
      2  CA       -31.6920  -37.3190   19.4860 C.3    59  TYR59       0.1605
      3  C        -32.4830  -37.0710   18.2500 C.2    59  TYR59       0.2264
      4  O        -32.8850  -35.9320   18.0050 O.2    59  TYR59      -0.2867
      5  CB       -32.6830  -37.3890   20.6460 C.3    59  TYR59       0.0534
      6  CG       -32.0920  -37.9290   21.9250 C.ar   59  TYR59      -0.0201
      7  CD1      -31.3750  -37.1040   22.7860 C.ar   59  TYR59      -0.0009
      8  CD2      -32.3020  -39.2470   22.3080 C.ar   59  TYR59      -0.0009
      9  CE1      -30.8640  -37.5830   23.9900 C.ar   59  TYR59       0.0417
     10  CE2      -31.8060  -39.7360   23.5150 C.ar   59  TYR59       0.0417
     11  CZ       -31.0950  -38.8950   24.3580 C.ar   59  TYR59       0.1957
     12  OH       -30.5880  -39.3600   25.5420 O.3    59  TYR59      -0.2866
     13  N        -39.7640  -39.3490   14.0090 N.3    63  PHE63      -0.1241
     14  CA       -39.4430  -40.2370   12.8880 C.3    63  PHE63       0.1605
     15  C        -40.5720  -41.2470   12.6070 C.2    63  PHE63       0.2264
     16  O        -40.5810  -41.8940   11.5570 O.2    63  PHE63      -0.2867
     17  CB       -38.1190  -40.9580   13.1440 C.3    63  PHE63       0.0534
     18  CG       -38.0410  -41.6820   14.4620 C.ar   63  PHE63      -0.0203
     19  CD1      -38.5340  -42.9790   14.5950 C.ar   63  PHE63      -0.0042
     20  CD2      -37.4180  -41.0980   15.5570 C.ar   63  PHE63      -0.0042
     21  CE1      -38.4600  -43.6470   15.8180 C.ar   63  PHE63      -0.0003
     22  CE2      -37.3090  -41.7870   16.7620 C.ar   63  PHE63      -0.0003
     23  CZ       -37.8580  -43.0390   16.8960 C.ar   63  PHE63      -0.0000
     24  N        -41.0350  -40.9830   19.9290 N.3    85  GLY85      -0.1210
     25  CA       -39.8150  -41.7700   19.8830 C.3    85  GLY85       0.1956
     26  C        -38.6010  -40.8760   19.7840 C.2    85  GLY85       0.2612
     27  O        -38.6450  -39.8590   19.0830 O.2    85  GLY85      -0.2717
     28  N        -37.5010  -41.2480   20.4940 N.am   86  ALA86      -0.1965
     29  CA       -36.2080  -40.5480   20.4890 C.3    86  ALA86       0.1728
     30  C        -35.0610  -41.5590   20.3610 C.2    86  ALA86       0.2616
     31  O        -34.9530  -42.4730   21.1870 O.2    86  ALA86      -0.2715
     32  CB       -36.0470  -39.7330   21.7630 C.3    86  ALA86       0.0334
     33  N        -34.2080  -41.4090   19.3290 N.am   87  ILE87      -0.1963
     34  CA       -33.0530  -42.2900   19.1320 C.3    87  ILE87       0.1727
     35  C        -31.8240  -41.4380   19.3040 C.2    87  ILE87       0.2616
     36  O        -31.7030  -40.4350   18.6130 O.2    87  ILE87      -0.2715
     37  CB       -33.0680  -43.0470   17.7580 C.3    87  ILE87       0.0290
     38  CG1      -34.3700  -43.8640   17.5930 C.3    87  ILE87       0.0022
     39  CG2      -31.8080  -43.9560   17.6160 C.3    87  ILE87       0.0023
     40  CD1      -34.7010  -44.3570   16.1730 C.3    87  ILE87       0.0001
     41  N        -30.9190  -41.8200   20.2160 N.am   88  PHE88      -0.1974
     42  CA       -29.7030  -41.0600   20.5080 C.3    88  PHE88       0.1639
     43  C        -28.7470  -41.0870   19.3340 C.2    88  PHE88       0.2290
     44  O        -28.5930  -42.1460   18.7290 O.2    88  PHE88      -0.2864
     45  CB       -29.0140  -41.5920   21.7820 C.3    88  PHE88       0.0560
     46  CG       -27.8220  -40.7790   22.2460 C.ar   88  PHE88      -0.0200
     47  CD1      -27.9820  -39.4690   22.6940 C.ar   88  PHE88      -0.0042
     48  CD2      -26.5390  -41.3310   22.2500 C.ar   88  PHE88      -0.0042
     49  CE1      -26.8770  -38.7200   23.1330 C.ar   88  PHE88      -0.0003
     50  CE2      -25.4360  -40.5800   22.6730 C.ar   88  PHE88      -0.0003
     51  CZ       -25.6110  -39.2790   23.1110 C.ar   88  PHE88      -0.0000
     52  N        -24.9400  -40.8830   26.6550 N.3    97  GLU97      -0.1196
     53  CA       -26.1840  -40.7930   27.4500 C.3    97  GLU97       0.1783
     54  C        -25.8480  -41.0610   28.9450 C.2    97  GLU97       0.2306
     55  O        -26.7080  -40.8590   29.7970 O.2    97  GLU97      -0.2863
     56  CB       -27.2480  -41.8050   26.9900 C.2    97  GLU97       0.0071
     57  CG       -27.9470  -41.5200   25.6710 C.2    97  GLU97       0.0834
     58  CD       -29.0610  -42.4860   25.2990 C.2    97  GLU97       0.3877
     59  OE1      -30.2470  -42.0820   25.3590 O.co2  97  GLU97      -0.2406
     60  OE2      -28.7490  -43.6440   24.9300 O.co2  97  GLU97      -0.2406
     61  N        -29.3210  -39.9550   30.5190 N.3   142  ARG142     -0.1245
     62  CA       -30.4130  -40.9070   30.2540 C.3   142  ARG142      0.1563
     63  C        -31.5320  -40.8190   31.2980 C.2   142  ARG142      0.2260
     64  O        -32.7040  -40.9050   30.9300 O.2   142  ARG142     -0.2867
     65  CB       -29.8680  -42.3460   30.1290 C.3   142  ARG142      0.0307
     66  CG       -30.8620  -43.3270   29.5070 C.3   142  ARG142      0.0489
     67  CD       -30.2020  -44.6410   29.1480 C.3   142  ARG142      0.2205
     68  NE       -31.1760  -45.7130   28.9280 N.pl3 142  ARG142     -0.0865
     69  CZ       -31.7460  -46.0030   27.7590 C.cat 142  ARG142      0.5346
     70  NH1      -31.4650  -45.2840   26.6770 N.pl3 142  ARG142      0.1354
     71  NH2      -32.6010  -47.0100   27.6650 N.pl3 142  ARG142      0.1354
     72  N        -35.1490  -39.1150   30.4620 N.3   146  TRP146     -0.1241
     73  CA       -36.1790  -40.1110   30.2490 C.3   146  TRP146      0.1605
     74  C        -36.7670  -40.8050   31.4760 C.2   146  TRP146      0.2264
     75  O        -37.7690  -41.5000   31.3250 O.2   146  TRP146     -0.2867
     76  CB       -35.6470  -41.1500   29.2700 C.3   146  TRP146      0.0550
     77  CG       -34.9270  -40.5400   28.1000 C.ar  146  TRP146      0.0003
     78  CD1      -33.6150  -40.7200   27.7640 C.ar  146  TRP146      0.0946
     79  CD2      -35.4720  -39.6180   27.1290 C.ar  146  TRP146      0.0152
     80  NE1      -33.2940  -39.9360   26.6750 N.ar  146  TRP146     -0.2442
     81  CE2      -34.4150  -39.2420   26.2690 C.ar  146  TRP146      0.0810
     82  CE3      -36.7260  -38.9990   26.9630 C.ar  146  TRP146      0.0012
     83  CZ2      -34.6070  -38.3730   25.1750 C.ar  146  TRP146      0.0191
     84  CZ3      -36.9150  -38.1280   25.8860 C.ar  146  TRP146      0.0001
     85  CH2      -35.8580  -37.8160   25.0160 C.ar  146  TRP146      0.0015
     86  N        -40.9450  -42.5760   25.0230 N.3   171  ASN171     -0.1240
     87  CA       -41.0630  -43.7290   24.1430 C.3   171  ASN171      0.1653
     88  C        -42.3320  -44.4910   24.4760 C.2   171  ASN171      0.2266
     89  O        -42.7730  -44.4880   25.6370 O.2   171  ASN171     -0.2867
     90  CB       -39.8750  -44.6720   24.3120 C.3   171  ASN171      0.1155
     91  CG       -38.6620  -44.3740   23.4780 C.2   171  ASN171      0.2627
     92  OD1      -38.5960  -43.3770   22.7610 O.2   171  ASN171     -0.2716
     93  ND2      -37.6790  -45.2720   23.5820 N.am  171  ASN171     -0.0877
@<TRIPOS>BOND
     1    16    15    2
     2    15    14    1
     3    14    17    1
     4    14    13    1
     5    17    18    1
     6    18    19   ar
     7    18    20   ar
     8    19    21   ar
     9    20    22   ar
    10    21    23   ar
    11    40    38    1
    12    22    23   ar
    13    38    37    1
    14    39    37    1
    15    37    34    1
    16     4     3    2
    17     3     2    1
    18    36    35    2
    19    44    43    2
    20    27    26    2
    21    34    35    1
    22    34    33    1
    23    35    41   am
    24    33    30   am
    25    43    42    1
    26     2     1    1
    27     2     5    1
    28    26    25    1
    29    26    28   am
    30    25    24    1
    31    41    42    1
    32    30    29    1
    33    30    31    2
    34    29    28    1
    35    29    32    1
    36    42    45    1
    37     5     6    1
    38    45    46    1
    39     6     8   ar
    40     6     7   ar
    41    46    48   ar
    42    46    47   ar
    43    48    50   ar
    44     8    10   ar
    45    50    51   ar
    46    47    49   ar
    47    92    91    2
    48     7     9   ar
    49    51    49   ar
    50    91    93   am
    51    91    90    1
    52    10    11   ar
    53     9    11   ar
    54    87    90    1
    55    87    88    1
    56    87    86    1
    57    11    12    1
    58    88    89    2
    59    60    58   ar
    60    85    83   ar
    61    85    84   ar
    62    83    81   ar
    63    58    59   ar
    64    58    57    1
    65    57    56    2
    66    84    82   ar
    67    81    80   ar
    68    81    79   ar
    69    52    53    1
    70    80    78   ar
    71    70    69    1
    72    82    79   ar
    73    56    53    1
    74    79    77   ar
    75    53    54    1
    76    71    69    1
    77    69    68    2
    78    78    77   ar
    79    77    76    1
    80    68    67    1
    81    54    55    2
    82    67    66    1
    83    76    73    1
    84    66    65    1
    85    65    62    1
    86    73    72    1
    87    73    74    1
    88    62    61    1
    89    62    63    1
    90    64    63    2
    91    75    74    2
