@<TRIPOS>MOLECULE
tmp/5lgdA00.pdb
 88 81 0 0 0
SMALL
GASTEIGER

@<TRIPOS>ATOM
      1  N        -47.4740  -14.2560   43.6070 N.3   283  ILE283     -0.1231
      2  CA       -46.2470  -14.1010   44.3700 C.3   283  ILE283      0.1692
      3  C        -45.0100  -14.1780   43.4670 C.2   283  ILE283      0.2591
      4  O        -44.2990  -13.1790   43.3700 O.2   283  ILE283     -0.2718
      5  CB       -46.1610  -15.0330   45.6110 C.3   283  ILE283      0.0266
      6  CG1      -47.4850  -14.9960   46.4170 C.3   283  ILE283      0.0019
      7  CG2      -44.9870  -14.6000   46.5020 C.3   283  ILE283      0.0020
      8  CD1      -47.7070  -16.1410   47.3890 C.3   283  ILE283      0.0001
      9  N        -44.7380  -15.3580   42.8390 N.am  284  ILE284     -0.1980
     10  CA       -43.5940  -15.6100   41.9280 C.3   284  ILE284      0.1595
     11  C        -43.6140  -14.5900   40.7520 C.2   284  ILE284      0.2287
     12  O        -42.5640  -14.0590   40.3620 O.2   284  ILE284     -0.2864
     13  CB       -43.5980  -17.0830   41.3870 C.3   284  ILE284      0.0276
     14  CG1      -43.8270  -18.1500   42.5120 C.3   284  ILE284      0.0022
     15  CG2      -42.3580  -17.3960   40.5350 C.3   284  ILE284      0.0022
     16  CD1      -42.9440  -18.0970   43.7390 C.3   284  ILE284      0.0001
     17  N        -44.8070  -11.6630   40.8530 N.3   286  LYS286     -0.1245
     18  CA       -44.7000  -10.3380   41.4730 C.3   286  LYS286      0.1561
     19  C        -45.8760   -9.5250   40.9820 C.2   286  LYS286      0.2260
     20  O        -45.7060   -8.5370   40.2710 O.2   286  LYS286     -0.2867
     21  CB       -43.3340   -9.6690   41.1880 C.3   286  LYS286      0.0271
     22  CG       -42.1470  -10.5640   41.5550 C.3   286  LYS286      0.0035
     23  CD       -40.8010   -9.8720   41.4100 C.3   286  LYS286      0.0206
     24  CE       -39.6450  -10.8450   41.5800 C.3   286  LYS286      0.1093
     25  NZ       -39.3850  -11.2050   43.0040 N.3   286  LYS286     -0.1314
     26  N        -43.8170  -10.0590   36.1640 N.3   290  SER290     -0.1217
     27  CA       -42.6970  -10.8230   35.6340 C.3   290  SER290      0.1889
     28  C        -43.1570  -11.3930   34.2720 C.2   290  SER290      0.2288
     29  O        -44.3660  -11.4930   34.0180 O.2   290  SER290     -0.2866
     30  CB       -42.3080  -11.9500   36.5800 C.3   290  SER290      0.2089
     31  OG       -41.6590  -11.4010   37.7120 O.3   290  SER290     -0.2183
     32  N        -35.7540   -9.9760   36.8220 N.3   318  ASP318     -0.1225
     33  CA       -35.9340  -10.6720   38.1040 C.3   318  ASP318      0.1805
     34  C        -35.9160  -12.1940   37.9370 C.2   318  ASP318      0.2597
     35  O        -35.5220  -12.9100   38.8510 O.2   318  ASP318     -0.2718
     36  CB       -37.2240  -10.2300   38.7870 C.3   318  ASP318      0.1424
     37  CG       -38.4610  -10.5580   37.9830 C.2   318  ASP318      0.3668
     38  OD1      -38.8540   -9.7210   37.1300 O.co2 318  ASP318     -0.2456
     39  OD2      -39.0430  -11.6460   38.2100 O.co2 318  ASP318     -0.2456
     40  N        -36.3440  -12.6820   36.7730 N.am  319  VAL319     -0.1980
     41  CA       -36.3220  -14.1050   36.4720 C.3   319  VAL319      0.1595
     42  C        -34.8660  -14.5970   36.3440 C.2   319  VAL319      0.2287
     43  O        -34.5330  -15.6280   36.9160 O.2   319  VAL319     -0.2864
     44  CB       -37.1810  -14.4030   35.2240 C.3   319  VAL319      0.0276
     45  CG1      -37.0070  -15.8400   34.7580 C.3   319  VAL319      0.0022
     46  CG2      -38.6470  -14.0890   35.4920 C.3   319  VAL319      0.0022
     47  N        -31.3230  -14.6540   39.9310 N.3   322  PRO322     -0.2116
     48  CA       -30.5740  -15.6320   40.7410 C.3   322  PRO322      0.1372
     49  C        -29.6770  -16.6280   39.9820 C.2   322  PRO322      0.2244
     50  O        -29.1240  -17.5230   40.6200 O.2   322  PRO322     -0.2868
     51  CB       -31.6700  -16.3510   41.5420 C.3   322  PRO322      0.0268
     52  CG       -32.9600  -15.6520   41.2190 C.3   322  PRO322      0.0207
     53  CD       -32.7590  -14.9920   39.9080 C.3   322  PRO322      0.0892
     54  N        -39.3760  -24.4410   39.6100 N.3   358  LEU358     -0.1245
     55  CA       -39.3720  -23.4760   40.7040 C.3   358  LEU358      0.1561
     56  C        -39.1500  -24.2490   41.9670 C.2   358  LEU358      0.2260
     57  O        -39.7540  -25.2940   42.1500 O.2   358  LEU358     -0.2867
     58  CB       -40.7140  -22.7180   40.7920 C.3   358  LEU358      0.0270
     59  CG       -41.0200  -21.9630   42.1030 C.3   358  LEU358      0.0019
     60  CD1      -40.1590  -20.6690   42.2440 C.3   358  LEU358      0.0001
     61  CD2      -42.5020  -21.6410   42.1480 C.3   358  LEU358      0.0001
     62  N        -34.8670  -17.1110   49.2210 N.3   373  ARG373     -0.1231
     63  CA       -35.6460  -16.6780   48.0630 C.3   373  ARG373      0.1694
     64  C        -36.0760  -17.8890   47.2520 C.2   373  ARG373      0.2592
     65  O        -35.5820  -19.0230   47.4490 O.2   373  ARG373     -0.2718
     66  CB       -34.8290  -15.7130   47.1680 C.3   373  ARG373      0.0321
     67  CG       -33.4970  -16.2790   46.7110 C.3   373  ARG373      0.0489
     68  CD       -32.6790  -15.3180   45.8740 C.3   373  ARG373      0.2205
     69  NE       -31.2690  -15.7010   45.9160 N.pl3 373  ARG373     -0.0865
     70  CZ       -30.3220  -15.2350   45.1120 C.cat 373  ARG373      0.5346
     71  NH1      -29.0690  -15.6310   45.2600 N.pl3 373  ARG373      0.1354
     72  NH2      -30.6200  -14.3600   44.1580 N.pl3 373  ARG373      0.1354
     73  N        -36.9590  -17.6230   46.2970 N.am  374  ASN374     -0.1974
     74  CA       -37.4870  -18.6010   45.3590 C.3   374  ASN374      0.1688
     75  C        -36.5500  -18.5930   44.1620 C.2   374  ASN374      0.2292
     76  O        -35.9780  -17.5500   43.8510 O.2   374  ASN374     -0.2864
     77  CB       -38.8960  -18.1850   44.9180 C.3   374  ASN374      0.1181
     78  CG       -39.8760  -18.0350   46.0540 C.2   374  ASN374      0.2629
     79  OD1      -39.9030  -18.8230   47.0070 O.2   374  ASN374     -0.2716
     80  ND2      -40.7010  -17.0150   45.9870 N.am  374  ASN374     -0.0877
     81  N        -36.3610  -19.9320   39.9970 N.3   376  ILE376     -0.1245
     82  CA       -36.8510  -20.5980   38.7900 C.3   376  ILE376      0.1561
     83  C        -35.5440  -21.2190   38.2230 C.2   376  ILE376      0.2260
     84  O        -34.6890  -20.5120   37.6940 O.2   376  ILE376     -0.2867
     85  CB       -37.5850  -19.6250   37.8520 C.3   376  ILE376      0.0252
     86  CG1      -38.9440  -19.2060   38.4980 C.3   376  ILE376      0.0019
     87  CG2      -37.8390  -20.2830   36.4900 C.3   376  ILE376      0.0019
     88  CD1      -39.7060  -18.0180   37.8010 C.3   376  ILE376      0.0001
@<TRIPOS>BOND
     1    29    28    2
     2    28    27    1
     3    45    44    1
     4    44    46    1
     5    44    41    1
     6    27    26    1
     7    27    30    1
     8    42    41    1
     9    42    43    2
    10    41    40    1
    11    87    85    1
    12    30    31    1
    13    40    34   am
    14    32    33    1
    15    38    37   ar
    16    84    83    2
    17    88    86    1
    18    85    86    1
    19    85    82    1
    20    34    33    1
    21    34    35    2
    22    37    39   ar
    23    37    36    1
    24    33    36    1
    25    83    82    1
    26    82    81    1
    27    54    55    1
    28    53    47    1
    29    53    52    1
    30    47    48    1
    31    49    50    2
    32    49    48    1
    33    20    19    2
    34    12    11    2
    35    15    13    1
    36    55    58    1
    37    55    56    1
    38    48    51    1
    39    11    10    1
    40    58    59    1
    41    17    18    1
    42    19    18    1
    43    21    18    1
    44    21    22    1
    45    52    51    1
    46    13    10    1
    47    13    14    1
    48    23    22    1
    49    23    24    1
    50    24    25    1
    51    10     9    1
    52    56    57    2
    53    59    61    1
    54    59    60    1
    55    14    16    1
    56     9     3   am
    57     4     3    2
    58     3     2    1
    59     1     2    1
    60    76    75    2
    61    72    70    1
    62    75    74    1
    63     2     5    1
    64    77    74    1
    65    77    78    1
    66    70    71    1
    67    70    69    2
    68    74    73    1
    69     5     6    1
    70     5     7    1
    71    68    69    1
    72    68    67    1
    73    80    78   am
    74    78    79    2
    75    73    64   am
    76     6     8    1
    77    67    66    1
    78    66    63    1
    79    64    65    2
    80    64    63    1
    81    63    62    1
