@<TRIPOS>MOLECULE
tmp/5lgdA03.pdb
 97 93 0 0 0
SMALL
GASTEIGER

@<TRIPOS>ATOM
      1  N        -59.7790  -16.8770   27.1010 N.3   208  HIS208     -0.1226
      2  CA       -59.2280  -17.0690   25.7570 C.3   208  HIS208      0.1752
      3  C        -57.8580  -17.7700   25.7000 C.2   208  HIS208      0.2596
      4  O        -57.5340  -18.3610   24.6650 O.2   208  HIS208     -0.2718
      5  CB       -59.1700  -15.7300   25.0170 C.3   208  HIS208      0.0759
      6  CG       -58.2040  -14.7730   25.6410 C.ar  208  HIS208      0.0818
      7  ND1      -56.8720  -14.7490   25.2670 N.ar  208  HIS208     -0.2268
      8  CD2      -58.3960  -13.8740   26.6350 C.ar  208  HIS208      0.1154
      9  CE1      -56.3080  -13.8200   26.0140 C.ar  208  HIS208      0.1986
     10  NE2      -57.1770  -13.2830   26.8670 N.ar  208  HIS208     -0.2212
     11  N        -57.0700  -17.6990   26.8070 N.am  209  CYS209     -0.1970
     12  CA       -55.7650  -18.3490   26.9660 C.3   209  CYS209      0.1712
     13  C        -55.9110  -19.9030   26.9260 C.2   209  CYS209      0.2296
     14  O        -54.9150  -20.6030   26.7140 O.2   209  CYS209     -0.2864
     15  CB       -55.0860  -17.8880   28.2580 C.3   209  CYS209      0.0983
     16  SG       -54.6840  -16.1170   28.3060 S.3   209  CYS209     -0.0798
     17  N        -57.8670  -21.6050   24.7200 N.3   211  MET211     -0.1245
     18  CA       -58.2640  -22.0260   23.3890 C.3   211  MET211      0.1570
     19  C        -57.1710  -22.7470   22.6230 C.2   211  MET211      0.2261
     20  O        -55.9760  -22.4160   22.7560 O.2   211  MET211     -0.2867
     21  CB       -58.7990  -20.8340   22.6430 C.3   211  MET211      0.0387
     22  CG       -59.9660  -20.2180   23.3440 C.3   211  MET211      0.0595
     23  SD       -60.5420  -18.7590   22.4920 S.3   211  MET211     -0.1393
     24  CE       -61.4710  -19.5450   21.0730 C.3   211  MET211      0.0692
     25  N        -55.9310  -23.1460   19.2200 N.3   213  ASN213     -0.1240
     26  CA       -55.9840  -22.4110   17.9710 C.3   213  ASN213      0.1653
     27  C        -54.9650  -22.9130   16.9560 C.2   213  ASN213      0.2266
     28  O        -53.8430  -23.2580   17.3270 O.2   213  ASN213     -0.2867
     29  CB       -55.6620  -20.9500   18.2790 C.3   213  ASN213      0.1155
     30  CG       -56.7270  -20.1960   19.0240 C.2   213  ASN213      0.2627
     31  OD1      -57.8940  -20.6170   19.1260 O.2   213  ASN213     -0.2716
     32  ND2      -56.3590  -19.0410   19.5480 N.am  213  ASN213     -0.0877
     33  N        -51.4700  -18.7800   13.9400 N.3   231  GLN231     -0.1245
     34  CA       -51.7560  -19.4280   15.2200 C.3   231  GLN231      0.1566
     35  C        -51.4030  -20.9000   15.1390 C.2   231  GLN231      0.2260
     36  O        -51.5700  -21.5020   14.0830 O.2   231  GLN231     -0.2867
     37  CB       -53.2340  -19.2970   15.5700 C.3   231  GLN231      0.0367
     38  CG       -53.6590  -17.8670   15.8660 C.3   231  GLN231      0.0905
     39  CD       -55.1150  -17.7970   16.2190 C.2   231  GLN231      0.2608
     40  OE1      -55.9660  -18.4360   15.5960 O.2   231  GLN231     -0.2717
     41  NE2      -55.4180  -17.0420   17.2550 N.am  231  GLN231     -0.0878
     42  N        -50.3360  -24.7890   25.5130 N.3   239  ARG239     -0.1231
     43  CA       -51.1610  -23.6190   25.1340 C.3   239  ARG239      0.1694
     44  C        -51.0070  -23.4100   23.6480 C.2   239  ARG239      0.2593
     45  O        -50.0390  -23.9130   23.0590 O.2   239  ARG239     -0.2718
     46  CB       -50.6610  -22.3330   25.8470 C.3   239  ARG239      0.0321
     47  CG       -49.1760  -21.9960   25.5710 C.3   239  ARG239      0.0489
     48  CD       -48.7400  -20.5950   25.9550 C.3   239  ARG239      0.2205
     49  NE       -49.2210  -19.5730   25.0200 N.pl3 239  ARG239     -0.0865
     50  CZ       -48.9640  -18.2740   25.1380 C.cat 239  ARG239      0.5346
     51  NH1      -49.4490  -17.4120   24.2520 N.pl3 239  ARG239      0.1354
     52  NH2      -48.2220  -17.8230   26.1430 N.pl3 239  ARG239      0.1354
     53  N        -51.8730  -22.5730   23.0710 N.am  240  SER240     -0.1938
     54  CA       -51.7220  -22.1320   21.7010 C.3   240  SER240      0.2055
     55  C        -50.8860  -20.8670   21.7680 C.2   240  SER240      0.2643
     56  O        -50.9120  -20.1470   22.7600 O.2   240  SER240     -0.2714
     57  CB       -53.0700  -21.8240   21.0550 C.3   240  SER240      0.2130
     58  OG       -53.9090  -22.9670   21.0950 O.3   240  SER240     -0.2179
     59  N        -50.1050  -20.6280   20.7290 N.am  241  ILE241     -0.1963
     60  CA       -49.2550  -19.4610   20.6390 C.3   241  ILE241      0.1727
     61  C        -49.3670  -18.9830   19.2060 C.2   241  ILE241      0.2616
     62  O        -50.3080  -19.4140   18.4980 O.2   241  ILE241     -0.2715
     63  CB       -47.8320  -19.7740   21.1720 C.3   241  ILE241      0.0290
     64  CG1      -47.0420  -18.4820   21.5150 C.3   241  ILE241      0.0022
     65  CG2      -47.0380  -20.7220   20.2740 C.3   241  ILE241      0.0023
     66  CD1      -45.8800  -18.7430   22.5320 C.3   241  ILE241      0.0001
     67  N        -48.4580  -18.0890   18.7720 N.am  242  TYR242     -0.1974
     68  CA       -48.4990  -17.5220   17.4280 C.3   242  TYR242      0.1639
     69  C        -47.1200  -17.1350   16.9480 C.2   242  TYR242      0.2290
     70  O        -46.1980  -16.9320   17.7580 O.2   242  TYR242     -0.2864
     71  CB       -49.4400  -16.2970   17.3750 C.3   242  TYR242      0.0560
     72  CG       -48.9850  -15.1170   18.2070 C.ar  242  TYR242     -0.0198
     73  CD1      -49.1250  -15.1200   19.5990 C.ar  242  TYR242     -0.0009
     74  CD2      -48.4660  -13.9690   17.6060 C.ar  242  TYR242     -0.0009
     75  CE1      -48.7290  -14.0260   20.3690 C.ar  242  TYR242      0.0417
     76  CE2      -48.0570  -12.8730   18.3730 C.ar  242  TYR242      0.0417
     77  CZ       -48.1880  -12.9100   19.7520 C.ar  242  TYR242      0.1957
     78  OH       -47.7770  -11.8450   20.5270 O.3   242  TYR242     -0.2866
     79  N        -53.6060   -9.0280   26.9570 N.3   274  ASP274     -0.1239
     80  CA       -54.2480  -10.3130   26.6390 C.3   274  ASP274      0.1674
     81  C        -53.6400  -11.4730   27.4400 C.2   274  ASP274      0.2266
     82  O        -54.3480  -12.4390   27.7230 O.2   274  ASP274     -0.2867
     83  CB       -54.2150  -10.6290   25.1170 C.3   274  ASP274      0.1410
     84  CG       -54.9500   -9.6460   24.2120 C.2   274  ASP274      0.3668
     85  OD1      -56.0030   -9.1010   24.6430 O.co2 274  ASP274     -0.2456
     86  OD2      -54.4790   -9.4230   23.0740 O.co2 274  ASP274     -0.2456
     87  N        -52.6150  -16.1580   31.3250 N.3   278  PHE278     -0.1241
     88  CA       -51.4310  -17.0410   31.3970 C.3   278  PHE278      0.1605
     89  C        -50.6970  -16.8020   32.7280 C.2   278  PHE278      0.2264
     90  O        -49.7350  -17.4970   32.9830 O.2   278  PHE278     -0.2867
     91  CB       -50.4610  -16.9060   30.1950 C.3   278  PHE278      0.0534
     92  CG       -51.0140  -17.5140   28.9270 C.ar  278  PHE278     -0.0203
     93  CD1      -51.3450  -18.8680   28.8690 C.ar  278  PHE278     -0.0042
     94  CD2      -51.2540  -16.7240   27.8080 C.ar  278  PHE278     -0.0042
     95  CE1      -51.8600  -19.4270   27.7020 C.ar  278  PHE278     -0.0003
     96  CE2      -51.7820  -17.2830   26.6440 C.ar  278  PHE278     -0.0003
     97  CZ       -52.0630  -18.6370   26.5930 C.ar  278  PHE278     -0.0000
@<TRIPOS>BOND
     1    33    34    1
     2    36    35    2
     3    35    34    1
     4    34    37    1
     5    37    38    1
     6    40    39    2
     7    38    39    1
     8    39    41   am
     9    69    68    1
    10    69    70    2
    11    27    28    2
    12    27    26    1
    13    71    68    1
    14    71    72    1
    15    68    67    1
    16    74    72   ar
    17    74    76   ar
    18    26    29    1
    19    26    25    1
    20    72    73   ar
    21    29    30    1
    22    76    77   ar
    23    62    61    2
    24    67    61   am
    25    30    31    2
    26    30    32   am
    27    61    60    1
    28    73    75   ar
    29    77    75   ar
    30    77    78    1
    31    65    63    1
    32    60    59    1
    33    60    63    1
    34    59    55   am
    35    57    58    1
    36    57    54    1
    37    24    23    1
    38    63    64    1
    39    64    66    1
    40    54    55    1
    41    54    53    1
    42    55    56    2
    43    23    22    1
    44    19    20    2
    45    19    18    1
    46    21    22    1
    47    21    18    1
    48    45    44    2
    49    53    44   am
    50    86    84   ar
    51    18    17    1
    52    44    43    1
    53    84    85   ar
    54    84    83    1
    55    51    50    1
    56     4     3    2
    57     5     6    1
    58     5     2    1
    59    49    50    2
    60    49    48    1
    61    83    80    1
    62    43    42    1
    63    43    46    1
    64    50    52    1
    65     7     6   ar
    66     7     9   ar
    67    47    46    1
    68    47    48    1
    69     6     8   ar
    70     3     2    1
    71     3    11   am
    72     2     1    1
    73     9    10   ar
    74    97    96   ar
    75    97    95   ar
    76     8    10   ar
    77    80    79    1
    78    80    81    1
    79    96    94   ar
    80    14    13    2
    81    11    12    1
    82    13    12    1
    83    12    15    1
    84    81    82    2
    85    95    93   ar
    86    94    92   ar
    87    15    16    1
    88    93    92   ar
    89    92    91    1
    90    91    88    1
    91    87    88    1
    92    88    89    1
    93    89    90    2
