@<TRIPOS>MOLECULE
tmp/5lgdA09.pdb
 221 207 0 0 0
SMALL
GASTEIGER

@<TRIPOS>ATOM
      1  N        -46.8830  -36.3820    3.2120 N.3    19  ASN19      -0.1240
      2  CA       -45.9630  -35.6270    4.0560 C.3    19  ASN19       0.1653
      3  C        -46.4800  -35.4060    5.4680 C.2    19  ASN19       0.2266
      4  O        -45.6860  -35.2260    6.3930 O.2    19  ASN19      -0.2867
      5  CB       -45.5730  -34.3190    3.3840 C.3    19  ASN19       0.1155
      6  CG       -44.4340  -34.5120    2.4110 C.2    19  ASN19       0.2627
      7  OD1      -43.2580  -34.5630    2.8000 O.2    19  ASN19      -0.2716
      8  ND2      -44.7590  -34.6910    1.1330 N.am   19  ASN19      -0.0877
      9  N        -43.3740  -37.4330    7.5710 N.3    23  THR23      -0.1218
     10  CA       -42.5360  -36.3300    7.0850 C.3    23  THR23       0.1862
     11  C        -41.2760  -36.8000    6.3880 C.2    23  THR23       0.2287
     12  O        -40.6570  -37.7740    6.8210 O.2    23  THR23      -0.2866
     13  CB       -42.1760  -35.3790    8.2330 C.3    23  THR23       0.1770
     14  OG1      -41.4510  -36.0930    9.2450 O.3    23  THR23      -0.2211
     15  CG2      -43.4050  -34.7000    8.8410 C.3    23  THR23       0.0375
     16  N        -38.7010  -34.8580    6.2200 N.3    25  THR25      -0.1218
     17  CA       -37.6540  -34.1910    6.9840 C.3    25  THR25       0.1862
     18  C        -37.2500  -35.0040    8.2190 C.2    25  THR25       0.2287
     19  O        -38.0980  -35.5440    8.9410 O.2    25  THR25      -0.2866
     20  CB       -38.0380  -32.7130    7.3140 C.3    25  THR25       0.1770
     21  OG1      -37.0430  -32.0990    8.1370 O.3    25  THR25      -0.2211
     22  CG2      -39.3670  -32.5860    7.9950 C.3    25  THR25       0.0375
     23  N        -36.0460  -34.9680   11.8420 N.3    27  VAL27      -0.1245
     24  CA       -36.1320  -34.0370   12.9690 C.3    27  VAL27       0.1561
     25  C        -35.1880  -34.4570   14.0920 C.2    27  VAL27       0.2260
     26  O        -35.2130  -35.6050   14.5380 O.2    27  VAL27      -0.2867
     27  CB       -37.5710  -33.7750   13.4960 C.3    27  VAL27       0.0252
     28  CG1      -37.5740  -32.6880   14.5840 C.3    27  VAL27       0.0019
     29  CG2      -38.5070  -33.3920   12.3660 C.3    27  VAL27       0.0019
     30  N        -39.5900  -37.5160   16.1710 N.3    62  ARG62      -0.1245
     31  CA       -40.6780  -37.4050   15.2000 C.3    62  ARG62       0.1563
     32  C        -40.4480  -38.2070   13.8960 C.2    62  ARG62       0.2260
     33  O        -40.8840  -37.7970   12.8140 O.2    62  ARG62      -0.2867
     34  CB       -40.9450  -35.9190   14.8910 C.3    62  ARG62       0.0307
     35  CG       -41.3740  -35.1030   16.0920 C.3    62  ARG62       0.0489
     36  CD       -41.6600  -33.6550   15.7500 C.3    62  ARG62       0.2205
     37  NE       -41.7910  -32.8480   16.9680 N.pl3  62  ARG62      -0.0865
     38  CZ       -42.9030  -32.7380   17.7000 C.cat  62  ARG62       0.5346
     39  NH1      -44.0080  -33.3850   17.3440 N.pl3  62  ARG62       0.1354
     40  NH2      -42.9130  -31.9830   18.7950 N.pl3  62  ARG62       0.1354
     41  N        -50.7500  -27.6400   13.9650 N.3   216  ASP216     -0.1225
     42  CA       -49.6960  -28.2050   14.7910 C.3   216  ASP216      0.1805
     43  C        -48.3710  -27.5330   14.4160 C.2   216  ASP216      0.2598
     44  O        -47.3410  -27.9560   14.8970 O.2   216  ASP216     -0.2718
     45  CB       -49.6330  -29.7560   14.5830 C.3   216  ASP216      0.1424
     46  CG       -49.2760  -30.2680   13.1900 C.2   216  ASP216      0.3668
     47  OD1      -48.9990  -29.4420   12.3110 O.co2 216  ASP216     -0.2456
     48  OD2      -49.2620  -31.5150   12.9880 O.co2 216  ASP216     -0.2456
     49  N        -48.4010  -26.5460   13.4810 N.am  217  ALA217     -0.1966
     50  CA       -47.2580  -25.7720   12.9560 C.3   217  ALA217      0.1728
     51  C        -46.4010  -26.5430   11.9280 C.2   217  ALA217      0.2616
     52  O        -45.3780  -26.0320   11.4670 O.2   217  ALA217     -0.2715
     53  CB       -46.3980  -25.1910   14.0830 C.3   217  ALA217      0.0334
     54  N        -46.8510  -27.7480   11.5060 N.am  218  ALA218     -0.1977
     55  CA       -46.1070  -28.4840   10.5040 C.3   218  ALA218      0.1597
     56  C        -46.5290  -27.9640    9.1250 C.2   218  ALA218      0.2287
     57  O        -45.8350  -28.1550    8.1400 O.2   218  ALA218     -0.2864
     58  CB       -46.3900  -29.9680   10.6280 C.3   218  ALA218      0.0319
     59  N        -50.9640  -21.4970   16.2650 N.3   232  PHE232     -0.1227
     60  CA       -50.6780  -22.9260   16.3110 C.3   232  PHE232      0.1736
     61  C        -50.6410  -23.4570   17.7300 C.2   232  PHE232      0.2595
     62  O        -50.2390  -22.7640   18.6640 O.2   232  PHE232     -0.2718
     63  CB       -49.4100  -23.3010   15.5230 C.3   232  PHE232      0.0547
     64  CG       -48.1790  -22.5550   15.9670 C.ar  232  PHE232     -0.0202
     65  CD1      -47.8360  -21.3330   15.3870 C.ar  232  PHE232     -0.0042
     66  CD2      -47.3650  -23.0630   16.9690 C.ar  232  PHE232     -0.0042
     67  CE1      -46.6990  -20.6470   15.7930 C.ar  232  PHE232     -0.0003
     68  CE2      -46.2320  -22.3680   17.3760 C.ar  232  PHE232     -0.0003
     69  CZ       -45.9200  -21.1590   16.8030 C.ar  232  PHE232     -0.0000
     70  N        -51.0730  -24.7080   17.8800 N.am  233  PHE233     -0.1962
     71  CA       -51.0790  -25.3680   19.1770 C.3   233  PHE233      0.1771
     72  C        -49.8150  -26.1880   19.3830 C.2   233  PHE233      0.2620
     73  O        -49.4580  -26.9510   18.5010 O.2   233  PHE233     -0.2715
     74  CB       -52.3470  -26.2410   19.3230 C.3   233  PHE233      0.0574
     75  CG       -52.3370  -27.0820   20.5740 C.ar  233  PHE233     -0.0200
     76  CD1      -52.3480  -26.4840   21.8340 C.ar  233  PHE233     -0.0042
     77  CD2      -52.3560  -28.4720   20.4980 C.ar  233  PHE233     -0.0042
     78  CE1      -52.3440  -27.2630   22.9950 C.ar  233  PHE233     -0.0003
     79  CE2      -52.3210  -29.2520   21.6600 C.ar  233  PHE233     -0.0003
     80  CZ       -52.3090  -28.6460   22.9000 C.ar  233  PHE233     -0.0000
     81  N        -49.1430  -26.0400   20.5460 N.am  234  SER234     -0.1950
     82  CA       -47.9560  -26.8300   20.9280 C.3   234  SER234      0.1924
     83  C        -48.2740  -27.4940   22.2510 C.2   234  SER234      0.2314
     84  O        -48.3250  -26.8100   23.2880 O.2   234  SER234     -0.2863
     85  CB       -46.7230  -25.9350   21.0920 C.3   234  SER234      0.2116
     86  OG       -45.5370  -26.6440   20.7700 O.3   234  SER234     -0.2180
     87  N        -46.5470  -29.4460   24.0610 N.3   236  ASP236     -0.1225
     88  CA       -45.3990  -29.4780   24.9500 C.3   236  ASP236      0.1805
     89  C        -45.3510  -28.2410   25.8690 C.2   236  ASP236      0.2597
     90  O        -44.9350  -28.3610   27.0170 O.2   236  ASP236     -0.2718
     91  CB       -44.1020  -29.7140   24.1700 C.3   236  ASP236      0.1424
     92  CG       -43.7070  -28.6560   23.1660 C.2   236  ASP236      0.3668
     93  OD1      -44.4360  -27.6580   23.0340 O.co2 236  ASP236     -0.2456
     94  OD2      -42.6550  -28.8150   22.5320 O.co2 236  ASP236     -0.2456
     95  N        -45.8820  -27.0870   25.4190 N.am  237  ILE237     -0.1980
     96  CA       -45.9630  -25.9090   26.2870 C.3   237  ILE237      0.1595
     97  C        -47.3760  -25.7530   26.8400 C.2   237  ILE237      0.2287
     98  O        -47.6370  -24.8060   27.5940 O.2   237  ILE237     -0.2864
     99  CB       -45.4010  -24.6220   25.6460 C.3   237  ILE237      0.0276
    100  CG1      -46.1280  -24.2720   24.3260 C.3   237  ILE237      0.0022
    101  CG2      -43.9050  -24.7650   25.4500 C.3   237  ILE237      0.0022
    102  CD1      -46.0870  -22.7890   23.8990 C.3   237  ILE237      0.0001
    103  N        -50.1050  -20.6280   20.7290 N.3   241  ILE241     -0.1245
    104  CA       -49.2550  -19.4610   20.6390 C.3   241  ILE241      0.1561
    105  C        -49.3670  -18.9830   19.2060 C.2   241  ILE241      0.2260
    106  O        -50.3080  -19.4140   18.4980 O.2   241  ILE241     -0.2867
    107  CB       -47.8320  -19.7740   21.1720 C.3   241  ILE241      0.0252
    108  CG1      -47.0420  -18.4820   21.5150 C.3   241  ILE241      0.0019
    109  CG2      -47.0380  -20.7220   20.2740 C.3   241  ILE241      0.0019
    110  CD1      -45.8800  -18.7430   22.5320 C.3   241  ILE241      0.0001
    111  N        -41.4000  -16.2540   16.7540 N.3   261  LEU261     -0.1245
    112  CA       -42.1760  -16.1900   17.9760 C.3   261  LEU261      0.1561
    113  C        -41.8410  -14.8820   18.6570 C.2   261  LEU261      0.2260
    114  O        -40.6950  -14.6730   19.0430 O.2   261  LEU261     -0.2867
    115  CB       -41.9330  -17.4000   18.8720 C.3   261  LEU261      0.0270
    116  CG       -43.0410  -18.4230   18.8290 C.3   261  LEU261      0.0019
    117  CD1      -43.1380  -19.0780   17.4550 C.3   261  LEU261      0.0001
    118  CD2      -42.8810  -19.4370   19.9530 C.3   261  LEU261      0.0001
    119  N        -44.6500  -13.6750   25.2750 N.3   266  PHE266     -0.1241
    120  CA       -44.0740  -13.9460   26.5840 C.3   266  PHE266      0.1605
    121  C        -44.2300  -12.7770   27.5760 C.2   266  PHE266      0.2264
    122  O        -43.9390  -12.9410   28.7680 O.2   266  PHE266     -0.2867
    123  CB       -42.5930  -14.3720   26.3990 C.3   266  PHE266      0.0534
    124  CG       -42.4360  -15.3490   25.2450 C.ar  266  PHE266     -0.0203
    125  CD1      -42.8830  -16.6640   25.3570 C.ar  266  PHE266     -0.0042
    126  CD2      -41.9160  -14.9310   24.0220 C.ar  266  PHE266     -0.0042
    127  CE1      -42.7820  -17.5500   24.2790 C.ar  266  PHE266     -0.0003
    128  CE2      -41.8150  -15.8190   22.9410 C.ar  266  PHE266     -0.0003
    129  CZ       -42.2510  -17.1190   23.0760 C.ar  266  PHE266     -0.0000
    130  N        -41.8550  -23.0830   31.8460 N.3   307  ILE307     -0.1231
    131  CA       -41.2120  -23.0620   30.5360 C.3   307  ILE307      0.1692
    132  C        -40.7300  -21.6410   30.2480 C.2   307  ILE307      0.2593
    133  O        -41.3810  -20.6890   30.6400 O.2   307  ILE307     -0.2718
    134  CB       -42.1270  -23.6380   29.4060 C.3   307  ILE307      0.0266
    135  CG1      -42.6460  -25.0600   29.7800 C.3   307  ILE307      0.0019
    136  CG2      -41.4140  -23.6540   28.0150 C.3   307  ILE307      0.0020
    137  CD1      -41.6160  -26.1410   30.0340 C.3   307  ILE307      0.0001
    138  N        -39.5870  -21.5080   29.5820 N.am  308  SER308     -0.1938
    139  CA       -39.0670  -20.2140   29.1720 C.3   308  SER308      0.2055
    140  C        -38.3150  -20.4190   27.8700 C.2   308  SER308      0.2642
    141  O        -38.2920  -21.5270   27.3440 O.2   308  SER308     -0.2714
    142  CB       -38.1530  -19.6430   30.2620 C.3   308  SER308      0.2130
    143  OG       -36.9170  -20.3340   30.3010 O.3   308  SER308     -0.2179
    144  N        -37.6740  -19.3700   27.3690 N.am  309  LEU309     -0.1977
    145  CA       -36.8550  -19.4380   26.1590 C.3   309  LEU309      0.1596
    146  C        -35.4430  -19.7930   26.6580 C.2   309  LEU309      0.2287
    147  O        -35.1360  -19.4680   27.8040 O.2   309  LEU309     -0.2864
    148  CB       -36.7780  -18.0530   25.4710 C.3   309  LEU309      0.0297
    149  CG       -37.9770  -17.2780   24.9050 C.3   309  LEU309      0.0022
    150  CD1      -37.8390  -17.0390   23.4090 C.3   309  LEU309      0.0001
    151  CD2      -39.3200  -17.7290   25.3920 C.3   309  LEU309      0.0001
    152  N        -37.2710  -18.8740   18.3960 N.3   335  THR335     -0.1218
    153  CA       -38.0090  -19.9230   17.6880 C.3   335  THR335      0.1862
    154  C        -38.4390  -19.2870   16.3480 C.2   335  THR335      0.2287
    155  O        -38.8630  -18.1230   16.3260 O.2   335  THR335     -0.2866
    156  CB       -39.2140  -20.3880   18.5270 C.3   335  THR335      0.1770
    157  OG1      -38.7530  -21.0050   19.7240 O.3   335  THR335     -0.2211
    158  CG2      -40.1150  -21.3690   17.7930 C.3   335  THR335      0.0375
    159  N        -40.1310  -20.4330   12.1720 N.3   337  LEU337     -0.1245
    160  CA       -40.6610  -21.4020   11.2250 C.3   337  LEU337      0.1561
    161  C        -40.5670  -20.7710    9.8420 C.2   337  LEU337      0.2260
    162  O        -40.9820  -19.6260    9.6600 O.2   337  LEU337     -0.2867
    163  CB       -42.1060  -21.8550   11.5180 C.3   337  LEU337      0.0270
    164  CG       -42.7730  -21.6000   12.8710 C.3   337  LEU337      0.0019
    165  CD1      -44.2030  -21.9570   12.7730 C.3   337  LEU337      0.0001
    166  CD2      -42.1990  -22.4810   13.9480 C.3   337  LEU337      0.0001
    167  N        -44.4130  -26.0440    6.2910 N.3   346  THR346     -0.1218
    168  CA       -43.2430  -25.6320    7.0700 C.3   346  THR346      0.1862
    169  C        -42.0380  -26.4410    6.5470 C.2   346  THR346      0.2287
    170  O        -41.9830  -27.6540    6.7160 O.2   346  THR346     -0.2866
    171  CB       -43.5270  -25.7440    8.5810 C.3   346  THR346      0.1770
    172  OG1      -44.5520  -24.8090    8.9200 O.3   346  THR346     -0.2211
    173  CG2      -42.2860  -25.4520    9.4490 C.3   346  THR346      0.0375
    174  N        -37.5810  -25.1920   10.5080 N.3   349  PHE349     -0.1241
    175  CA       -37.9520  -24.5640   11.7670 C.3   349  PHE349      0.1605
    176  C        -36.8660  -24.8520   12.8030 C.2   349  PHE349      0.2264
    177  O        -36.0460  -25.7420   12.6080 O.2   349  PHE349     -0.2867
    178  CB       -39.2890  -25.1460   12.2710 C.3   349  PHE349      0.0534
    179  CG       -39.2320  -26.6100   12.6630 C.ar  349  PHE349     -0.0203
    180  CD1      -39.2920  -27.6100   11.6970 C.ar  349  PHE349     -0.0042
    181  CD2      -39.1550  -26.9880   13.9960 C.ar  349  PHE349     -0.0042
    182  CE1      -39.2310  -28.9610   12.0580 C.ar  349  PHE349     -0.0003
    183  CE2      -39.0890  -28.3370   14.3540 C.ar  349  PHE349     -0.0003
    184  CZ       -39.1220  -29.3140   13.3830 C.ar  349  PHE349     -0.0000
    185  N        -37.3030  -24.8460   17.0790 N.3   351  LYS351     -0.1231
    186  CA       -38.1760  -24.6640   18.2350 C.3   351  LYS351      0.1693
    187  C        -37.2520  -24.6940   19.4650 C.2   351  LYS351      0.2592
    188  O        -36.7020  -25.7410   19.8050 O.2   351  LYS351     -0.2718
    189  CB       -39.2360  -25.7810   18.2720 C.3   351  LYS351      0.0285
    190  CG       -40.0000  -25.9000   19.6090 C.3   351  LYS351      0.0035
    191  CD       -40.4020  -27.3490   19.9270 C.3   351  LYS351      0.0206
    192  CE       -41.8300  -27.6800   19.5710 C.3   351  LYS351      0.1093
    193  NZ       -42.1310  -29.1120   19.8070 N.3   351  LYS351     -0.1314
    194  N        -36.9990  -23.5300   20.0680 N.am  352  ARG352     -0.1966
    195  CA       -36.0440  -23.4670   21.1700 C.3   352  ARG352      0.1729
    196  C        -36.6990  -23.1350   22.5010 C.2   352  ARG352      0.2616
    197  O        -37.2100  -22.0370   22.6850 O.2   352  ARG352     -0.2715
    198  CB       -34.8950  -22.5200   20.8350 C.3   352  ARG352      0.0348
    199  CG       -34.2110  -22.8140   19.4940 C.3   352  ARG352      0.0492
    200  CD       -32.9350  -22.0470   19.3740 C.3   352  ARG352      0.2205
    201  NE       -32.2100  -22.3440   18.1360 N.pl3 352  ARG352     -0.0865
    202  CZ       -32.2910  -21.6190   17.0200 C.cat 352  ARG352      0.5346
    203  NH1      -31.5810  -21.9520   15.9510 N.pl3 352  ARG352      0.1354
    204  NH2      -33.1060  -20.5740   16.9560 N.pl3 352  ARG352      0.1354
    205  N        -36.7320  -24.1080   23.4170 N.am  353  LEU353     -0.1977
    206  CA       -37.3520  -23.8910   24.7030 C.3   353  LEU353      0.1596
    207  C        -36.4660  -24.3370   25.8240 C.2   353  LEU353      0.2287
    208  O        -35.6570  -25.2440   25.6560 O.2   353  LEU353     -0.2864
    209  CB       -38.7760  -24.5010   24.8010 C.3   353  LEU353      0.0297
    210  CG       -38.9570  -26.0070   24.9040 C.3   353  LEU353      0.0022
    211  CD1      -38.7230  -26.5170   26.3500 C.3   353  LEU353      0.0001
    212  CD2      -40.3920  -26.4160   24.4700 C.3   353  LEU353      0.0001
    213  N        -35.2120  -28.1160   18.8590 N.3   384  GLU384     -0.1245
    214  CA       -35.8850  -29.1350   18.0520 C.3   384  GLU384      0.1567
    215  C        -35.9580  -28.5080   16.6760 C.2   384  GLU384      0.2260
    216  O        -36.5600  -27.4460   16.5120 O.2   384  GLU384     -0.2867
    217  CB       -37.2710  -29.4360   18.5930 C.3   384  GLU384      0.0388
    218  CG       -37.6060  -30.8990   18.4510 C.3   384  GLU384      0.1160
    219  CD       -39.0650  -31.1690   18.7160 C.2   384  GLU384      0.3649
    220  OE1      -39.4540  -31.3780   19.8870 O.co2 384  GLU384     -0.2457
    221  OE2      -39.8370  -31.0610   17.7480 O.co2 384  GLU384     -0.2457
@<TRIPOS>BOND
     1     8     6   am
     2     6     7    2
     3     6     5    1
     4     1     2    1
     5     5     2    1
     6     2     3    1
     7     3     4    2
     8    16    17    1
     9   167   168    1
    10    11    12    2
    11    11    10    1
    12   169   170    2
    13   169   168    1
    14    17    20    1
    15    17    18    1
    16   168   171    1
    17    10     9    1
    18    10    13    1
    19    20    22    1
    20    20    21    1
    21    57    56    2
    22    18    19    2
    23    13    15    1
    24    13    14    1
    25   171   172    1
    26   171   173    1
    27    56    55    1
    28   162   161    2
    29   161   160    1
    30    55    58    1
    31    55    54    1
    32   174   175    1
    33   160   163    1
    34   160   159    1
    35    52    51    2
    36    54    51   am
    37   163   164    1
    38   180   182   ar
    39   180   179   ar
    40   175   178    1
    41   175   176    1
    42    23    24    1
    43    51    50    1
    44   182   184   ar
    45   178   179    1
    46    47    46   ar
    47    29    27    1
    48   177   176    2
    49   179   181   ar
    50   165   164    1
    51    33    32    2
    52   164   166    1
    53    50    49    1
    54    50    53    1
    55    24    27    1
    56    24    25    1
    57    48    46   ar
    58    46    45    1
    59   184   183   ar
    60    49    43   am
    61    27    28    1
    62    32    31    1
    63    41    42    1
    64   181   183   ar
    65    25    26    2
    66    43    42    1
    67    43    44    2
    68    45    42    1
    69    34    31    1
    70    34    35    1
    71    31    30    1
    72    65    67   ar
    73    65    64   ar
    74    63    64    1
    75    63    60    1
    76    36    35    1
    77    36    37    1
    78    67    69   ar
    79   203   202    1
    80    64    66   ar
    81    59    60    1
    82    60    61    1
    83   155   154    2
    84   154   153    1
    85   216   215    2
    86   215   214    1
    87   111   112    1
    88    69    68   ar
    89   204   202    1
    90    37    38    2
    91    66    68   ar
    92   202   201    2
    93   185   186    1
    94    39    38    1
    95   117   116    1
    96   153   152    1
    97   153   156    1
    98    38    40    1
    99    61    70   am
   100    61    62    2
   101   221   219   ar
   102   158   156    1
   103    70    71    1
   104   112   113    1
   105   112   115    1
   106   214   217    1
   107   214   213    1
   108   201   200    1
   109   186   189    1
   110   186   187    1
   111   189   190    1
   112   218   217    1
   113   218   219    1
   114   106   105    2
   115    73    72    2
   116   156   157    1
   117   113   114    2
   118   219   220   ar
   119   116   115    1
   120   116   118    1
   121    71    74    1
   122    71    72    1
   123   105   104    1
   124    74    75    1
   125   200   199    1
   126    72    81   am
   127   187   188    2
   128   187   194   am
   129   199   198    1
   130   192   193    1
   131   192   191    1
   132   190   191    1
   133   194   195    1
   134   109   107    1
   135    77    75   ar
   136    77    79   ar
   137    81    82    1
   138    75    76   ar
   139   104   103    1
   140   104   107    1
   141    86    85    1
   142   198   195    1
   143    82    85    1
   144    82    83    1
   145   195   196    1
   146   107   108    1
   147   108   110    1
   148    79    80   ar
   149    76    78   ar
   150    83    84    2
   151   196   197    2
   152   196   205   am
   153    94    92   ar
   154    80    78   ar
   155   128   129   ar
   156   128   126   ar
   157    93    92   ar
   158   129   127   ar
   159    92    91    1
   160   150   149    1
   161   205   206    1
   162   102   100    1
   163   126   124   ar
   164    87    88    1
   165    91    88    1
   166   127   125   ar
   167   100    99    1
   168   212   210    1
   169   206   209    1
   170   206   207    1
   171   209   210    1
   172   210   211    1
   173   149   151    1
   174   149   148    1
   175    88    89    1
   176   124   125   ar
   177   124   123    1
   178   119   120    1
   179    95    89   am
   180    95    96    1
   181   101    99    1
   182   148   145    1
   183    99    96    1
   184   208   207    2
   185    89    90    2
   186   145   146    1
   187   145   144    1
   188    96    97    1
   189   123   120    1
   190   120   121    1
   191   146   147    2
   192    97    98    2
   193   141   140    2
   194   144   140   am
   195   121   122    2
   196   140   139    1
   197   136   134    1
   198   139   138    1
   199   139   142    1
   200   134   135    1
   201   134   131    1
   202   138   132   am
   203   135   137    1
   204   132   131    1
   205   132   133    2
   206   142   143    1
   207   131   130    1
