@<TRIPOS>MOLECULE
tmp/5lgdA08.pdb
 186 172 0 0 0
SMALL
GASTEIGER

@<TRIPOS>ATOM
      1  N        -35.2780  -32.9830   41.4420 N.3   106  LEU106     -0.1231
      2  CA       -36.6370  -32.8210   40.8850 C.3   106  LEU106      0.1693
      3  C        -37.7510  -33.2130   41.8530 C.2   106  LEU106      0.2591
      4  O        -38.6520  -32.4130   42.0800 O.2   106  LEU106     -0.2718
      5  CB       -36.7750  -33.6320   39.5660 C.3   106  LEU106      0.0284
      6  CG       -35.6920  -33.4670   38.4770 C.3   106  LEU106      0.0019
      7  CD1      -36.0320  -34.2910   37.2820 C.3   106  LEU106      0.0001
      8  CD2      -35.5180  -32.0060   38.0400 C.3   106  LEU106      0.0001
      9  N        -37.6640  -34.4100   42.4540 N.am  107  ALA107     -0.1980
     10  CA       -38.6830  -34.8920   43.3900 C.3   107  ALA107      0.1597
     11  C        -38.7540  -34.0360   44.6420 C.2   107  ALA107      0.2287
     12  O        -39.8360  -33.8410   45.1780 O.2   107  ALA107     -0.2864
     13  CB       -38.4340  -36.3520   43.7540 C.3   107  ALA107      0.0319
     14  N        -40.4590  -30.6850   43.6020 N.3   110  ALA110     -0.1231
     15  CA       -41.8720  -30.9270   43.3510 C.3   110  ALA110      0.1694
     16  C        -42.6880  -31.3050   44.5520 C.2   110  ALA110      0.2591
     17  O        -43.7740  -30.7380   44.7010 O.2   110  ALA110     -0.2718
     18  CB       -42.0560  -31.9490   42.2690 C.3   110  ALA110      0.0304
     19  N        -42.2180  -32.2740   45.4020 N.am  111  ALA111     -0.1980
     20  CA       -43.0140  -32.6810   46.5760 C.3   111  ALA111      0.1597
     21  C        -43.2120  -31.5250   47.5540 C.2   111  ALA111      0.2287
     22  O        -44.2940  -31.3640   48.1090 O.2   111  ALA111     -0.2864
     23  CB       -42.3960  -33.8910   47.2720 C.3   111  ALA111      0.0319
     24  N        -45.8590  -29.2250   46.0070 N.3   114  ILE114     -0.1231
     25  CA       -47.1880  -29.7930   46.0260 C.3   114  ILE114      0.1692
     26  C        -47.7540  -29.9520   47.4300 C.2   114  ILE114      0.2592
     27  O        -48.9010  -29.5740   47.6590 O.2   114  ILE114     -0.2718
     28  CB       -47.2320  -31.1150   45.2170 C.3   114  ILE114      0.0266
     29  CG1      -46.8900  -30.8450   43.7140 C.3   114  ILE114      0.0019
     30  CG2      -48.6430  -31.8010   45.3640 C.3   114  ILE114      0.0020
     31  CD1      -46.5370  -32.1330   42.8850 C.3   114  ILE114      0.0001
     32  N        -46.9910  -30.5460   48.3510 N.am  115  TYR115     -0.1976
     33  CA       -47.5380  -30.7940   49.6700 C.3   115  TYR115      0.1639
     34  C        -47.2010  -29.7190   50.6590 C.2   115  TYR115      0.2290
     35  O        -46.1510  -29.7880   51.2640 O.2   115  TYR115     -0.2864
     36  CB       -47.1410  -32.1850   50.1930 C.3   115  TYR115      0.0560
     37  CG       -47.5080  -33.2840   49.2180 C.ar  115  TYR115     -0.0198
     38  CD1      -48.8180  -33.7470   49.1180 C.ar  115  TYR115     -0.0009
     39  CD2      -46.5610  -33.8070   48.3430 C.ar  115  TYR115     -0.0009
     40  CE1      -49.1710  -34.6980   48.1610 C.ar  115  TYR115      0.0417
     41  CE2      -46.9040  -34.7550   47.3890 C.ar  115  TYR115      0.0417
     42  CZ       -48.2060  -35.1920   47.2960 C.ar  115  TYR115      0.1957
     43  OH       -48.4860  -36.1750   46.3950 O.3   115  TYR115     -0.2866
     44  N        -38.9960  -40.6810   46.8350 N.3   153  LEU153     -0.1245
     45  CA       -40.3940  -40.9740   46.4920 C.3   153  LEU153      0.1561
     46  C        -40.7770  -42.4110   46.7420 C.2   153  LEU153      0.2260
     47  O        -41.8860  -42.6640   47.2070 O.2   153  LEU153     -0.2867
     48  CB       -40.7240  -40.5500   45.0670 C.3   153  LEU153      0.0270
     49  CG       -40.7970  -39.0290   44.7580 C.3   153  LEU153      0.0019
     50  CD1      -41.3500  -38.8340   43.3610 C.3   153  LEU153      0.0001
     51  CD2      -41.7140  -38.2670   45.7280 C.3   153  LEU153      0.0001
     52  N        -47.8220  -42.1970   45.0120 N.3   160  VAL160     -0.1231
     53  CA       -47.0360  -41.1800   44.3060 C.3   160  VAL160      0.1692
     54  C        -46.4700  -41.8280   43.0710 C.2   160  VAL160      0.2592
     55  O        -46.3720  -43.0470   43.0370 O.2   160  VAL160     -0.2718
     56  CB       -45.8810  -40.5650   45.1680 C.3   160  VAL160      0.0266
     57  CG1      -46.3920  -39.5070   46.1350 C.3   160  VAL160      0.0020
     58  CG2      -45.0750  -41.6420   45.8970 C.3   160  VAL160      0.0020
     59  N        -46.0590  -41.0420   42.0650 N.am  161  THR161     -0.1953
     60  CA       -45.3740  -41.6560   40.9240 C.3   161  THR161      0.1897
     61  C        -43.9170  -41.5370   41.2740 C.2   161  THR161      0.2313
     62  O        -43.4470  -40.4290   41.4750 O.2   161  THR161     -0.2863
     63  CB       -45.8290  -41.1980   39.5020 C.3   161  THR161      0.1794
     64  OG1      -44.7710  -40.5450   38.8200 O.3   161  THR161     -0.2208
     65  CG2      -47.0740  -40.3730   39.4880 C.3   161  THR161      0.0378
     66  N        -39.2600  -40.2990   38.0430 N.3   164  VAL164     -0.1231
     67  CA       -39.1790  -38.8900   37.7150 C.3   164  VAL164      0.1692
     68  C        -38.2540  -38.7160   36.5240 C.2   164  VAL164      0.2593
     69  O        -37.4010  -39.5630   36.2550 O.2   164  VAL164     -0.2718
     70  CB       -38.8550  -37.9890   38.9540 C.3   164  VAL164      0.0266
     71  CG1      -39.9980  -38.0560   39.9610 C.3   164  VAL164      0.0020
     72  CG2      -37.6070  -38.4370   39.6350 C.3   164  VAL164      0.0020
     73  N        -38.4710  -37.6640   35.7840 N.am  165  GLY165     -0.1942
     74  CA       -37.6910  -37.3680   34.5960 C.3   165  GLY165      0.2014
     75  C        -38.3480  -36.2420   33.8580 C.2   165  GLY165      0.2639
     76  O        -39.5720  -36.1540   33.8720 O.2   165  GLY165     -0.2714
     77  N        -37.5500  -35.3860   33.2000 N.am  166  LEU166     -0.1963
     78  CA       -38.0790  -34.2570   32.4240 C.3   166  LEU166      0.1728
     79  C        -39.0250  -34.6870   31.3100 C.2   166  LEU166      0.2616
     80  O        -39.9870  -33.9720   31.0560 O.2   166  LEU166     -0.2715
     81  CB       -36.9350  -33.4480   31.8310 C.3   166  LEU166      0.0311
     82  CG       -36.3950  -32.2660   32.6280 C.3   166  LEU166      0.0022
     83  CD1      -36.5130  -32.4740   34.1400 C.3   166  LEU166      0.0001
     84  CD2      -34.9830  -32.0820   32.3080 C.3   166  LEU166      0.0001
     85  N        -38.7090  -35.7760   30.5800 N.am  167  PHE167     -0.1974
     86  CA       -39.5890  -36.2540   29.4910 C.3   167  PHE167      0.1639
     87  C        -39.9530  -37.6870   29.7810 C.2   167  PHE167      0.2290
     88  O        -39.7140  -38.5950   28.9950 O.2   167  PHE167     -0.2864
     89  CB       -38.9980  -36.0340   28.0810 C.3   167  PHE167      0.0560
     90  CG       -38.4370  -34.6430   27.9260 C.ar  167  PHE167     -0.0200
     91  CD1      -39.2720  -33.5660   27.6500 C.ar  167  PHE167     -0.0042
     92  CD2      -37.0940  -34.3860   28.1890 C.ar  167  PHE167     -0.0042
     93  CE1      -38.7610  -32.2670   27.5840 C.ar  167  PHE167     -0.0003
     94  CE2      -36.5890  -33.0920   28.1070 C.ar  167  PHE167     -0.0003
     95  CZ       -37.4290  -32.0410   27.8240 C.ar  167  PHE167     -0.0000
     96  N        -46.5470  -29.4460   24.0610 N.3   236  ASP236     -0.1239
     97  CA       -45.3990  -29.4780   24.9500 C.3   236  ASP236      0.1674
     98  C        -45.3510  -28.2410   25.8690 C.2   236  ASP236      0.2266
     99  O        -44.9350  -28.3610   27.0170 O.2   236  ASP236     -0.2867
    100  CB       -44.1020  -29.7140   24.1700 C.3   236  ASP236      0.1410
    101  CG       -43.7070  -28.6560   23.1660 C.2   236  ASP236      0.3668
    102  OD1      -44.4360  -27.6580   23.0340 O.co2 236  ASP236     -0.2456
    103  OD2      -42.6550  -28.8150   22.5320 O.co2 236  ASP236     -0.2456
    104  N        -46.5960  -24.0290   33.8540 N.3   296  ILE296     -0.1245
    105  CA       -47.4020  -25.1010   33.2760 C.3   296  ILE296      0.1561
    106  C        -47.6590  -26.2260   34.2850 C.2   296  ILE296      0.2260
    107  O        -47.9620  -27.3410   33.8720 O.2   296  ILE296     -0.2867
    108  CB       -46.8760  -25.6270   31.9310 C.3   296  ILE296      0.0252
    109  CG1      -45.4850  -26.3240   32.0600 C.3   296  ILE296      0.0019
    110  CG2      -46.8910  -24.5290   30.8880 C.3   296  ILE296      0.0019
    111  CD1      -45.2060  -27.2330   30.8910 C.3   296  ILE296      0.0001
    112  N        -48.8250  -30.6780   34.2990 N.3   300  LYS300     -0.1231
    113  CA       -47.7100  -31.5060   34.7210 C.3   300  LYS300      0.1693
    114  C        -47.9700  -32.0890   36.0790 C.2   300  LYS300      0.2591
    115  O        -47.0150  -32.3050   36.8280 O.2   300  LYS300     -0.2718
    116  CB       -46.4200  -30.6650   34.7420 C.3   300  LYS300      0.0285
    117  CG       -45.9850  -30.1390   33.3680 C.3   300  LYS300      0.0035
    118  CD       -45.4620  -31.2550   32.4870 C.3   300  LYS300      0.0206
    119  CE       -45.6240  -30.9990   31.0160 C.3   300  LYS300      0.1093
    120  NZ       -44.9710  -32.0840   30.2350 N.3   300  LYS300     -0.1314
    121  N        -49.2630  -32.3310   36.4100 N.am  301  GLU301     -0.1979
    122  CA       -49.7160  -32.9370   37.6690 C.3   301  GLU301      0.1602
    123  C        -49.3210  -32.1350   38.9280 C.2   301  GLU301      0.2287
    124  O        -49.0700  -32.7240   39.9940 O.2   301  GLU301     -0.2864
    125  CB       -49.2390  -34.4200   37.7690 C.3   301  GLU301      0.0415
    126  CG       -49.8790  -35.3420   36.7390 C.3   301  GLU301      0.1163
    127  CD       -49.1860  -36.6710   36.4910 C.2   301  GLU301      0.3649
    128  OE1      -48.7160  -37.3010   37.4680 O.co2 301  GLU301     -0.2457
    129  OE2      -49.1530  -37.1020   35.3130 O.co2 301  GLU301     -0.2457
    130  N        -46.6250  -30.4320   39.3230 N.3   303  ARG303     -0.1245
    131  CA       -45.1780  -30.2010   39.4750 C.3   303  ARG303      0.1563
    132  C        -44.8220  -28.7650   39.0590 C.2   303  ARG303      0.2260
    133  O        -45.3780  -28.2920   38.0910 O.2   303  ARG303     -0.2867
    134  CB       -44.3730  -31.2350   38.7030 C.3   303  ARG303      0.0307
    135  CG       -44.6690  -32.6400   39.1860 C.3   303  ARG303      0.0489
    136  CD       -43.6870  -33.5750   38.5830 C.3   303  ARG303      0.2205
    137  NE       -43.9660  -33.8580   37.1900 N.pl3 303  ARG303     -0.0865
    138  CZ       -44.7810  -34.8220   36.7910 C.cat 303  ARG303      0.5346
    139  NH1      -44.9990  -35.0160   35.4980 N.pl3 303  ARG303      0.1354
    140  NH2      -45.3970  -35.5980   37.6870 N.pl3 303  ARG303      0.1354
    141  N        -43.2970  -26.9390   37.0490 N.3   305  VAL305     -0.1245
    142  CA       -42.5700  -26.7680   35.8030 C.3   305  VAL305      0.1561
    143  C        -42.8130  -25.3450   35.2870 C.2   305  VAL305      0.2260
    144  O        -43.9800  -24.9180   35.1700 O.2   305  VAL305     -0.2867
    145  CB       -42.9530  -27.8200   34.7210 C.3   305  VAL305      0.0252
    146  CG1      -42.1180  -27.6150   33.4540 C.3   305  VAL305      0.0019
    147  CG2      -42.7770  -29.2460   35.2530 C.3   305  VAL305      0.0019
    148  N        -41.8550  -23.0830   31.8460 N.3   307  ILE307     -0.1245
    149  CA       -41.2120  -23.0620   30.5360 C.3   307  ILE307      0.1561
    150  C        -40.7300  -21.6410   30.2480 C.2   307  ILE307      0.2260
    151  O        -41.3810  -20.6890   30.6400 O.2   307  ILE307     -0.2867
    152  CB       -42.1270  -23.6380   29.4060 C.3   307  ILE307      0.0252
    153  CG1      -42.6460  -25.0600   29.7800 C.3   307  ILE307      0.0019
    154  CG2      -41.4140  -23.6540   28.0150 C.3   307  ILE307      0.0019
    155  CD1      -41.6160  -26.1410   30.0340 C.3   307  ILE307      0.0001
    156  N        -36.7320  -24.1080   23.4170 N.3   353  LEU353     -0.1245
    157  CA       -37.3520  -23.8910   24.7030 C.3   353  LEU353      0.1561
    158  C        -36.4660  -24.3370   25.8240 C.2   353  LEU353      0.2260
    159  O        -35.6570  -25.2440   25.6560 O.2   353  LEU353     -0.2867
    160  CB       -38.7760  -24.5010   24.8010 C.3   353  LEU353      0.0270
    161  CG       -38.9570  -26.0070   24.9040 C.3   353  LEU353      0.0019
    162  CD1      -38.7230  -26.5170   26.3500 C.3   353  LEU353      0.0001
    163  CD2      -40.3920  -26.4160   24.4700 C.3   353  LEU353      0.0001
    164  N        -36.5000  -25.7790   29.8790 N.3   355  VAL355     -0.1245
    165  CA       -37.3340  -26.3790   30.9270 C.3   355  VAL355      0.1561
    166  C        -36.7770  -25.9350   32.2810 C.2   355  VAL355      0.2260
    167  O        -35.6010  -26.1550   32.5350 O.2   355  VAL355     -0.2867
    168  CB       -37.4520  -27.9350   30.8610 C.3   355  VAL355      0.0252
    169  CG1      -38.3150  -28.4410   32.0120 C.3   355  VAL355      0.0019
    170  CG2      -38.0380  -28.3930   29.5160 C.3   355  VAL355      0.0019
    171  N        -37.5890  -25.4750   36.8090 N.3   357  LEU357     -0.1245
    172  CA       -38.4060  -25.8910   37.9490 C.3   357  LEU357      0.1561
    173  C        -38.2520  -24.8480   39.0310 C.2   357  LEU357      0.2260
    174  O        -37.1320  -24.3920   39.3020 O.2   357  LEU357     -0.2867
    175  CB       -38.0730  -27.2850   38.4860 C.3   357  LEU357      0.0270
    176  CG       -39.3100  -28.1560   38.8630 C.3   357  LEU357      0.0019
    177  CD1      -39.8770  -28.8850   37.6380 C.3   357  LEU357      0.0001
    178  CD2      -38.9350  -29.2220   39.8730 C.3   357  LEU357      0.0001
    179  N        -33.4430  -26.7590   24.8280 N.3   382  LEU382     -0.1245
    180  CA       -33.3820  -27.6150   23.6540 C.3   382  LEU382      0.1561
    181  C        -33.5330  -26.8400   22.3840 C.2   382  LEU382      0.2260
    182  O        -34.0270  -25.7220   22.4140 O.2   382  LEU382     -0.2867
    183  CB       -34.4750  -28.7360   23.7300 C.3   382  LEU382      0.0270
    184  CG       -35.9760  -28.3150   23.8340 C.3   382  LEU382      0.0019
    185  CD1      -36.6430  -28.3080   22.4560 C.3   382  LEU382      0.0001
    186  CD2      -36.7480  -29.3020   24.7350 C.3   382  LEU382      0.0001
@<TRIPOS>BOND
     1   181   182    2
     2   181   180    1
     3   185   184    1
     4   103   101   ar
     5   102   101   ar
     6   101   100    1
     7   156   157    1
     8   180   183    1
     9   180   179    1
    10   183   184    1
    11   184   186    1
    12    96    97    1
    13   100    97    1
    14   163   161    1
    15   157   160    1
    16   157   158    1
    17   160   161    1
    18   161   162    1
    19    97    98    1
    20   159   158    2
    21    98    99    2
    22    93    91   ar
    23    93    95   ar
    24    91    90   ar
    25    95    94   ar
    26    90    89    1
    27    90    92   ar
    28   154   152    1
    29    89    86    1
    30    94    92   ar
    31    88    87    2
    32   152   153    1
    33   152   149    1
    34    86    87    1
    35    86    85    1
    36   170   168    1
    37   153   155    1
    38   164   165    1
    39   120   119    1
    40   150   149    1
    41   150   151    2
    42   149   148    1
    43    85    79   am
    44   168   165    1
    45   168   169    1
    46   110   108    1
    47   111   109    1
    48   165   166    1
    49   119   118    1
    50    80    79    2
    51    79    78    1
    52    81    78    1
    53    81    82    1
    54   108   109    1
    55   108   105    1
    56   166   167    2
    57    84    82    1
    58    78    77    1
    59   118   117    1
    60    82    83    1
    61    77    75   am
    62   105   104    1
    63   105   106    1
    64   117   116    1
    65   146   145    1
    66    75    76    2
    67    75    74    1
    68   107   106    2
    69   112   113    1
    70    74    73    1
    71   145   147    1
    72   145   142    1
    73   113   116    1
    74   113   114    1
    75   144   143    2
    76   143   142    1
    77   129   127   ar
    78   139   138    1
    79    73    68   am
    80   142   141    1
    81   114   121   am
    82   114   115    2
    83    69    68    2
    84   121   122    1
    85   127   126    1
    86   127   128   ar
    87    68    67    1
    88   126   125    1
    89   138   137    2
    90   138   140    1
    91   171   172    1
    92   137   136    1
    93     7     6    1
    94   177   176    1
    95   122   125    1
    96   122   123    1
    97    67    66    1
    98    67    70    1
    99   172   175    1
   100   172   173    1
   101     8     6    1
   102   133   132    2
   103     6     5    1
   104   175   176    1
   105   136   135    1
   106   134   135    1
   107   134   131    1
   108    64    63    1
   109   176   178    1
   110   123   124    2
   111    70    72    1
   112    70    71    1
   113   173   174    2
   114   132   131    1
   115   130   131    1
   116    65    63    1
   117    63    60    1
   118     5     2    1
   119     2     1    1
   120     2     3    1
   121    60    61    1
   122    60    59    1
   123    61    62    2
   124     3     4    2
   125     3     9   am
   126    59    54   am
   127    18    15    1
   128     9    10    1
   129    31    29    1
   130    55    54    2
   131    54    53    1
   132    15    14    1
   133    15    16    1
   134    50    49    1
   135    10    13    1
   136    10    11    1
   137    29    28    1
   138    53    52    1
   139    53    56    1
   140    16    17    2
   141    16    19   am
   142    11    12    2
   143    49    48    1
   144    49    51    1
   145    48    45    1
   146    56    58    1
   147    56    57    1
   148    28    30    1
   149    28    25    1
   150    19    20    1
   151    24    25    1
   152    25    26    1
   153    43    42    1
   154    45    46    1
   155    45    44    1
   156    20    23    1
   157    20    21    1
   158    46    47    2
   159    42    41   ar
   160    42    40   ar
   161    41    39   ar
   162    26    27    2
   163    26    32   am
   164    21    22    2
   165    40    38   ar
   166    39    37   ar
   167    32    33    1
   168    38    37   ar
   169    37    36    1
   170    33    36    1
   171    33    34    1
   172    34    35    2
