@<TRIPOS>MOLECULE
tmp/5lgeA01.pdb
 94 90 0 0 0
SMALL
GASTEIGER

@<TRIPOS>ATOM
      1  N        -29.4980  -92.0190   14.1940 N.3   118  LEU118     -0.1245
      2  CA       -29.5630  -93.4560   14.4280 C.3   118  LEU118      0.1561
      3  C        -30.8030  -94.0450   13.7650 C.2   118  LEU118      0.2260
      4  O        -30.7130  -95.0140   13.0270 O.2   118  LEU118     -0.2867
      5  CB       -29.6240  -93.7290   15.9350 C.3   118  LEU118      0.0270
      6  CG       -28.8970  -94.9320   16.5410 C.3   118  LEU118      0.0019
      7  CD1      -29.7230  -95.4640   17.7100 C.3   118  LEU118      0.0001
      8  CD2      -28.5970  -96.0340   15.5360 C.3   118  LEU118      0.0001
      9  N        -36.6660  -90.0000   13.1390 N.3   122  TRP122     -0.1241
     10  CA       -36.6110  -88.9080   14.1120 C.3   122  TRP122      0.1605
     11  C        -36.5380  -87.5680   13.3880 C.2   122  TRP122      0.2264
     12  O        -35.5770  -87.3020   12.6800 O.2   122  TRP122     -0.2867
     13  CB       -35.4010  -89.0290   15.0610 C.3   122  TRP122      0.0550
     14  CG       -35.4300  -90.2130   15.9780 C.ar  122  TRP122      0.0003
     15  CD1      -36.5080  -90.9670   16.3050 C.ar  122  TRP122      0.0946
     16  CD2      -34.3280  -90.7560   16.7040 C.ar  122  TRP122      0.0152
     17  NE1      -36.1480  -91.9600   17.1740 N.ar  122  TRP122     -0.2442
     18  CE2      -34.8140  -91.8550   17.4400 C.ar  122  TRP122      0.0810
     19  CE3      -32.9730  -90.4380   16.7850 C.ar  122  TRP122      0.0012
     20  CZ2      -33.9990  -92.6340   18.2500 C.ar  122  TRP122      0.0191
     21  CZ3      -32.1570  -91.2120   17.6040 C.ar  122  TRP122      0.0001
     22  CH2      -32.6770  -92.2950   18.3250 C.ar  122  TRP122      0.0015
     23  N        -37.0080  -99.7500   35.5540 N.3   202  LYS202     -0.1245
     24  CA       -36.9020 -101.1510   35.1530 C.3   202  LYS202      0.1561
     25  C        -37.2310 -102.1060   36.2960 C.2   202  LYS202      0.2260
     26  O        -37.0830 -101.7780   37.4950 O.2   202  LYS202     -0.2867
     27  CB       -35.5400 -101.4880   34.5140 C.3   202  LYS202      0.0271
     28  CG       -34.2930 -100.8970   35.1550 C.3   202  LYS202      0.0035
     29  CD       -33.2550 -100.5970   34.0710 C.3   202  LYS202      0.0206
     30  CE       -31.8700 -101.0670   34.4420 C.3   202  LYS202      0.1093
     31  NZ       -30.9460 -101.1210   33.2800 N.3   202  LYS202     -0.1314
     32  N        -37.5610  -97.9120   24.9110 N.3   245  VAL245     -0.1245
     33  CA       -36.6580  -97.9590   23.7420 C.3   245  VAL245      0.1561
     34  C        -37.4590  -98.3360   22.4960 C.2   245  VAL245      0.2260
     35  O        -37.2350  -97.7840   21.4260 O.2   245  VAL245     -0.2867
     36  CB       -35.3770  -98.8490   23.9060 C.3   245  VAL245      0.0252
     37  CG1      -34.8310  -98.8340   25.3290 C.3   245  VAL245      0.0019
     38  CG2      -35.5870 -100.2760   23.4420 C.3   245  VAL245      0.0019
     39  N        -39.2030  -95.2330   21.3220 N.3   248  ALA248     -0.1231
     40  CA       -38.2070  -94.3490   20.7170 C.3   248  ALA248      0.1694
     41  C        -37.8740  -94.7850   19.2960 C.2   248  ALA248      0.2591
     42  O        -37.9470  -93.9840   18.3620 O.2   248  ALA248     -0.2718
     43  CB       -36.9460  -94.3060   21.5690 C.3   248  ALA248      0.0304
     44  N        -37.5260  -96.0630   19.1600 N.am  249  MET249     -0.1979
     45  CA       -37.2690  -96.7210   17.8640 C.3   249  MET249      0.1605
     46  C        -38.2940  -96.4210   16.7640 C.2   249  MET249      0.2287
     47  O        -37.9370  -96.3190   15.5890 O.2   249  MET249     -0.2864
     48  CB       -37.2730  -98.2430   18.0520 C.3   249  MET249      0.0413
     49  CG       -36.3090  -99.0120   17.1660 C.3   249  MET249      0.0598
     50  SD       -34.9430  -99.6030   18.1670 S.3   249  MET249     -0.1393
     51  CE       -34.2520  -98.0190   18.6700 C.3   249  MET249      0.0692
     52  N        -37.9610  -87.8170   28.1590 N.3   257  TRP257     -0.1241
     53  CA       -37.7530  -89.1340   28.7490 C.3   257  TRP257      0.1605
     54  C        -36.9340  -88.9490   30.0130 C.2   257  TRP257      0.2264
     55  O        -35.7270  -88.7740   29.9430 O.2   257  TRP257     -0.2867
     56  CB       -37.0330  -90.0120   27.7230 C.3   257  TRP257      0.0550
     57  CG       -36.5870  -91.3920   28.1650 C.ar  257  TRP257      0.0003
     58  CD1      -36.5980  -91.9230   29.4320 C.ar  257  TRP257      0.0946
     59  CD2      -36.0110  -92.3960   27.3220 C.ar  257  TRP257      0.0152
     60  NE1      -36.0790  -93.1980   29.4160 N.ar  257  TRP257     -0.2442
     61  CE2      -35.7130  -93.5110   28.1340 C.ar  257  TRP257      0.0810
     62  CE3      -35.7290  -92.4630   25.9560 C.ar  257  TRP257      0.0012
     63  CZ2      -35.1520  -94.6760   27.6230 C.ar  257  TRP257      0.0191
     64  CZ3      -35.1770  -93.6210   25.4520 C.ar  257  TRP257      0.0001
     65  CH2      -34.8930  -94.7130   26.2830 C.ar  257  TRP257      0.0015
     66  N        -27.4530  -97.1490   29.8560 N.3   266  VAL266     -0.1231
     67  CA       -26.8830  -97.7600   28.6940 C.3   266  VAL266      0.1692
     68  C        -27.6450  -97.3960   27.4480 C.2   266  VAL266      0.2591
     69  O        -27.0040  -97.3410   26.4340 O.2   266  VAL266     -0.2718
     70  CB       -26.8500  -99.2910   28.8030 C.3   266  VAL266      0.0266
     71  CG1      -25.9570  -99.8790   27.7230 C.3   266  VAL266      0.0020
     72  CG2      -26.3910  -99.7260   30.1890 C.3   266  VAL266      0.0020
     73  N        -28.9640  -97.1290   27.5280 N.am  267  GLN267     -0.1979
     74  CA       -29.8420  -96.9570   26.3400 C.3   267  GLN267      0.1601
     75  C        -30.4760  -95.5770   26.2330 C.2   267  GLN267      0.2287
     76  O        -30.7190  -95.1080   25.1250 O.2   267  GLN267     -0.2864
     77  CB       -30.9650  -97.9960   26.2450 C.3   267  GLN267      0.0394
     78  CG       -31.7710  -98.1760   27.5340 C.3   267  GLN267      0.0908
     79  CD       -31.4160  -99.4990   28.1320 C.2   267  GLN267      0.2608
     80  OE1      -32.0530 -100.4920   27.8070 O.2   267  GLN267     -0.2717
     81  NE2      -30.3440  -99.5540   28.9250 N.am  267  GLN267     -0.0878
     82  N        -27.5730  -94.1280   24.8770 N.3   270  SER270     -0.1202
     83  CA       -27.3760  -94.5560   23.5020 C.3   270  SER270      0.2020
     84  C        -28.1520  -93.6770   22.5350 C.2   270  SER270      0.2618
     85  O        -27.6500  -93.4050   21.4610 O.2   270  SER270     -0.2717
     86  CB       -27.7890  -96.0000   23.3110 C.3   270  SER270      0.2103
     87  OG       -27.0770  -96.5760   22.2370 O.3   270  SER270     -0.2182
     88  N        -29.3600  -93.2390   22.9150 N.am  271  VAL271     -0.1979
     89  CA       -30.1620  -92.2970   22.0870 C.3   271  VAL271      0.1595
     90  C        -29.4070  -90.9600   21.8580 C.2   271  VAL271      0.2287
     91  O        -29.3980  -90.4150   20.7430 O.2   271  VAL271     -0.2864
     92  CB       -31.5830  -92.0390   22.7000 C.3   271  VAL271      0.0276
     93  CG1      -32.3430  -90.9000   22.0150 C.3   271  VAL271      0.0022
     94  CG2      -32.4330  -93.2890   22.6510 C.3   271  VAL271      0.0022
@<TRIPOS>BOND
     1    12    11    2
     2     4     3    2
     3     9    10    1
     4    11    10    1
     5     3     2    1
     6    10    13    1
     7     1     2    1
     8     2     5    1
     9    13    14    1
    10     8     6    1
    11    47    46    2
    12     5     6    1
    13    14    15   ar
    14    14    16   ar
    15    15    17   ar
    16     6     7    1
    17    16    19   ar
    18    16    18   ar
    19    46    45    1
    20    19    21   ar
    21    49    48    1
    22    49    50    1
    23    17    18   ar
    24    18    20   ar
    25    21    22   ar
    26    45    48    1
    27    45    44    1
    28    50    51    1
    29    20    22   ar
    30    42    41    2
    31    44    41   am
    32    41    40    1
    33    40    39    1
    34    40    43    1
    35    91    90    2
    36    35    34    2
    37    85    84    2
    38    90    89    1
    39    93    92    1
    40    89    92    1
    41    89    88    1
    42    87    86    1
    43    34    33    1
    44    84    88   am
    45    84    83    1
    46    94    92    1
    47    86    83    1
    48    38    36    1
    49    83    82    1
    50    33    36    1
    51    33    32    1
    52    36    37    1
    53    76    75    2
    54    64    62   ar
    55    64    65   ar
    56    62    59   ar
    57    75    74    1
    58    77    74    1
    59    77    78    1
    60    65    63   ar
    61    74    73    1
    62    69    68    2
    63    59    61   ar
    64    59    57   ar
    65    68    73   am
    66    68    67    1
    67    78    79    1
    68    63    61   ar
    69    56    57    1
    70    56    53    1
    71    71    70    1
    72    80    79    2
    73    79    81   am
    74    61    60   ar
    75    52    53    1
    76    57    58   ar
    77    67    70    1
    78    67    66    1
    79    53    54    1
    80    70    72    1
    81    60    58   ar
    82    55    54    2
    83    31    30    1
    84    29    30    1
    85    29    28    1
    86    27    24    1
    87    27    28    1
    88    24    23    1
    89    24    25    1
    90    25    26    2
