@<TRIPOS>MOLECULE
tmp/5lgeD01.pdb
 155 146 0 0 0
SMALL
GASTEIGER

@<TRIPOS>ATOM
      1  N        -22.6040  -38.4000   83.5640 N.3   118  LEU118     -0.1245
      2  CA       -22.5980  -39.8490   83.4340 C.3   118  LEU118      0.1561
      3  C        -21.3120  -40.4080   84.0170 C.2   118  LEU118      0.2260
      4  O        -21.3390  -41.3280   84.8240 O.2   118  LEU118     -0.2867
      5  CB       -22.6970  -40.2270   81.9550 C.3   118  LEU118      0.0270
      6  CG       -23.4930  -41.4560   81.5140 C.3   118  LEU118      0.0019
      7  CD1      -22.7990  -42.0770   80.3070 C.3   118  LEU118      0.0001
      8  CD2      -23.7060  -42.4780   82.6180 C.3   118  LEU118      0.0001
      9  N        -15.3740  -36.4310   83.7770 N.3   122  TRP122     -0.1241
     10  CA       -15.5090  -35.4090   82.7420 C.3   122  TRP122      0.1605
     11  C        -15.4860  -34.0280   83.3790 C.2   122  TRP122      0.2264
     12  O        -16.3750  -33.6910   84.1510 O.2   122  TRP122     -0.2867
     13  CB       -16.8040  -35.5750   81.9310 C.3   122  TRP122      0.0550
     14  CG       -16.8810  -36.8230   81.1110 C.ar  122  TRP122      0.0003
     15  CD1      -15.8520  -37.6120   80.7210 C.ar  122  TRP122      0.0946
     16  CD2      -18.0580  -37.3880   80.5280 C.ar  122  TRP122      0.0152
     17  NE1      -16.3100  -38.6510   79.9580 N.ar  122  TRP122     -0.2442
     18  CE2      -17.6620  -38.5350   79.8160 C.ar  122  TRP122      0.0810
     19  CE3      -19.4120  -37.0440   80.5500 C.ar  122  TRP122      0.0012
     20  CZ2      -18.5680  -39.3510   79.1410 C.ar  122  TRP122      0.0191
     21  CZ3      -20.3140  -37.8530   79.8720 C.ar  122  TRP122      0.0001
     22  CH2      -19.8870  -38.9940   79.1790 C.ar  122  TRP122      0.0015
     23  N        -17.3000  -33.3180   75.6570 N.3   126  ILE126     -0.1245
     24  CA       -16.9480  -34.0280   74.4470 C.3   126  ILE126      0.1561
     25  C        -17.9170  -33.5150   73.3960 C.2   126  ILE126      0.2260
     26  O        -19.1230  -33.7310   73.5000 O.2   126  ILE126     -0.2867
     27  CB       -17.0960  -35.5460   74.6310 C.3   126  ILE126      0.0252
     28  CG1      -16.0230  -36.0420   75.5970 C.3   126  ILE126      0.0019
     29  CG2      -16.9750  -36.2700   73.2970 C.3   126  ILE126      0.0019
     30  CD1      -16.2260  -37.4600   76.0820 C.3   126  ILE126      0.0001
     31  N        -19.7530  -33.4440   69.9570 N.3   128  ILE128     -0.1245
     32  CA       -20.1280  -34.4840   68.9980 C.3   128  ILE128      0.1561
     33  C        -20.7130  -33.8800   67.7340 C.2   128  ILE128      0.2260
     34  O        -21.7490  -33.2080   67.7850 O.2   128  ILE128     -0.2867
     35  CB       -21.0920  -35.5130   69.6270 C.3   128  ILE128      0.0252
     36  CG1      -20.3430  -36.3180   70.6980 C.3   128  ILE128      0.0019
     37  CG2      -21.6340  -36.4920   68.5860 C.3   128  ILE128      0.0019
     38  CD1      -21.2470  -36.9460   71.7230 C.3   128  ILE128      0.0001
     39  N        -22.1860  -34.4440   63.7390 N.3   130  HIS130     -0.1241
     40  CA       -22.9460  -35.4100   62.9490 C.3   130  HIS130      0.1621
     41  C        -22.8960  -35.1190   61.4590 C.2   130  HIS130      0.2264
     42  O        -22.9050  -33.9630   61.0500 O.2   130  HIS130     -0.2867
     43  CB       -24.4050  -35.4120   63.3860 C.3   130  HIS130      0.0745
     44  CG       -24.9730  -36.7860   63.5490 C.ar  130  HIS130      0.0817
     45  ND1      -25.8820  -37.3170   62.6560 N.ar  130  HIS130     -0.2268
     46  CD2      -24.7230  -37.7610   64.4570 C.ar  130  HIS130      0.1154
     47  CE1      -26.1930  -38.5440   63.0290 C.ar  130  HIS130      0.1986
     48  NE2      -25.5010  -38.8410   64.1150 N.ar  130  HIS130     -0.2212
     49  N        -15.8420  -45.1390   72.5330 N.3   253  VAL253     -0.1245
     50  CA       -16.6100  -45.0820   73.7890 C.3   253  VAL253      0.1561
     51  C        -15.6780  -45.3980   74.9680 C.2   253  VAL253      0.2260
     52  O        -15.7820  -44.7730   76.0250 O.2   253  VAL253     -0.2867
     53  CB       -17.9160  -45.9440   73.8250 C.3   253  VAL253      0.0252
     54  CG1      -18.6090  -46.0150   72.4740 C.3   253  VAL253      0.0019
     55  CG2      -17.6860  -47.3400   74.3620 C.3   253  VAL253      0.0019
     56  N        -13.7670  -42.2700   75.7640 N.3   256  ALA256     -0.1231
     57  CA       -14.6810  -41.3160   76.4000 C.3   256  ALA256      0.1694
     58  C        -14.8790  -41.6480   77.8710 C.2   256  ALA256      0.2591
     59  O        -14.6830  -40.7950   78.7340 O.2   256  ALA256     -0.2718
     60  CB       -16.0200  -41.3030   75.6770 C.3   256  ALA256      0.0304
     61  N        -15.2360  -42.9070   78.1300 N.am  257  MET257     -0.1979
     62  CA       -15.3590  -43.4790   79.4850 C.3   257  MET257      0.1605
     63  C        -14.2170  -43.1330   80.4460 C.2   257  MET257      0.2287
     64  O        -14.4460  -42.9470   81.6460 O.2   257  MET257     -0.2864
     65  CB       -15.3950  -45.0090   79.4010 C.3   257  MET257      0.0413
     66  CG       -16.2730  -45.6990   80.4260 C.3   257  MET257      0.0598
     67  SD       -17.7530  -46.3090   79.6150 S.3   257  MET257     -0.1393
     68  CE       -18.4630  -44.7530   79.0670 C.3   257  MET257      0.0692
     69  N        -15.5690  -35.2900   68.5850 N.3   265  TRP265     -0.1241
     70  CA       -15.8580  -36.6420   68.1180 C.3   265  TRP265      0.1605
     71  C        -16.8030  -36.5230   66.9340 C.2   265  TRP265      0.2264
     72  O        -17.9990  -36.3140   67.1190 O.2   265  TRP265     -0.2867
     73  CB       -16.4860  -37.4390   69.2720 C.3   265  TRP265      0.0550
     74  CG       -17.0010  -38.8300   68.9750 C.ar  265  TRP265      0.0003
     75  CD1      -17.1320  -39.4450   67.7570 C.ar  265  TRP265      0.0946
     76  CD2      -17.5120  -39.7480   69.9330 C.ar  265  TRP265      0.0152
     77  NE1      -17.6650  -40.6940   67.9110 N.ar  265  TRP265     -0.2442
     78  CE2      -17.9140  -40.9040   69.2370 C.ar  265  TRP265      0.0810
     79  CE3      -17.6580  -39.7130   71.3260 C.ar  265  TRP265      0.0012
     80  CZ2      -18.4480  -42.0200   69.8840 C.ar  265  TRP265      0.0191
     81  CZ3      -18.1920  -40.8260   71.9750 C.ar  265  TRP265      0.0001
     82  CH2      -18.5780  -41.9640   71.2530 C.ar  265  TRP265      0.0015
     83  N        -18.9390  -38.1670   64.4520 N.3   267  CYS267     -0.1235
     84  CA       -19.5900  -39.4730   64.3590 C.3   267  CYS267      0.1677
     85  C        -20.0510  -39.6960   62.9370 C.2   267  CYS267      0.2270
     86  O        -20.5760  -38.7880   62.2970 O.2   267  CYS267     -0.2867
     87  CB       -20.7760  -39.5910   65.3310 C.3   267  CYS267      0.0956
     88  SG       -20.7410  -41.1320   66.2860 S.3   267  CYS267     -0.0801
     89  N        -22.4200  -42.5050   61.1710 N.3   269  ASN269     -0.1240
     90  CA       -23.3530  -43.6320   61.1600 C.3   269  ASN269      0.1653
     91  C        -24.2890  -43.4330   59.9610 C.2   269  ASN269      0.2266
     92  O        -24.0010  -42.5830   59.1290 O.2   269  ASN269     -0.2867
     93  CB       -24.0930  -43.6890   62.4960 C.3   269  ASN269      0.1155
     94  CG       -23.1660  -44.0410   63.6480 C.2   269  ASN269      0.2627
     95  OD1      -22.5460  -45.1080   63.6460 O.2   269  ASN269     -0.2716
     96  ND2      -23.0360  -43.1350   64.6180 N.am  269  ASN269     -0.0877
     97  N        -27.4100  -41.9620   59.5710 N.3   271  ASP271     -0.1239
     98  CA       -28.5060  -40.9480   59.5950 C.3   271  ASP271      0.1674
     99  C        -28.0590  -39.6920   58.7720 C.2   271  ASP271      0.2266
    100  O        -28.8290  -38.7830   58.3660 O.2   271  ASP271     -0.2867
    101  CB       -28.9340  -40.5590   61.0320 C.3   271  ASP271      0.1410
    102  CG       -28.6910  -41.6430   62.0300 C.2   271  ASP271      0.3668
    103  OD1      -28.9080  -42.8410   61.7360 O.co2 271  ASP271     -0.2456
    104  OD2      -28.3150  -41.2680   63.1390 O.co2 271  ASP271     -0.2456
    105  N        -30.2140  -36.9720   63.8490 N.3   273  VAL273     -0.1245
    106  CA       -31.3080  -37.3890   64.7110 C.3   273  VAL273      0.1561
    107  C        -31.5610  -36.2190   65.6810 C.2   273  VAL273      0.2260
    108  O        -30.7100  -35.3350   65.8660 O.2   273  VAL273     -0.2867
    109  CB       -30.9890  -38.7070   65.4830 C.3   273  VAL273      0.0252
    110  CG1      -32.2420  -39.2590   66.1520 C.3   273  VAL273      0.0019
    111  CG2      -30.3750  -39.7610   64.5660 C.3   273  VAL273      0.0019
    112  N        -30.8760  -35.9510   68.6550 N.3   275  SER275     -0.1217
    113  CA       -30.0630  -36.6450   69.7340 C.3   275  SER275      0.1889
    114  C        -30.0730  -36.0910   71.1950 C.2   275  SER275      0.2288
    115  O        -29.0440  -35.7230   71.8200 O.2   275  SER275     -0.2866
    116  CB       -28.6170  -36.9390   69.2290 C.3   275  SER275      0.2089
    117  OG       -27.5320  -36.8530   70.1720 O.3   275  SER275     -0.2183
    118  N        -30.3120  -38.0750   73.4270 N.3   277  SER277     -0.1202
    119  CA       -29.4770  -39.0600   74.1270 C.3   277  SER277      0.2020
    120  C        -28.0820  -38.5430   74.5750 C.2   277  SER277      0.2618
    121  O        -27.6260  -38.9020   75.6720 O.2   277  SER277     -0.2717
    122  CB       -29.3470  -40.3280   73.2680 C.3   277  SER277      0.2103
    123  OG       -28.9620  -39.9790   71.9550 O.3   277  SER277     -0.2182
    124  N        -27.3960  -37.7370   73.7510 N.am  278  VAL278     -0.1979
    125  CA       -26.0750  -37.1500   74.1410 C.3   278  VAL278      0.1595
    126  C        -26.1890  -36.2690   75.4010 C.2   278  VAL278      0.2287
    127  O        -25.3350  -36.3090   76.2920 O.2   278  VAL278     -0.2864
    128  CB       -25.4210  -36.3480   72.9610 C.3   278  VAL278      0.0276
    129  CG1      -24.1940  -35.5220   73.3770 C.3   278  VAL278      0.0022
    130  CG2      -25.0210  -37.2740   71.8250 C.3   278  VAL278      0.0022
    131  N        -28.1110  -36.4900   77.9730 N.3   280  GLN280     -0.1231
    132  CA       -28.3520  -37.1700   79.2500 C.3   280  GLN280      0.1698
    133  C        -27.0700  -37.8160   79.7130 C.2   280  GLN280      0.2593
    134  O        -27.0680  -38.5640   80.6810 O.2   280  GLN280     -0.2718
    135  CB       -29.5160  -38.1550   79.1550 C.3   280  GLN280      0.0381
    136  CG       -30.4900  -37.7110   78.0930 C.3   280  GLN280      0.0905
    137  CD       -31.7340  -38.5580   78.0160 C.2   280  GLN280      0.2608
    138  OE1      -32.4210  -38.5840   78.9980 O.2   280  GLN280     -0.2717
    139  NE2      -32.0540  -39.2260   76.8780 N.am  280  GLN280     -0.0878
    140  N        -25.9820  -37.5280   79.0020 N.am  281  GLY281     -0.1942
    141  CA       -24.6350  -37.6950   79.5480 C.3   281  GLY281      0.2014
    142  C        -24.2590  -36.6110   80.5670 C.2   281  GLY281      0.2638
    143  O        -23.5700  -36.8430   81.5890 O.2   281  GLY281     -0.2714
    144  N        -24.7240  -35.4060   80.2730 N.am  282  TYR282     -0.1973
    145  CA       -24.3760  -34.2250   81.0430 C.3   282  TYR282      0.1639
    146  C        -25.5630  -33.6460   81.8260 C.2   282  TYR282      0.2290
    147  O        -25.7300  -32.4200   81.9140 O.2   282  TYR282     -0.2864
    148  CB       -23.8070  -33.1910   80.0870 C.3   282  TYR282      0.0560
    149  CG       -22.6150  -33.6700   79.3000 C.ar  282  TYR282     -0.0198
    150  CD1      -21.3310  -33.5890   79.8270 C.ar  282  TYR282     -0.0009
    151  CD2      -22.7680  -34.1820   78.0060 C.ar  282  TYR282     -0.0009
    152  CE1      -20.2340  -34.0030   79.0960 C.ar  282  TYR282      0.0417
    153  CE2      -21.6820  -34.6040   77.2660 C.ar  282  TYR282      0.0417
    154  CZ       -20.4150  -34.5100   77.8150 C.ar  282  TYR282      0.1957
    155  OH       -19.3310  -34.9200   77.0900 O.3   282  TYR282     -0.2866
@<TRIPOS>BOND
     1   100    99    2
     2    99    98    1
     3    92    91    2
     4    97    98    1
     5    98   101    1
     6    91    90    1
     7   101   102    1
     8    42    41    2
     9    90    89    1
    10    90    93    1
    11    41    40    1
    12   103   102   ar
    13   102   104   ar
    14    86    85    2
    15    93    94    1
    16    45    47   ar
    17    45    44   ar
    18    85    84    1
    19    40    43    1
    20    40    39    1
    21    47    48   ar
    22    43    44    1
    23    44    46   ar
    24    95    94    2
    25    94    96   am
    26   105   106    1
    27    48    46   ar
    28    84    83    1
    29    84    87    1
    30   111   109    1
    31   106   109    1
    32   106   107    1
    33    87    88    1
    34   109   110    1
    35   107   108    2
    36    71    72    2
    37    71    70    1
    38    33    34    2
    39    33    32    1
    40    75    77   ar
    41    75    74   ar
    42    77    78   ar
    43    70    69    1
    44    70    73    1
    45    37    35    1
    46   112   113    1
    47    74    73    1
    48    74    76   ar
    49    32    35    1
    50    32    31    1
    51   116   113    1
    52   116   117    1
    53    78    80   ar
    54    78    76   ar
    55    35    36    1
    56   113   114    1
    57    80    82   ar
    58    76    79   ar
    59    36    38    1
    60   114   115    2
    61    82    81   ar
    62    79    81   ar
    63   130   128    1
    64   123   122    1
    65    54    53    1
    66    49    50    1
    67   128   129    1
    68   128   125    1
    69   122   119    1
    70    29    27    1
    71    25    26    2
    72    25    24    1
    73   118   119    1
    74   124   125    1
    75   124   120   am
    76    50    53    1
    77    50    51    1
    78    53    55    1
    79   119   120    1
    80   125   126    1
    81    24    27    1
    82    24    23    1
    83   120   121    2
    84    27    28    1
    85    51    52    2
    86   126   127    2
    87    28    30    1
    88    60    57    1
    89    56    57    1
    90    57    58    1
    91   139   137   am
    92   155   154    1
    93   153   154   ar
    94   153   151   ar
    95   154   152   ar
    96    58    61   am
    97    58    59    2
    98   131   132    1
    99   151   149   ar
   100   137   136    1
   101   137   138    2
   102   136   135    1
   103    61    62    1
   104   140   141    1
   105   140   133   am
   106    68    67    1
   107   152   150   ar
   108    20    22   ar
   109    20    18   ar
   110   135   132    1
   111    22    21   ar
   112   132   133    1
   113   149   150   ar
   114   149   148    1
   115    65    62    1
   116    65    66    1
   117    62    63    1
   118   141   142    1
   119    67    66    1
   120   133   134    2
   121    18    17   ar
   122    18    16   ar
   123    21    19   ar
   124    17    15   ar
   125   148   145    1
   126   144   142   am
   127   144   145    1
   128     7     6    1
   129    63    64    2
   130    16    19   ar
   131    16    14   ar
   132   142   143    2
   133    15    14   ar
   134   145   146    1
   135    14    13    1
   136     6     5    1
   137     6     8    1
   138   146   147    2
   139    13    10    1
   140     5     2    1
   141    10    11    1
   142    10     9    1
   143    11    12    2
   144     2     1    1
   145     2     3    1
   146     3     4    2
