@<TRIPOS>MOLECULE
tmp/5lgnA01.pdb
 136 128 0 0 0
SMALL
GASTEIGER

@<TRIPOS>ATOM
      1  N        -11.9810   59.0470   81.8800 N.3   162  MET162     -0.1230
      2  CA       -13.1750   58.3830   81.3760 C.3   162  MET162      0.1702
      3  C        -13.4510   57.0010   81.9280 C.2   162  MET162      0.2592
      4  O        -14.5520   56.5060   81.7920 O.2   162  MET162     -0.2718
      5  CB       -13.0420   58.2310   79.8800 C.3   162  MET162      0.0401
      6  CG       -14.3440   57.9420   79.1540 C.3   162  MET162      0.0596
      7  SD       -13.9440   57.5500   77.4500 S.3   162  MET162     -0.1393
      8  CE       -12.9410   56.0770   77.6650 C.3   162  MET162      0.0692
      9  N        -12.4780   56.3620   82.5430 N.am  163  VAL163     -0.1980
     10  CA       -12.6600   54.9830   82.9250 C.3   163  VAL163      0.1595
     11  C        -12.6190   54.7960   84.4240 C.2   163  VAL163      0.2287
     12  O        -11.7420   55.3220   85.1220 O.2   163  VAL163     -0.2864
     13  CB       -11.5860   54.1160   82.2720 C.3   163  VAL163      0.0276
     14  CG1      -11.6650   52.6770   82.7560 C.3   163  VAL163      0.0022
     15  CG2      -11.7400   54.1960   80.7650 C.3   163  VAL163      0.0022
     16  N        -11.7940   52.0920   86.9170 N.3   165  THR165     -0.1218
     17  CA       -11.0110   50.8750   86.7600 C.3   165  THR165      0.1862
     18  C        -11.4520   49.8130   87.7480 C.2   165  THR165      0.2287
     19  O        -10.6370   49.2580   88.4890 O.2   165  THR165     -0.2866
     20  CB        -9.4950   51.1310   86.8890 C.3   165  THR165      0.1770
     21  OG1       -9.1400   51.3110   88.2630 O.3   165  THR165     -0.2211
     22  CG2       -9.0670   52.3570   86.0630 C.3   165  THR165      0.0375
     23  N        -17.0890   47.9150   79.2050 N.3   186  ILE186     -0.1245
     24  CA       -16.2320   48.0380   78.0370 C.3   186  ILE186      0.1561
     25  C        -16.0230   46.6470   77.4770 C.2   186  ILE186      0.2260
     26  O        -15.4470   45.7880   78.1470 O.2   186  ILE186     -0.2867
     27  CB       -14.8610   48.6280   78.4120 C.3   186  ILE186      0.0252
     28  CG1      -15.0200   50.0650   78.9020 C.3   186  ILE186      0.0019
     29  CG2      -13.9080   48.5940   77.2250 C.3   186  ILE186      0.0019
     30  CD1      -13.8160   50.5820   79.6590 C.3   186  ILE186      0.0001
     31  N        -14.1940   44.0260   75.7210 N.3   188  GLN188     -0.1245
     32  CA       -12.7330   43.9600   75.6370 C.3   188  GLN188      0.1566
     33  C        -12.1450   43.6430   74.2560 C.2   188  GLN188      0.2260
     34  O        -10.9720   43.8920   74.0200 O.2   188  GLN188     -0.2867
     35  CB       -12.2120   42.9370   76.6590 C.3   188  GLN188      0.0367
     36  CG       -12.4890   43.3150   78.1060 C.3   188  GLN188      0.0905
     37  CD       -11.7430   44.5680   78.5230 C.2   188  GLN188      0.2608
     38  OE1      -10.5160   44.5750   78.5680 O.2   188  GLN188     -0.2717
     39  NE2      -12.4800   45.6390   78.8220 N.am  188  GLN188     -0.0878
     40  N          0.3000   54.2240   76.1650 N.3   372  PHE372     -0.1227
     41  CA        -0.9220   54.9610   76.3660 C.3   372  PHE372      0.1736
     42  C         -1.3500   54.8820   77.8160 C.2   372  PHE372      0.2595
     43  O         -1.4620   55.8850   78.5010 O.2   372  PHE372     -0.2718
     44  CB        -2.0050   54.3790   75.4800 C.3   372  PHE372      0.0547
     45  CG        -3.3600   54.9460   75.7290 C.ar  372  PHE372     -0.0202
     46  CD1       -3.6580   56.2510   75.3400 C.ar  372  PHE372     -0.0042
     47  CD2       -4.3460   54.1660   76.3210 C.ar  372  PHE372     -0.0042
     48  CE1       -4.9140   56.7790   75.5410 C.ar  372  PHE372     -0.0003
     49  CE2       -5.6060   54.6860   76.5310 C.ar  372  PHE372     -0.0003
     50  CZ        -5.8920   55.9970   76.1370 C.ar  372  PHE372     -0.0000
     51  N         -1.5750   53.6740   78.2890 N.am  373  ALA373     -0.1980
     52  CA        -2.0420   53.4800   79.6390 C.3   373  ALA373      0.1597
     53  C         -1.1950   54.2340   80.6500 C.2   373  ALA373      0.2287
     54  O         -1.7370   54.7460   81.6200 O.2   373  ALA373     -0.2864
     55  CB        -2.0460   52.0010   79.9670 C.3   373  ALA373      0.0319
     56  N        -13.8360   47.0280   83.9700 N.3   398  HIS398     -0.1241
     57  CA       -13.6840   48.4590   83.8860 C.3   398  HIS398      0.1621
     58  C        -14.9150   49.0620   83.2360 C.2   398  HIS398      0.2264
     59  O        -15.5900   48.3980   82.4600 O.2   398  HIS398     -0.2867
     60  CB       -12.4060   48.7430   83.1050 C.3   398  HIS398      0.0745
     61  CG       -11.1680   48.3540   83.8580 C.ar  398  HIS398      0.0817
     62  ND1       -9.9030   48.7580   83.4840 N.ar  398  HIS398     -0.2268
     63  CD2      -11.0130   47.6370   84.9990 C.ar  398  HIS398      0.1154
     64  CE1       -9.0220   48.2900   84.3520 C.ar  398  HIS398      0.1986
     65  NE2       -9.6700   47.6110   85.2820 N.ar  398  HIS398     -0.2212
     66  N         -0.8740   62.2530   77.1340 N.3   493  LEU493     -0.1245
     67  CA        -1.5700   61.4700   76.1420 C.3   493  LEU493      0.1561
     68  C         -2.7730   62.2900   75.7560 C.2   493  LEU493      0.2260
     69  O         -3.3120   62.9900   76.5990 O.2   493  LEU493     -0.2867
     70  CB        -1.9900   60.1200   76.7090 C.3   493  LEU493      0.0270
     71  CG        -3.2540   60.0760   77.5690 C.3   493  LEU493      0.0019
     72  CD1       -4.5120   60.1050   76.7130 C.3   493  LEU493      0.0001
     73  CD2       -3.2660   58.8220   78.4220 C.3   493  LEU493      0.0001
     74  N         -6.5550   62.9470   73.2050 N.3   495  LYS495     -0.1245
     75  CA        -7.7300   62.3130   72.6240 C.3   495  LYS495      0.1561
     76  C         -8.2730   63.2080   71.5280 C.2   495  LYS495      0.2260
     77  O         -8.2620   64.4440   71.6650 O.2   495  LYS495     -0.2867
     78  CB        -8.8070   62.1120   73.6790 C.3   495  LYS495      0.0271
     79  CG        -8.3730   61.2240   74.8230 C.3   495  LYS495      0.0035
     80  CD        -9.4750   60.9820   75.8580 C.3   495  LYS495      0.0206
     81  CE        -9.0310   59.8840   76.8270 C.3   495  LYS495      0.1093
     82  NZ        -9.9610   59.5340   77.9400 N.3   495  LYS495     -0.1314
     83  N        -14.1790   49.1470   70.4460 N.3   511  LEU511     -0.1245
     84  CA       -12.8450   49.6950   70.2560 C.3   511  LEU511      0.1561
     85  C        -12.0390   48.8400   69.2770 C.2   511  LEU511      0.2260
     86  O        -12.1260   47.6140   69.3060 O.2   511  LEU511     -0.2867
     87  CB       -12.1230   49.7700   71.6000 C.3   511  LEU511      0.0270
     88  CG       -11.7310   48.4650   72.3020 C.3   511  LEU511      0.0019
     89  CD1      -10.8770   48.7720   73.5220 C.3   511  LEU511      0.0001
     90  CD2      -12.9320   47.6330   72.7190 C.3   511  LEU511      0.0001
     91  N         -5.4250   53.7930   68.0930 N.3   527  LEU527     -0.1245
     92  CA        -6.6130   53.1500   68.6580 C.3   527  LEU527      0.1561
     93  C         -7.8540   54.0350   68.5890 C.2   527  LEU527      0.2260
     94  O         -7.7650   55.2560   68.7340 O.2   527  LEU527     -0.2867
     95  CB        -6.3310   52.7700   70.1040 C.3   527  LEU527      0.0270
     96  CG        -7.5150   52.2360   70.9000 C.3   527  LEU527      0.0019
     97  CD1       -8.0830   50.9920   70.2350 C.3   527  LEU527      0.0001
     98  CD2       -7.0930   51.9110   72.3310 C.3   527  LEU527      0.0001
     99  N        -12.2230   54.5790   69.6010 N.3   529  TRP529     -0.1241
    100  CA       -13.2800   54.2360   70.5550 C.3   529  TRP529      0.1605
    101  C        -14.6670   54.6720   70.1370 C.2   529  TRP529      0.2264
    102  O        -14.8920   55.8210   69.7320 O.2   529  TRP529     -0.2867
    103  CB       -13.0470   54.9130   71.8950 C.3   529  TRP529      0.0550
    104  CG       -11.9070   54.4310   72.7030 C.ar  529  TRP529      0.0003
    105  CD1      -11.2760   53.2310   72.6150 C.ar  529  TRP529      0.0946
    106  CD2      -11.2790   55.1410   73.7800 C.ar  529  TRP529      0.0152
    107  NE1      -10.2730   53.1600   73.5520 N.ar  529  TRP529     -0.2442
    108  CE2      -10.2620   54.3220   74.2800 C.ar  529  TRP529      0.0810
    109  CE3      -11.4770   56.4010   74.3610 C.ar  529  TRP529      0.0012
    110  CZ2       -9.4460   54.7160   75.3350 C.ar  529  TRP529      0.0191
    111  CZ3      -10.6620   56.7880   75.4100 C.ar  529  TRP529      0.0001
    112  CH2       -9.6610   55.9490   75.8850 C.ar  529  TRP529      0.0015
    113  N         -0.7940   62.9120   83.3150 N.3   595  TYR595     -0.1241
    114  CA        -0.6870   62.4480   84.7010 C.3   595  TYR595      0.1605
    115  C          0.6400   61.7730   85.0300 C.2   595  TYR595      0.2264
    116  O          1.4640   61.5870   84.1600 O.2   595  TYR595     -0.2867
    117  CB        -1.8260   61.5180   85.0060 C.3   595  TYR595      0.0534
    118  CG        -2.0100   60.3840   84.0450 C.ar  595  TYR595     -0.0201
    119  CD1       -1.2030   59.2700   84.1100 C.ar  595  TYR595     -0.0009
    120  CD2       -3.0490   60.3950   83.1250 C.ar  595  TYR595     -0.0009
    121  CE1       -1.4050   58.1980   83.2680 C.ar  595  TYR595      0.0417
    122  CE2       -3.2630   59.3280   82.2730 C.ar  595  TYR595      0.0417
    123  CZ        -2.4320   58.2290   82.3470 C.ar  595  TYR595      0.1957
    124  OH        -2.6040   57.1500   81.5070 O.3   595  TYR595     -0.2866
    125  N         -1.9470   58.5790   89.4770 N.3   643  ALA643     -0.1231
    126  CA        -2.5820   58.8710   88.2130 C.3   643  ALA643      0.1694
    127  C         -3.9740   58.3210   88.0060 C.2   643  ALA643      0.2592
    128  O         -4.2130   57.6600   87.0170 O.2   643  ALA643     -0.2718
    129  CB        -1.6870   58.4010   87.0960 C.3   643  ALA643      0.0304
    130  N         -4.8970   58.5740   88.9140 N.am  644  THR644     -0.1953
    131  CA        -6.2750   58.1670   88.6730 C.3   644  THR644      0.1897
    132  C         -7.1930   59.1860   89.2600 C.2   644  THR644      0.2313
    133  O         -6.7390   60.1210   89.9050 O.2   644  THR644     -0.2863
    134  CB        -6.5980   56.8200   89.3270 C.3   644  THR644      0.1794
    135  OG1       -6.3550   56.9090   90.7290 O.3   644  THR644     -0.2208
    136  CG2       -5.7450   55.7100   88.7330 C.3   644  THR644      0.0378
@<TRIPOS>BOND
     1    91    92    1
     2    93    92    1
     3    93    94    2
     4    92    95    1
     5    85    86    2
     6    85    84    1
     7    99   100    1
     8   102   101    2
     9    95    96    1
    10   101   100    1
    11    97    96    1
    12    84    83    1
    13    84    87    1
    14   100   103    1
    15    96    98    1
    16    76    77    2
    17    76    75    1
    18    87    88    1
    19   103   104    1
    20    88    90    1
    21    88    89    1
    22   105   104   ar
    23   105   107   ar
    24    75    74    1
    25    75    78    1
    26   104   106   ar
    27   107   108   ar
    28    78    79    1
    29   106   108   ar
    30   106   109   ar
    31    34    33    2
    32    33    32    1
    33   108   110   ar
    34   109   111   ar
    35    79    80    1
    36   110   112   ar
    37    46    48   ar
    38    46    45   ar
    39   111   112   ar
    40    44    45    1
    41    44    41    1
    42    48    50   ar
    43    32    31    1
    44    32    35    1
    45    45    47   ar
    46    68    67    1
    47    68    69    2
    48    80    81    1
    49    50    49   ar
    50    67    70    1
    51    67    66    1
    52    40    41    1
    53    47    49   ar
    54    41    42    1
    55    35    36    1
    56    70    71    1
    57    72    71    1
    58    81    82    1
    59    29    27    1
    60     7     8    1
    61     7     6    1
    62    25    24    1
    63    25    26    2
    64    71    73    1
    65    42    51   am
    66    42    43    2
    67    24    27    1
    68    24    23    1
    69    36    37    1
    70    51    52    1
    71    27    28    1
    72    37    38    2
    73    37    39   am
    74    28    30    1
    75     6     5    1
    76    52    55    1
    77    52    53    1
    78     5     2    1
    79    53    54    2
    80    15    13    1
    81     2     1    1
    82     2     3    1
    83   124   123    1
    84     4     3    2
    85     3     9   am
    86    13    14    1
    87    13    10    1
    88   122   123   ar
    89   122   120   ar
    90   123   121   ar
    91    59    58    2
    92     9    10    1
    93    10    11    1
    94    60    61    1
    95    60    57    1
    96   120   118   ar
    97    58    57    1
    98   121   119   ar
    99   113   114    1
   100    62    61   ar
   101    62    64   ar
   102    61    63   ar
   103    57    56    1
   104   118   119   ar
   105   118   117    1
   106   116   115    2
   107    64    65   ar
   108    11    12    2
   109   114   117    1
   110   114   115    1
   111    63    65   ar
   112    22    20    1
   113    17    20    1
   114    17    16    1
   115    17    18    1
   116    20    21    1
   117   128   127    2
   118   129   126    1
   119    18    19    2
   120   127   126    1
   121   127   130   am
   122   126   125    1
   123   131   130    1
   124   131   132    1
   125   131   134    1
   126   136   134    1
   127   132   133    2
   128   134   135    1
