@<TRIPOS>MOLECULE
tmp/5lgoA00.pdb
 182 177 0 0 0
SMALL
GASTEIGER

@<TRIPOS>ATOM
      1  N         47.7800   23.3180   37.9810 N.3    24  PHE24      -0.1227
      2  CA        47.2120   23.9540   39.1650 C.3    24  PHE24       0.1736
      3  C         46.3650   23.0190   40.0330 C.2    24  PHE24       0.2595
      4  O         46.0060   23.3800   41.1550 O.2    24  PHE24      -0.2718
      5  CB        46.4270   25.2100   38.7920 C.3    24  PHE24       0.0547
      6  CG        45.1390   24.9610   38.0490 C.ar   24  PHE24      -0.0202
      7  CD1       45.1090   24.9140   36.6640 C.ar   24  PHE24      -0.0042
      8  CD2       43.9470   24.7800   38.7440 C.ar   24  PHE24      -0.0042
      9  CE1       43.9110   24.6830   35.9870 C.ar   24  PHE24      -0.0003
     10  CE2       42.7620   24.5270   38.0700 C.ar   24  PHE24      -0.0003
     11  CZ        42.7440   24.4940   36.6950 C.ar   24  PHE24      -0.0000
     12  N         45.9580   21.8500   39.5140 N.am   25  CYS25      -0.1970
     13  CA        45.0820   20.9460   40.2800 C.3    25  CYS25       0.1712
     14  C         45.1580   19.5990   39.5920 C.2    25  CYS25       0.2296
     15  O         45.4200   19.5080   38.3840 O.2    25  CYS25      -0.2864
     16  CB        43.6260   21.4240   40.3000 C.3    25  CYS25       0.0983
     17  SG        43.1720   22.5370   41.6490 S.3    25  CYS25      -0.0798
     18  N         36.9760   23.8410   44.4140 N.3    40  HIS40      -0.1241
     19  CA        37.8940   24.9480   44.6500 C.3    40  HIS40       0.1621
     20  C         38.9070   25.0920   43.5100 C.2    40  HIS40       0.2264
     21  O         39.5970   26.1180   43.4600 O.2    40  HIS40      -0.2867
     22  CB        38.6120   24.8480   46.0030 C.3    40  HIS40       0.0745
     23  CG        39.6820   23.7750   46.0440 C.ar   40  HIS40       0.0817
     24  ND1       39.5130   22.6050   46.7290 N.ar   40  HIS40      -0.2268
     25  CD2       40.9140   23.7500   45.4910 C.ar   40  HIS40       0.1154
     26  CE1       40.6520   21.9260   46.6080 C.ar   40  HIS40       0.1986
     27  NE2       41.5180   22.5690   45.8610 N.ar   40  HIS40      -0.2212
     28  N         28.1660   23.8130   46.6700 N.3    76  TYR76      -0.1241
     29  CA        29.5200   24.1120   47.0950 C.3    76  TYR76       0.1605
     30  C         29.5660   25.4260   47.9010 C.2    76  TYR76       0.2264
     31  O         28.9730   26.4430   47.4890 O.2    76  TYR76      -0.2867
     32  CB        30.4250   24.2650   45.8700 C.3    76  TYR76       0.0534
     33  CG        31.8160   24.7610   46.2040 C.ar   76  TYR76      -0.0201
     34  CD1       32.6300   24.0640   47.0990 C.ar   76  TYR76      -0.0009
     35  CD2       32.3250   25.9140   45.6140 C.ar   76  TYR76      -0.0009
     36  CE1       33.9210   24.5000   47.3850 C.ar   76  TYR76       0.0417
     37  CE2       33.6090   26.3590   45.9060 C.ar   76  TYR76       0.0417
     38  CZ        34.4040   25.6440   46.7880 C.ar   76  TYR76       0.1957
     39  OH        35.6950   26.0460   47.0670 O.3    76  TYR76      -0.2866
     40  N         32.4680   27.8840   49.3090 N.3    78  SER78      -0.1202
     41  CA        33.8840   28.1750   49.2850 C.3    78  SER78       0.2020
     42  C         34.4810   28.5620   50.6550 C.2    78  SER78       0.2619
     43  O         35.6930   28.4860   50.8440 O.2    78  SER78      -0.2717
     44  CB        34.1920   29.2380   48.2390 C.3    78  SER78       0.2103
     45  OG        33.5140   30.4540   48.5040 O.3    78  SER78      -0.2182
     46  N         33.6620   28.9950   51.6040 N.am   79  ASN79      -0.1960
     47  CA        34.1840   29.3570   52.9120 C.3    79  ASN79       0.1819
     48  C         34.5270   28.1380   53.7210 C.2    79  ASN79       0.2622
     49  O         35.4770   28.2110   54.5170 O.2    79  ASN79      -0.2715
     50  CB        33.1660   30.1920   53.6720 C.3    79  ASN79       0.1195
     51  CG        32.9000   31.5580   53.0790 C.2    79  ASN79       0.2630
     52  OD1       33.7820   32.2220   52.5290 O.2    79  ASN79      -0.2716
     53  ND2       31.6410   31.9700   53.0710 N.am   79  ASN79      -0.0877
     54  N         33.7630   27.0380   53.5990 N.am   80  THR80      -0.1937
     55  CA        33.9520   25.8370   54.4150 C.3    80  THR80       0.2028
     56  C         34.4220   24.6200   53.6320 C.2    80  THR80       0.2642
     57  O         34.7670   23.5920   54.2380 O.2    80  THR80      -0.2714
     58  CB        32.5840   25.4590   55.0110 C.3    80  THR80       0.1808
     59  OG1       31.7110   25.1580   53.8990 O.3    80  THR80      -0.2208
     60  CG2       31.9900   26.5690   55.9090 C.3    80  THR80       0.0379
     61  N         34.3790   24.7160   52.2910 N.am   81  LEU81      -0.1977
     62  CA        34.6970   23.6120   51.3840 C.3    81  LEU81       0.1596
     63  C         33.6920   22.4660   51.4900 C.2    81  LEU81       0.2287
     64  O         33.9490   21.3740   50.9960 O.2    81  LEU81      -0.2864
     65  CB        36.1480   23.0930   51.4820 C.3    81  LEU81       0.0297
     66  CG        37.2640   23.9850   50.9460 C.3    81  LEU81       0.0022
     67  CD1       38.5160   23.1900   50.7740 C.3    81  LEU81       0.0001
     68  CD2       36.9190   24.6280   49.6380 C.3    81  LEU81       0.0001
     69  N         58.8220   20.5740   44.0880 N.3   131  TYR131     -0.1241
     70  CA        57.8000   19.9770   43.2140 C.3   131  TYR131      0.1605
     71  C         58.4420   18.9030   42.3450 C.2   131  TYR131      0.2264
     72  O         59.5050   19.1470   41.7580 O.2   131  TYR131     -0.2867
     73  CB        57.0930   21.0710   42.4150 C.3   131  TYR131      0.0534
     74  CG        56.3070   21.9560   43.3530 C.ar  131  TYR131     -0.0201
     75  CD1       56.9150   23.0130   44.0090 C.ar  131  TYR131     -0.0009
     76  CD2       55.0060   21.6340   43.7210 C.ar  131  TYR131     -0.0009
     77  CE1       56.2330   23.7870   44.9390 C.ar  131  TYR131      0.0417
     78  CE2       54.2940   22.4090   44.6350 C.ar  131  TYR131      0.0417
     79  CZ        54.9260   23.4690   45.2500 C.ar  131  TYR131      0.1957
     80  OH        54.2540   24.2300   46.1840 O.3   131  TYR131     -0.2866
     81  N         34.9450   21.7070   61.6540 N.3   155  GLN155     -0.1245
     82  CA        35.2150   21.8590   60.2230 C.3   155  GLN155      0.1566
     83  C         34.8930   20.6670   59.3550 C.2   155  GLN155      0.2260
     84  O         34.8970   20.8330   58.1210 O.2   155  GLN155     -0.2867
     85  CB        36.6890   22.2330   59.9990 C.3   155  GLN155      0.0367
     86  CG        37.0990   23.5000   60.7120 C.3   155  GLN155      0.0905
     87  CD        38.4150   23.9820   60.1920 C.2   155  GLN155      0.2608
     88  OE1       38.4660   24.7530   59.2110 O.2   155  GLN155     -0.2717
     89  NE2       39.5020   23.5860   60.8320 N.am  155  GLN155     -0.0878
     90  N         51.3650   12.3880   53.4530 N.3   171  ASP171     -0.1225
     91  CA        50.1420   13.1370   53.2280 C.3   171  ASP171      0.1805
     92  C         50.1350   13.6780   51.8150 C.2   171  ASP171      0.2598
     93  O         51.1530   13.6520   51.1200 O.2   171  ASP171     -0.2718
     94  CB        50.1350   14.3420   54.2030 C.3   171  ASP171      0.1424
     95  CG        48.8260   15.0710   54.4580 C.2   171  ASP171      0.3668
     96  OD1       47.7670   14.6250   53.9210 O.co2 171  ASP171     -0.2456
     97  OD2       48.8670   16.1130   55.1550 O.co2 171  ASP171     -0.2456
     98  N         48.9920   14.1840   51.3950 N.am  172  SER172     -0.1938
     99  CA        48.8800   14.9600   50.1640 C.3   172  SER172      0.2055
    100  C         49.3100   16.4140   50.4960 C.2   172  SER172      0.2643
    101  O         49.4270   16.7820   51.6920 O.2   172  SER172     -0.2714
    102  CB        47.4750   14.8780   49.5970 C.3   172  SER172      0.2130
    103  OG        46.5270   15.2760   50.5740 O.3   172  SER172     -0.2179
    104  N         49.5710   17.2320   49.4900 N.am  173  CYS173     -0.1953
    105  CA        50.0730   18.5860   49.7620 C.3   173  CYS173      0.1843
    106  C         49.8210   19.5130   48.5680 C.2   173  CYS173      0.2625
    107  O         49.3450   19.0700   47.5250 O.2   173  CYS173     -0.2714
    108  CB        51.5590   18.5170   50.1430 C.3   173  CYS173      0.0997
    109  SG        52.2030   19.9530   51.0470 S.3   173  CYS173     -0.0797
    110  N         50.1550   20.8100   48.7180 N.am  174  GLN174     -0.1963
    111  CA        49.9570   21.8510   47.7210 C.3   174  GLN174      0.1733
    112  C         50.2220   21.3920   46.3110 C.2   174  GLN174      0.2616
    113  O         51.3450   21.0400   45.9680 O.2   174  GLN174     -0.2715
    114  CB        50.8610   23.0290   48.0480 C.3   174  GLN174      0.0408
    115  CG        50.3870   23.9440   49.1490 C.3   174  GLN174      0.0908
    116  CD        51.0070   25.3130   49.0070 C.2   174  GLN174      0.2608
    117  OE1       52.2030   25.5140   49.2540 O.2   174  GLN174     -0.2717
    118  NE2       50.2110   26.2790   48.5610 N.am  174  GLN174     -0.0878
    119  N         49.1830   21.4430   45.4770 N.am  175  GLY175     -0.1955
    120  CA        49.2400   21.0270   44.0800 C.3   175  GLY175      0.1869
    121  C         48.6530   19.6450   43.8320 C.2   175  GLY175      0.2309
    122  O         48.4360   19.2560   42.6780 O.2   175  GLY175     -0.2863
    123  N         45.5800   18.9040   45.2220 N.3   177  SER177     -0.1217
    124  CA        44.1330   19.0260   45.3420 C.3   177  SER177      0.1889
    125  C         43.4190   18.8720   44.0120 C.2   177  SER177      0.2288
    126  O         43.9590   19.1520   42.9430 O.2   177  SER177     -0.2866
    127  CB        43.7520   20.3020   46.0510 C.3   177  SER177      0.2089
    128  OG        43.8540   21.4340   45.2050 O.3   177  SER177     -0.2183
    129  N         41.0920   14.9360   46.6430 N.3   191  VAL191     -0.1231
    130  CA        41.9780   15.7040   47.5140 C.3   191  VAL191      0.1692
    131  C         41.4150   17.1210   47.7010 C.2   191  VAL191      0.2593
    132  O         41.2260   17.8510   46.7210 O.2   191  VAL191     -0.2718
    133  CB        43.3940   15.7650   46.9430 C.3   191  VAL191      0.0266
    134  CG1       44.3360   16.4900   47.8850 C.3   191  VAL191      0.0020
    135  CG2       43.9480   14.3760   46.6300 C.3   191  VAL191      0.0020
    136  N         41.1180   17.5050   48.9590 N.am  192  SER192     -0.1938
    137  CA        40.4100   18.7480   49.2180 C.3   192  SER192      0.2055
    138  C         41.2280   19.7660   50.0200 C.2   192  SER192      0.2643
    139  O         41.5540   20.8190   49.4820 O.2   192  SER192     -0.2714
    140  CB        39.0560   18.4390   49.8560 C.3   192  SER192      0.2130
    141  OG        38.2560   19.5910   50.0640 O.3   192  SER192     -0.2179
    142  N         41.5420   19.4800   51.2890 N.am  193  TRP193     -0.1959
    143  CA        42.2130   20.4800   52.1240 C.3   193  TRP193      0.1771
    144  C         42.9170   19.8160   53.2920 C.2   193  TRP193      0.2620
    145  O         42.9750   18.5990   53.4230 O.2   193  TRP193     -0.2715
    146  CB        41.2120   21.5620   52.6060 C.3   193  TRP193      0.0590
    147  CG        40.1130   21.0770   53.5040 C.ar  193  TRP193      0.0006
    148  CD1       38.9290   20.5130   53.1160 C.ar  193  TRP193      0.0946
    149  CD2       40.0590   21.1850   54.9360 C.ar  193  TRP193      0.0152
    150  NE1       38.1350   20.2840   54.2160 N.ar  193  TRP193     -0.2442
    151  CE2       38.8010   20.6970   55.3440 C.ar  193  TRP193      0.0810
    152  CE3       40.9240   21.7120   55.9160 C.ar  193  TRP193      0.0012
    153  CZ2       38.4180   20.6430   56.6940 C.ar  193  TRP193      0.0191
    154  CZ3       40.5540   21.6290   57.2480 C.ar  193  TRP193      0.0001
    155  CH2       39.3290   21.0880   57.6240 C.ar  193  TRP193      0.0015
    156  N         43.4960   20.6530   54.1330 N.am  194  GLY194     -0.1954
    157  CA        44.1380   20.2240   55.3610 C.3   194  GLY194      0.1869
    158  C         44.7640   21.4110   56.0400 C.2   194  GLY194      0.2309
    159  O         44.4920   22.5610   55.6940 O.2   194  GLY194     -0.2863
    160  N         48.5530   22.4320   56.9120 N.3   196  GLY196     -0.1210
    161  CA        49.9060   22.0170   56.6050 C.3   196  GLY196      0.1956
    162  C         49.8770   20.6740   55.8800 C.2   196  GLY196      0.2612
    163  O         48.8260   20.2530   55.3490 O.2   196  GLY196     -0.2717
    164  N         51.0400   20.0340   55.7890 N.am  197  CYS197     -0.1970
    165  CA        51.1670   18.7420   55.1450 C.3   197  CYS197      0.1712
    166  C         51.9910   17.8390   56.0050 C.2   197  CYS197      0.2296
    167  O         53.0960   18.2410   56.4310 O.2   197  CYS197     -0.2864
    168  CB        51.8110   18.8620   53.7760 C.3   197  CYS197      0.0983
    169  SG        50.9810   20.0400   52.7000 S.3   197  CYS197     -0.0798
    170  N         47.1150   16.0920   61.8990 N.3   202  LYS202     -0.1245
    171  CA        46.5240   16.9540   60.8720 C.3   202  LYS202      0.1561
    172  C         46.5080   16.2280   59.5220 C.2   202  LYS202      0.2260
    173  O         47.2650   16.5740   58.6100 O.2   202  LYS202     -0.2867
    174  CB        47.2550   18.2820   60.8160 C.3   202  LYS202      0.0271
    175  CG        47.1230   19.0960   62.1150 C.3   202  LYS202      0.0035
    176  CD        47.7160   20.4760   61.9800 C.3   202  LYS202      0.0206
    177  CE        49.0990   20.5960   62.5580 C.3   202  LYS202      0.1093
    178  NZ        49.7350   21.8910   62.2050 N.3   202  LYS202     -0.1314
    179  N         45.1360   14.7020   55.8740 N.3   204  GLY204     -0.1225
    180  CA        44.4300   15.2770   54.7430 C.3   204  GLY204      0.1811
    181  C         42.9320   15.0690   54.8670 C.2   204  GLY204      0.2280
    182  O         42.4850   14.0870   55.4280 O.2   204  GLY204     -0.2866
@<TRIPOS>BOND
     1     9     7   ar
     2     9    11   ar
     3     7     6   ar
     4    11    10   ar
     5     1     2    1
     6     6     8   ar
     7     6     5    1
     8    10     8   ar
     9    15    14    2
    10     5     2    1
    11     2     3    1
    12    12     3   am
    13    12    13    1
    14    14    13    1
    15     3     4    2
    16    13    16    1
    17    16    17    1
    18    72    71    2
    19    71    70    1
    20    73    70    1
    21    73    74    1
    22   122   121    2
    23   126   125    2
    24    70    69    1
    25    74    76   ar
    26    74    75   ar
    27    21    20    2
    28    20    19    1
    29    76    78   ar
    30   121   120    1
    31    75    77   ar
    32   125   124    1
    33   120   119    1
    34    18    19    1
    35    78    79   ar
    36    19    22    1
    37    77    79   ar
    38   128   127    1
    39   123   124    1
    40    79    80    1
    41   124   127    1
    42   119   112   am
    43    25    27   ar
    44    25    23   ar
    45    35    37   ar
    46    35    33   ar
    47    27    26   ar
    48    32    33    1
    49    32    29    1
    50    37    38   ar
    51   113   112    2
    52    22    23    1
    53    23    24   ar
    54    33    34   ar
    55   112   111    1
    56    26    24   ar
    57   135   133    1
    58   129   130    1
    59    28    29    1
    60   132   131    2
    61    38    39    1
    62    38    36   ar
    63   133   130    1
    64   133   134    1
    65    29    30    1
    66    34    36   ar
    67    31    30    2
    68   130   131    1
    69   107   106    2
    70   131   136   am
    71   111   114    1
    72   111   110    1
    73   114   115    1
    74    44    45    1
    75    44    41    1
    76   118   116   am
    77   106   110   am
    78   106   105    1
    79   136   137    1
    80   116   115    1
    81   116   117    2
    82   137   140    1
    83   137   138    1
    84    41    40    1
    85    41    42    1
    86   139   138    2
    87   104   105    1
    88   104   100   am
    89   102    99    1
    90   102   103    1
    91    68    66    1
    92   105   108    1
    93   140   141    1
    94   138   142   am
    95   108   109    1
    96    99   100    1
    97    99    98    1
    98   100   101    2
    99    42    43    2
   100    42    46   am
   101    67    66    1
   102    66    65    1
   103    64    63    2
   104   109   169    1
   105    93    92    2
   106   142   143    1
   107    62    65    1
   108    62    63    1
   109    62    61    1
   110    98    92   am
   111    46    47    1
   112    92    91    1
   113   143   146    1
   114   143   144    1
   115    61    56   am
   116    52    51    2
   117   146   147    1
   118   169   168    1
   119    47    50    1
   120    47    48    1
   121    53    51   am
   122    51    50    1
   123   148   147   ar
   124   148   150   ar
   125    91    90    1
   126    91    94    1
   127   144   145    2
   128   144   156   am
   129   147   149   ar
   130    54    48   am
   131    54    55    1
   132    56    57    2
   133    56    55    1
   134    48    49    2
   135   168   165    1
   136    59    58    1
   137    96    95   ar
   138   156   157    1
   139    94    95    1
   140   150   151   ar
   141    55    58    1
   142    95    97   ar
   143   180   181    1
   144   180   179    1
   145   181   182    2
   146   149   151   ar
   147   149   152   ar
   148    58    60    1
   149   165   164    1
   150   165   166    1
   151   151   153   ar
   152   163   162    2
   153   157   158    1
   154   159   158    2
   155   164   162   am
   156   162   161    1
   157   152   154   ar
   158   166   167    2
   159   161   160    1
   160   153   155   ar
   161   154   155   ar
   162    84    83    2
   163   173   172    2
   164    88    87    2
   165    83    82    1
   166   172   171    1
   167    85    82    1
   168    85    86    1
   169    87    86    1
   170    87    89   am
   171    82    81    1
   172   174   171    1
   173   174   175    1
   174   171   170    1
   175   176   175    1
   176   176   177    1
   177   178   177    1
