@<TRIPOS>MOLECULE
tmp/5lgqB01.pdb
 190 181 0 0 0
SMALL
GASTEIGER

@<TRIPOS>ATOM
      1  N         20.6050   36.0690  116.0690 N.3     4  PHE4       -0.1241
      2  CA        21.7160   35.4230  116.7610 C.3     4  PHE4        0.1605
      3  C         22.8370   36.4140  117.0460 C.2     4  PHE4        0.2264
      4  O         23.3330   36.5030  118.1760 O.2     4  PHE4       -0.2867
      5  CB        22.2420   34.2470  115.9350 C.3     4  PHE4        0.0534
      6  CG        23.3270   33.4650  116.6220 C.ar    4  PHE4       -0.0203
      7  CD1       24.6580   33.8220  116.4790 C.ar    4  PHE4       -0.0042
      8  CD2       23.0150   32.3740  117.4170 C.ar    4  PHE4       -0.0042
      9  CE1       25.6560   33.1060  117.1150 C.ar    4  PHE4       -0.0003
     10  CE2       24.0080   31.6530  118.0530 C.ar    4  PHE4       -0.0003
     11  CZ        25.3300   32.0190  117.9020 C.ar    4  PHE4       -0.0000
     12  N         32.5270   28.7830  120.4170 N.3    16  TYR16      -0.1227
     13  CA        31.4070   27.8640  120.5910 C.3    16  TYR16       0.1736
     14  C         31.3010   26.8950  119.4180 C.2    16  TYR16       0.2595
     15  O         31.2600   25.6740  119.6070 O.2    16  TYR16      -0.2718
     16  CB        30.1160   28.6710  120.7590 C.3    16  TYR16       0.0548
     17  CG        28.8490   27.8540  120.9000 C.ar   16  TYR16      -0.0200
     18  CD1       28.0130   27.6440  119.8110 C.ar   16  TYR16      -0.0009
     19  CD2       28.4770   27.3110  122.1240 C.ar   16  TYR16      -0.0009
     20  CE1       26.8480   26.9110  119.9330 C.ar   16  TYR16       0.0417
     21  CE2       27.3130   26.5720  122.2550 C.ar   16  TYR16       0.0417
     22  CZ        26.5020   26.3770  121.1580 C.ar   16  TYR16       0.1957
     23  OH        25.3420   25.6440  121.2770 O.3    16  TYR16      -0.2866
     24  N         31.2700   27.4200  118.1920 N.am   17  PHE17      -0.1976
     25  CA        31.0780   26.5560  117.0340 C.3    17  PHE17       0.1639
     26  C         32.3410   25.7880  116.6710 C.2    17  PHE17       0.2290
     27  O         32.2520   24.7060  116.0850 O.2    17  PHE17      -0.2864
     28  CB        30.5760   27.3820  115.8490 C.3    17  PHE17       0.0560
     29  CG        29.1740   27.8820  116.0350 C.ar   17  PHE17      -0.0200
     30  CD1       28.1310   26.9840  116.1780 C.ar   17  PHE17      -0.0042
     31  CD2       28.8990   29.2370  116.0880 C.ar   17  PHE17      -0.0042
     32  CE1       26.8380   27.4230  116.3660 C.ar   17  PHE17      -0.0003
     33  CE2       27.6020   29.6860  116.2720 C.ar   17  PHE17      -0.0003
     34  CZ        26.5710   28.7760  116.4100 C.ar   17  PHE17      -0.0000
     35  N         32.0560   22.5320  118.5070 N.3    20  TYR20      -0.1241
     36  CA        31.1260   21.5990  117.8860 C.3    20  TYR20       0.1605
     37  C         31.5650   21.1500  116.4990 C.2    20  TYR20       0.2264
     38  O         30.8690   20.3360  115.8830 O.2    20  TYR20      -0.2867
     39  CB        29.7330   22.2230  117.8130 C.3    20  TYR20       0.0534
     40  CG        28.9830   22.1310  119.1190 C.ar   20  TYR20      -0.0201
     41  CD1       28.6560   20.8970  119.6610 C.ar   20  TYR20      -0.0009
     42  CD2       28.6040   23.2730  119.8120 C.ar   20  TYR20      -0.0009
     43  CE1       27.9720   20.7990  120.8530 C.ar   20  TYR20       0.0417
     44  CE2       27.9170   23.1850  121.0070 C.ar   20  TYR20       0.0417
     45  CZ        27.6040   21.9420  121.5220 C.ar   20  TYR20       0.1957
     46  OH        26.9160   21.8390  122.7090 O.3    20  TYR20      -0.2866
     47  N         31.2180   15.0610  118.9220 N.3    26  GLN26      -0.1245
     48  CA        30.0540   14.3020  118.4740 C.3    26  GLN26       0.1566
     49  C         30.0540   12.9110  119.0930 C.2    26  GLN26       0.2260
     50  O         29.0350   12.4480  119.6170 O.2    26  GLN26      -0.2867
     51  CB        30.0310   14.2050  116.9480 C.3    26  GLN26       0.0367
     52  CG        29.6150   15.4810  116.2440 C.3    26  GLN26       0.0905
     53  CD        28.1890   15.8870  116.5630 C.2    26  GLN26       0.2608
     54  OE1       27.2520   15.1010  116.4020 O.2    26  GLN26      -0.2717
     55  NE2       28.0160   17.1220  117.0220 N.am   26  GLN26      -0.0878
     56  N         28.8430   12.8040  122.7440 N.3    29  MET29      -0.1245
     57  CA        27.3950   12.8660  122.9190 C.3    29  MET29       0.1570
     58  C         26.7250   11.6060  122.3910 C.2    29  MET29       0.2261
     59  O         25.8320   11.0510  123.0410 O.2    29  MET29      -0.2867
     60  CB        26.8250   14.0900  122.2030 C.3    29  MET29       0.0387
     61  CG        27.4080   15.4280  122.6310 C.3    29  MET29       0.0595
     62  SD        26.6800   16.7920  121.6930 S.3    29  MET29      -0.1393
     63  CE        27.2300   16.4110  120.0320 C.3    29  MET29       0.0692
     64  N         17.2140   21.2070  114.0200 N.3    58  VAL58      -0.1231
     65  CA        17.9550   22.4000  114.4190 C.3    58  VAL58       0.1692
     66  C         19.1880   21.9690  115.2030 C.2    58  VAL58       0.2592
     67  O         19.0750   21.3280  116.2530 O.2    58  VAL58      -0.2718
     68  CB        17.0760   23.3460  115.2510 C.3    58  VAL58       0.0266
     69  CG1       17.8600   24.5870  115.6610 C.3    58  VAL58       0.0020
     70  CG2       15.8300   23.7370  114.4690 C.3    58  VAL58       0.0020
     71  N         20.3660   22.3340  114.7010 N.am   59  GLY59      -0.1957
     72  CA        21.6100   21.9690  115.3520 C.3    59  GLY59       0.1869
     73  C         21.8870   20.4880  115.2170 C.2    59  GLY59       0.2309
     74  O         22.1470   19.7980  116.2080 O.2    59  GLY59      -0.2863
     75  N         24.2570   18.6610  114.1340 N.3    61  GLY61      -0.1225
     76  CA        25.5770   18.0720  114.2440 C.3    61  GLY61       0.1811
     77  C         25.8640   17.1150  113.1030 C.2    61  GLY61       0.2280
     78  O         25.8160   17.4990  111.9290 O.2    61  GLY61      -0.2866
     79  N         19.8910   21.6670  109.7980 N.3    80  VAL80      -0.1231
     80  CA        20.6270   22.9240  109.9000 C.3    80  VAL80       0.1692
     81  C         21.7010   22.7930  110.9710 C.2    80  VAL80       0.2592
     82  O         21.4240   22.3590  112.0950 O.2    80  VAL80      -0.2718
     83  CB        19.6820   24.0970  110.2130 C.3    80  VAL80       0.0266
     84  CG1       20.4720   25.3910  110.4140 C.3    80  VAL80       0.0020
     85  CG2       18.6640   24.2670  109.0950 C.3    80  VAL80       0.0020
     86  N         22.9260   23.1840  110.6230 N.am   81  GLU81      -0.1966
     87  CA        24.0490   23.1780  111.5510 C.3    81  GLU81       0.1733
     88  C         24.9810   24.3220  111.1840 C.2    81  GLU81       0.2616
     89  O         25.3880   24.4450  110.0240 O.2    81  GLU81      -0.2715
     90  CB        24.7990   21.8400  111.5090 C.3    81  GLU81       0.0429
     91  CG        26.0920   21.8110  112.3210 C.3    81  GLU81       0.1163
     92  CD        25.8620   22.0490  113.8000 C.2    81  GLU81       0.3649
     93  OE1       24.9110   21.4630  114.3580 O.co2  81  GLU81      -0.2457
     94  OE2       26.6360   22.8220  114.4020 O.co2  81  GLU81      -0.2457
     95  N         25.3190   25.1510  112.1720 N.am   82  ALA82      -0.1963
     96  CA        26.1830   26.3020  111.9440 C.3    82  ALA82       0.1728
     97  C         27.6660   25.9710  112.0340 C.2    82  ALA82       0.2616
     98  O         28.4900   26.7530  111.5460 O.2    82  ALA82      -0.2715
     99  CB        25.8550   27.4100  112.9490 C.3    82  ALA82       0.0334
    100  N         28.0320   24.8470  112.6410 N.am   83  SER83      -0.1950
    101  CA        29.4320   24.4670  112.7440 C.3    83  SER83       0.1924
    102  C         29.8700   23.7130  111.4940 C.2    83  SER83       0.2314
    103  O         29.0620   23.3280  110.6470 O.2    83  SER83      -0.2863
    104  CB        29.6720   23.6080  113.9870 C.3    83  SER83       0.2116
    105  OG        29.3680   22.2460  113.7370 O.3    83  SER83      -0.2180
    106  N         24.7440   26.7390  108.4110 N.3   107  GLY107     -0.1210
    107  CA        24.5410   28.0840  108.8990 C.3   107  GLY107      0.1956
    108  C         23.7810   28.0820  110.2050 C.2   107  GLY107      0.2612
    109  O         23.4440   27.0390  110.7650 O.2   107  GLY107     -0.2717
    110  N         23.5130   29.2860  110.6950 N.am  108  LYS108     -0.1965
    111  CA        22.7080   29.4540  111.8930 C.3   108  LYS108      0.1728
    112  C         21.2370   29.4870  111.5030 C.2   108  LYS108      0.2616
    113  O         20.8650   30.0800  110.4860 O.2   108  LYS108     -0.2715
    114  CB        23.0970   30.7330  112.6340 C.3   108  LYS108      0.0311
    115  CG        24.5780   31.0560  112.5340 C.3   108  LYS108      0.0038
    116  CD        25.0420   31.9630  113.6570 C.3   108  LYS108      0.0206
    117  CE        26.3930   32.5930  113.3450 C.3   108  LYS108      0.1093
    118  NZ        27.4530   31.5880  113.0390 N.3   108  LYS108     -0.1314
    119  N         20.4030   28.8300  112.3110 N.am  109  VAL109     -0.1963
    120  CA        18.9830   28.7390  111.9980 C.3   109  VAL109      0.1727
    121  C         18.3360   30.1140  111.9540 C.2   109  VAL109      0.2616
    122  O         17.2750   30.2790  111.3430 O.2   109  VAL109     -0.2715
    123  CB        18.2760   27.8200  113.0170 C.3   109  VAL109      0.0290
    124  CG1       18.1060   28.5220  114.3690 C.3   109  VAL109      0.0023
    125  CG2       16.9440   27.3390  112.4580 C.3   109  VAL109      0.0023
    126  N         18.9500   31.1130  112.5910 N.am  110  GLU110     -0.1977
    127  CA        18.4540   32.4800  112.5250 C.3   110  GLU110      0.1602
    128  C         18.8160   33.1820  111.2230 C.2   110  GLU110      0.2287
    129  O         18.3130   34.2820  110.9750 O.2   110  GLU110     -0.2864
    130  CB        19.0020   33.3050  113.6960 C.3   110  GLU110      0.0415
    131  CG        18.5920   32.8160  115.0810 C.3   110  GLU110      0.1163
    132  CD        19.4960   31.7210  115.6170 C.2   110  GLU110      0.3649
    133  OE1       20.3550   31.2260  114.8580 O.co2 110  GLU110     -0.2457
    134  OE2       19.3490   31.3590  116.8050 O.co2 110  GLU110     -0.2457
    135  N         18.2480   19.0140  119.7450 N.3   124  GLU124     -0.1231
    136  CA        18.8050   18.7970  121.0770 C.3   124  GLU124      0.1684
    137  C         19.3180   20.1440  121.5670 C.2   124  GLU124      0.2434
    138  O         20.5280   20.4130  121.5240 O.2   124  GLU124     -0.2733
    139  CB        19.9230   17.7580  121.0830 C.3   124  GLU124      0.0402
    140  CG        20.4030   17.4310  122.4910 C.3   124  GLU124      0.1161
    141  CD        21.5730   16.4760  122.5110 C.2   124  GLU124      0.3649
    142  OE1       22.6570   16.8480  122.0150 O.co2 124  GLU124     -0.2457
    143  OE2       21.4050   15.3490  123.0170 O.co2 124  GLU124     -0.2457
    144  N         18.4300   21.0240  122.0240 N.am  125  PRO125     -0.2718
    145  CA        18.8530   22.3620  122.4560 C.3   125  PRO125      0.1535
    146  C         19.2590   22.4720  123.9180 C.2   125  PRO125      0.2598
    147  O         19.4970   23.5910  124.3820 O.2   125  PRO125     -0.2715
    148  CB        17.5920   23.1930  122.1920 C.3   125  PRO125      0.0310
    149  CG        16.4830   22.2400  122.4870 C.3   125  PRO125      0.0237
    150  CD        16.9620   20.8890  122.0250 C.3   125  PRO125      0.0939
    151  N         19.3520   21.3620  124.6430 N.am  126  MET126     -0.1978
    152  CA        19.5740   21.3960  126.0830 C.3   126  MET126      0.1605
    153  C         21.0700   21.4060  126.3780 C.2   126  MET126      0.2287
    154  O         21.7930   20.4860  125.9830 O.2   126  MET126     -0.2864
    155  CB        18.9160   20.1940  126.7600 C.3   126  MET126      0.0413
    156  CG        17.4420   19.9990  126.4230 C.3   126  MET126      0.0598
    157  SD        17.1580   18.8840  125.0310 S.3   126  MET126     -0.1393
    158  CE        17.7260   17.3170  125.6880 C.3   126  MET126      0.0692
    159  N         24.0970   27.6450  126.8860 N.3   133  GLU133     -0.1245
    160  CA        24.2780   27.6600  125.4330 C.3   133  GLU133      0.1567
    161  C         23.2370   28.5410  124.7520 C.2   133  GLU133      0.2260
    162  O         23.4360   28.9710  123.6120 O.2   133  GLU133     -0.2867
    163  CB        24.2310   26.2510  124.8230 C.3   133  GLU133      0.0388
    164  CG        25.3130   25.3110  125.3320 C.3   133  GLU133      0.1160
    165  CD        25.3290   23.9940  124.5810 C.2   133  GLU133      0.3649
    166  OE1       25.2330   22.9320  125.2340 O.co2 133  GLU133     -0.2457
    167  OE2       25.4300   24.0220  123.3340 O.co2 133  GLU133     -0.2457
    168  N         20.7810   27.7350  123.3300 N.3   135  MET135     -0.1245
    169  CA        20.2950   27.0820  122.1210 C.3   135  MET135      0.1570
    170  C         18.7800   26.9280  122.1340 C.2   135  MET135      0.2261
    171  O         18.1780   26.7440  121.0700 O.2   135  MET135     -0.2867
    172  CB        20.9790   25.7210  121.9650 C.3   135  MET135      0.0387
    173  CG        20.4590   24.8430  120.8330 C.3   135  MET135      0.0595
    174  SD        20.7600   25.4480  119.1640 S.3   135  MET135     -0.1393
    175  CE        20.3710   23.9560  118.2510 C.3   135  MET135      0.0692
    176  N         17.3330   29.5990  119.8700 N.3   138  SER138     -0.1217
    177  CA        17.3850   29.2320  118.4590 C.3   138  SER138      0.1889
    178  C         16.2990   28.2190  118.1280 C.2   138  SER138      0.2288
    179  O         15.6440   28.3110  117.0830 O.2   138  SER138     -0.2866
    180  CB        18.7640   28.6700  118.1170 C.3   138  SER138      0.2089
    181  OG        19.7910   29.5510  118.5340 O.3   138  SER138     -0.2183
    182  N         26.2870   33.5810  125.3860 N.3   313  GLN313     -0.1245
    183  CA        25.5430   32.3510  125.1150 C.3   313  GLN313      0.1566
    184  C         25.3030   31.5540  126.3930 C.2   313  GLN313      0.2260
    185  O         25.3000   30.3220  126.3810 O.2   313  GLN313     -0.2867
    186  CB        26.2560   31.4860  124.0730 C.3   313  GLN313      0.0367
    187  CG        26.4780   32.1760  122.7390 C.3   313  GLN313      0.0905
    188  CD        27.2150   31.2920  121.7580 C.2   313  GLN313      0.2608
    189  OE1       28.4410   31.3220  121.6790 O.2   313  GLN313     -0.2717
    190  NE2       26.4700   30.4880  121.0100 N.am  313  GLN313     -0.0878
@<TRIPOS>BOND
     1   106   107    1
     2   107   108    1
     3    85    83    1
     4    79    80    1
     5    80    83    1
     6    80    81    1
     7    89    88    2
     8   108   110   am
     9   108   109    2
    10    83    84    1
    11   113   112    2
    12    86    81   am
    13    86    87    1
    14   103   102    2
    15   110   111    1
    16    81    82    2
    17   129   128    2
    18    88    87    1
    19    88    95   am
    20   128   127    1
    21   122   121    2
    22   102   101    1
    23   112   111    1
    24   112   119   am
    25    90    87    1
    26    90    91    1
    27    98    97    2
    28   111   114    1
    29    78    77    2
    30    96    97    1
    31    96    95    1
    32    96    99    1
    33   121   120    1
    34   121   126   am
    35   120   119    1
    36   120   123    1
    37    97   100   am
    38    91    92    1
    39   125   123    1
    40   127   126    1
    41   127   130    1
    42   115   114    1
    43   115   116    1
    44   100   101    1
    45   101   104    1
    46   123   124    1
    47   118   117    1
    48    77    76    1
    49   117   116    1
    50   130   131    1
    51   105   104    1
    52    92    93   ar
    53    92    94   ar
    54    64    65    1
    55    75    76    1
    56    65    66    1
    57    65    68    1
    58    70    68    1
    59    71    66   am
    60    71    72    1
    61   133   132   ar
    62   131   132    1
    63    66    67    2
    64    73    72    1
    65    73    74    2
    66    68    69    1
    67   132   134   ar
    68    28    29    1
    69    28    25    1
    70    38    37    2
    71     5     6    1
    72     5     2    1
    73    29    31   ar
    74    29    30   ar
    75     1     2    1
    76    27    26    2
    77    31    33   ar
    78    30    32   ar
    79    52    53    1
    80    52    51    1
    81    33    34   ar
    82    32    34   ar
    83    54    53    2
    84     7     6   ar
    85     7     9   ar
    86    37    36    1
    87    53    55   am
    88     6     8   ar
    89    26    25    1
    90     2     3    1
    91    51    48    1
    92    25    24    1
    93     3     4    2
    94   179   178    2
    95     9    11   ar
    96     8    10   ar
    97    39    36    1
    98    39    40    1
    99    36    35    1
   100    11    10   ar
   101   180   177    1
   102   180   181    1
   103   178   177    1
   104    24    14   am
   105   175   174    1
   106   177   176    1
   107    48    47    1
   108    48    49    1
   109    49    50    2
   110    40    41   ar
   111    40    42   ar
   112   174   173    1
   113    14    15    2
   114    14    13    1
   115    41    43   ar
   116   135   136    1
   117    18    20   ar
   118    18    17   ar
   119    42    44   ar
   120    20    22   ar
   121    63    62    1
   122    12    13    1
   123    13    16    1
   124    16    17    1
   125   173   172    1
   126    43    45   ar
   127    17    19   ar
   128    44    45   ar
   129   190   188   am
   130   171   170    2
   131   136   139    1
   132   136   137    1
   133   139   140    1
   134    22    23    1
   135    22    21   ar
   136    45    46    1
   137   138   137    2
   138   137   144   am
   139   189   188    2
   140    62    61    1
   141   188   187    1
   142   172   169    1
   143   142   141   ar
   144   144   150    1
   145   144   145    1
   146   150   149    1
   147   169   170    1
   148   169   168    1
   149    19    21   ar
   150   148   145    1
   151   148   149    1
   152    60    61    1
   153    60    57    1
   154    58    57    1
   155    58    59    2
   156   145   146    1
   157   140   141    1
   158   141   143   ar
   159   187   186    1
   160    56    57    1
   161   167   165   ar
   162   162   161    2
   163   146   147    2
   164   146   151   am
   165   186   183    1
   166   165   166   ar
   167   165   164    1
   168   151   152    1
   169   161   160    1
   170   163   164    1
   171   163   160    1
   172   157   158    1
   173   157   156    1
   174   183   182    1
   175   183   184    1
   176   160   159    1
   177   154   153    2
   178   152   153    1
   179   152   155    1
   180   185   184    2
   181   156   155    1
