@<TRIPOS>MOLECULE
tmp/5lgtA01.pdb
 218 211 0 0 0
SMALL
GASTEIGER

@<TRIPOS>ATOM
      1  N        -72.4200  -31.1520  -35.6210 N.3   162  MET162     -0.1230
      2  CA       -73.5750  -31.8080  -36.1930 C.3   162  MET162      0.1702
      3  C        -73.9660  -33.0810  -35.4880 C.2   162  MET162      0.2592
      4  O        -75.1200  -33.4740  -35.5430 O.2   162  MET162     -0.2718
      5  CB       -73.2890  -32.1680  -37.6400 C.3   162  MET162      0.0401
      6  CG       -74.5240  -32.5830  -38.4260 C.3   162  MET162      0.0596
      7  SD       -74.0810  -32.7940  -40.1550 S.3   162  MET162     -0.1393
      8  CE       -73.2650  -34.3890  -40.0340 C.3   162  MET162      0.0692
      9  N        -73.0240  -33.7420  -34.8400 N.am  163  VAL163     -0.1980
     10  CA       -73.2320  -35.1170  -34.4670 C.3   163  VAL163      0.1595
     11  C        -73.1590  -35.3230  -32.9770 C.2   163  VAL163      0.2287
     12  O        -72.3390  -34.7150  -32.2830 O.2   163  VAL163     -0.2864
     13  CB       -72.1850  -36.0030  -35.1480 C.3   163  VAL163      0.0276
     14  CG1      -72.2600  -37.4380  -34.6510 C.3   163  VAL163      0.0022
     15  CG2      -72.3940  -35.9500  -36.6450 C.3   163  VAL163      0.0022
     16  N        -72.1510  -38.1580  -30.5400 N.3   165  THR165     -0.1218
     17  CA       -71.3780  -39.3700  -30.7030 C.3   165  THR165      0.1862
     18  C        -71.7760  -40.4210  -29.6730 C.2   165  THR165      0.2287
     19  O        -70.9530  -40.8820  -28.8750 O.2   165  THR165     -0.2866
     20  CB       -69.8650  -39.0770  -30.6620 C.3   165  THR165      0.1770
     21  OG1      -69.4380  -38.7950  -29.3240 O.3   165  THR165     -0.2211
     22  CG2      -69.5470  -37.8870  -31.5480 C.3   165  THR165      0.0375
     23  N        -77.4240  -42.5180  -38.1540 N.3   186  ILE186     -0.1245
     24  CA       -76.6900  -42.3470  -39.3990 C.3   186  ILE186      0.1561
     25  C        -76.3840  -43.7260  -39.9480 C.2   186  ILE186      0.2260
     26  O        -75.7400  -44.5390  -39.2750 O.2   186  ILE186     -0.2867
     27  CB       -75.3620  -41.6200  -39.1780 C.3   186  ILE186      0.0252
     28  CG1      -75.6080  -40.2120  -38.6480 C.3   186  ILE186      0.0019
     29  CG2      -74.5710  -41.5520  -40.4750 C.3   186  ILE186      0.0019
     30  CD1      -74.3570  -39.5630  -38.0940 C.3   186  ILE186      0.0001
     31  N        -74.4040  -46.1840  -41.6650 N.3   188  GLN188     -0.1245
     32  CA       -72.9520  -46.0790  -41.7750 C.3   188  GLN188      0.1566
     33  C        -72.4170  -46.5450  -43.1330 C.2   188  GLN188      0.2260
     34  O        -71.2340  -46.3930  -43.4130 O.2   188  GLN188     -0.2867
     35  CB       -72.2540  -46.8160  -40.6130 C.3   188  GLN188      0.0367
     36  CG       -72.7170  -46.4180  -39.1940 C.3   188  GLN188      0.0905
     37  CD       -72.2040  -45.0610  -38.6600 C.2   188  GLN188      0.2608
     38  OE1      -71.4730  -44.3240  -39.3290 O.2   188  GLN188     -0.2717
     39  NE2      -72.6010  -44.7370  -37.4280 N.am  188  GLN188     -0.0878
     40  N        -60.0980  -36.0490  -41.5400 N.3   368  PHE368     -0.1227
     41  CA       -61.3980  -35.4490  -41.3040 C.3   368  PHE368      0.1736
     42  C        -61.7640  -35.5170  -39.8170 C.2   368  PHE368      0.2595
     43  O        -61.9420  -34.4940  -39.1690 O.2   368  PHE368     -0.2718
     44  CB       -62.4450  -36.1390  -42.1720 C.3   368  PHE368      0.0547
     45  CG       -63.8060  -36.1160  -41.5940 C.ar  368  PHE368     -0.0202
     46  CD1      -64.4250  -34.9240  -41.3870 C.ar  368  PHE368     -0.0042
     47  CD2      -64.4620  -37.2930  -41.2520 C.ar  368  PHE368     -0.0042
     48  CE1      -65.6910  -34.8790  -40.8460 C.ar  368  PHE368     -0.0003
     49  CE2      -65.7380  -37.2630  -40.7150 C.ar  368  PHE368     -0.0003
     50  CZ       -66.3560  -36.0490  -40.5130 C.ar  368  PHE368     -0.0000
     51  N        -61.8480  -36.7210  -39.2770 N.am  369  ALA369     -0.1966
     52  CA       -62.1820  -36.9170  -37.8710 C.3   369  ALA369      0.1728
     53  C        -61.3990  -36.0090  -36.9320 C.2   369  ALA369      0.2616
     54  O        -61.9870  -35.3940  -36.0460 O.2   369  ALA369     -0.2715
     55  CB       -61.9340  -38.3550  -37.4820 C.3   369  ALA369      0.0334
     56  N        -60.0800  -35.9480  -37.1240 N.am  370  ASN370     -0.1972
     57  CA       -59.1950  -35.2120  -36.2260 C.3   370  ASN370      0.1688
     58  C        -58.8700  -33.8190  -36.7110 C.2   370  ASN370      0.2292
     59  O        -58.0880  -33.0990  -36.0740 O.2   370  ASN370     -0.2864
     60  CB       -57.9010  -35.9780  -36.0110 C.3   370  ASN370      0.1181
     61  CG       -58.1420  -37.3380  -35.4370 C.2   370  ASN370      0.2629
     62  OD1      -58.1270  -37.5150  -34.2260 O.2   370  ASN370     -0.2716
     63  ND2      -58.4090  -38.3060  -36.2990 N.am  370  ASN370     -0.0877
     64  N        -52.5320  -39.4780  -29.9130 N.3   382  TRP382     -0.1241
     65  CA       -53.6670  -38.9720  -30.6950 C.3   382  TRP382      0.1605
     66  C        -55.0010  -39.6080  -30.3390 C.2   382  TRP382      0.2264
     67  O        -56.0350  -38.9960  -30.5100 O.2   382  TRP382     -0.2867
     68  CB       -53.4380  -39.1520  -32.1930 C.3   382  TRP382      0.0550
     69  CG       -53.5810  -40.5660  -32.6560 C.ar  382  TRP382      0.0003
     70  CD1      -52.6860  -41.5820  -32.4980 C.ar  382  TRP382      0.0946
     71  CD2      -54.6920  -41.1170  -33.3540 C.ar  382  TRP382      0.0152
     72  NE1      -53.1720  -42.7330  -33.0550 N.ar  382  TRP382     -0.2442
     73  CE2      -54.4040  -42.4750  -33.5880 C.ar  382  TRP382      0.0810
     74  CE3      -55.9080  -40.5940  -33.8020 C.ar  382  TRP382      0.0012
     75  CZ2      -55.2810  -43.3160  -34.2510 C.ar  382  TRP382      0.0191
     76  CZ3      -56.7780  -41.4290  -34.4620 C.ar  382  TRP382      0.0001
     77  CH2      -56.4590  -42.7810  -34.6830 C.ar  382  TRP382      0.0015
     78  N        -58.2790  -40.2300  -25.9530 N.3   385  ASP385     -0.1239
     79  CA       -59.6900  -40.1100  -25.5930 C.3   385  ASP385      0.1674
     80  C        -60.5690  -41.3070  -26.0300 C.2   385  ASP385      0.2266
     81  O        -61.7970  -41.2680  -25.8690 O.2   385  ASP385     -0.2867
     82  CB       -60.2630  -38.7930  -26.1590 C.3   385  ASP385      0.1410
     83  CG       -60.0370  -38.6380  -27.6650 C.2   385  ASP385      0.3668
     84  OD1      -58.9080  -38.9050  -28.1090 O.co2 385  ASP385     -0.2456
     85  OD2      -60.9620  -38.2370  -28.4100 O.co2 385  ASP385     -0.2456
     86  N        -74.1510  -43.0360  -33.5440 N.3   394  HIS394     -0.1241
     87  CA       -74.0340  -41.6000  -33.7510 C.3   394  HIS394      0.1621
     88  C        -75.2790  -41.0700  -34.4300 C.2   394  HIS394      0.2264
     89  O        -75.8530  -41.7480  -35.2690 O.2   394  HIS394     -0.2867
     90  CB       -72.7830  -41.3090  -34.5740 C.3   394  HIS394      0.0745
     91  CG       -71.5190  -41.6960  -33.8680 C.ar  394  HIS394      0.0817
     92  ND1      -70.2660  -41.3670  -34.3390 N.ar  394  HIS394     -0.2268
     93  CD2      -71.3230  -42.3710  -32.7080 C.ar  394  HIS394      0.1154
     94  CE1      -69.3520  -41.8350  -33.5050 C.ar  394  HIS394      0.1986
     95  NE2      -69.9680  -42.4410  -32.5040 N.ar  394  HIS394     -0.2212
     96  N        -61.2660  -28.0030  -40.4530 N.3   489  LEU489     -0.1245
     97  CA       -62.0230  -28.8140  -41.3850 C.3   489  LEU489      0.1561
     98  C        -63.2570  -28.0500  -41.8010 C.2   489  LEU489      0.2260
     99  O        -63.9800  -27.5600  -40.9450 O.2   489  LEU489     -0.2867
    100  CB       -62.4140  -30.1230  -40.7260 C.3   489  LEU489      0.0270
    101  CG       -63.8840  -30.4480  -40.4950 C.3   489  LEU489      0.0019
    102  CD1      -64.3740  -31.3100  -41.6380 C.3   489  LEU489      0.0001
    103  CD2      -64.0490  -31.1790  -39.1840 C.3   489  LEU489      0.0001
    104  N        -66.8700  -27.2250  -44.3450 N.3   491  LYS491     -0.1245
    105  CA       -68.0560  -27.8260  -44.9380 C.3   491  LYS491      0.1561
    106  C        -68.5630  -26.9430  -46.0690 C.2   491  LYS491      0.2260
    107  O        -68.5240  -25.7090  -45.9700 O.2   491  LYS491     -0.2867
    108  CB       -69.1430  -28.0180  -43.8910 C.3   491  LYS491      0.0271
    109  CG       -68.7620  -29.0380  -42.8450 C.3   491  LYS491      0.0035
    110  CD       -69.8880  -29.3080  -41.8580 C.3   491  LYS491      0.0206
    111  CE       -69.3910  -30.1520  -40.6840 C.3   491  LYS491      0.1093
    112  NZ       -70.4530  -30.6260  -39.7400 N.3   491  LYS491     -0.1314
    113  N        -74.5010  -41.0660  -46.8610 N.3   507  LEU507     -0.1245
    114  CA       -73.1550  -40.5710  -47.0920 C.3   507  LEU507      0.1561
    115  C        -72.3960  -41.4420  -48.0710 C.2   507  LEU507      0.2260
    116  O        -72.6030  -42.6440  -48.1340 O.2   507  LEU507     -0.2867
    117  CB       -72.3830  -40.4730  -45.7730 C.3   507  LEU507      0.0270
    118  CG       -72.2160  -41.7230  -44.9110 C.3   507  LEU507      0.0019
    119  CD1      -71.2110  -41.4660  -43.8120 C.3   507  LEU507      0.0001
    120  CD2      -73.5180  -42.1510  -44.2760 C.3   507  LEU507      0.0001
    121  N        -65.8240  -36.4330  -49.2700 N.3   523  LEU523     -0.1245
    122  CA       -66.9750  -37.0440  -48.5930 C.3   523  LEU523      0.1561
    123  C        -68.2060  -36.1740  -48.7180 C.2   523  LEU523      0.2260
    124  O        -68.1190  -34.9510  -48.6460 O.2   523  LEU523     -0.2867
    125  CB       -66.6410  -37.3090  -47.1260 C.3   523  LEU523      0.0270
    126  CG       -67.6850  -37.9880  -46.2330 C.3   523  LEU523      0.0019
    127  CD1      -68.4150  -39.1190  -46.9340 C.3   523  LEU523      0.0001
    128  CD2      -67.0170  -38.5240  -44.9690 C.3   523  LEU523      0.0001
    129  N        -72.4960  -35.7680  -47.6970 N.3   525  TRP525     -0.1241
    130  CA       -73.5950  -36.1900  -46.8270 C.3   525  TRP525      0.1605
    131  C        -74.9220  -35.6530  -47.3180 C.2   525  TRP525      0.2264
    132  O        -75.0110  -34.4960  -47.7340 O.2   525  TRP525     -0.2867
    133  CB       -73.4200  -35.6640  -45.4050 C.3   525  TRP525      0.0550
    134  CG       -72.1300  -36.0030  -44.6910 C.ar  525  TRP525      0.0003
    135  CD1      -71.3500  -37.1130  -44.8510 C.ar  525  TRP525      0.0946
    136  CD2      -71.5090  -35.2300  -43.6560 C.ar  525  TRP525      0.0152
    137  NE1      -70.2680  -37.0620  -43.9970 N.ar  525  TRP525     -0.2442
    138  CE2      -70.3480  -35.9160  -43.2560 C.ar  525  TRP525      0.0810
    139  CE3      -71.8180  -34.0150  -43.0420 C.ar  525  TRP525      0.0012
    140  CZ2      -69.5090  -35.4320  -42.2710 C.ar  525  TRP525      0.0191
    141  CZ3      -70.9860  -33.5400  -42.0680 C.ar  525  TRP525      0.0001
    142  CH2      -69.8460  -34.2440  -41.6860 C.ar  525  TRP525      0.0015
    143  N        -78.0430  -35.7460  -44.9640 N.3   527  LEU527     -0.1245
    144  CA       -78.5810  -36.1730  -43.6720 C.3   527  LEU527      0.1561
    145  C        -79.8310  -35.4160  -43.2880 C.2   527  LEU527      0.2260
    146  O        -80.4830  -35.7510  -42.2940 O.2   527  LEU527     -0.2867
    147  CB       -77.5210  -36.0130  -42.5900 C.3   527  LEU527      0.0270
    148  CG       -76.3810  -37.0230  -42.7640 C.3   527  LEU527      0.0019
    149  CD1      -75.0390  -36.4030  -42.4230 C.3   527  LEU527      0.0001
    150  CD2      -76.6260  -38.2860  -41.9480 C.3   527  LEU527      0.0001
    151  N        -61.0860  -27.4050  -34.2040 N.3   591  TYR591     -0.1227
    152  CA       -60.9540  -27.9010  -32.8230 C.3   591  TYR591      0.1736
    153  C        -59.6120  -28.5160  -32.4950 C.2   591  TYR591      0.2596
    154  O        -58.8420  -28.8270  -33.3810 O.2   591  TYR591     -0.2718
    155  CB       -62.0460  -28.9010  -32.5000 C.3   591  TYR591      0.0548
    156  CG       -62.2840  -29.9550  -33.5310 C.ar  591  TYR591     -0.0200
    157  CD1      -61.5130  -31.1110  -33.5730 C.ar  591  TYR591     -0.0009
    158  CD2      -63.3240  -29.8290  -34.4240 C.ar  591  TYR591     -0.0009
    159  CE1      -61.7730  -32.1110  -34.4960 C.ar  591  TYR591      0.0417
    160  CE2      -63.5940  -30.8180  -35.3520 C.ar  591  TYR591      0.0417
    161  CZ       -62.8160  -31.9510  -35.3910 C.ar  591  TYR591      0.1957
    162  OH       -63.0930  -32.9100  -36.3280 O.3   591  TYR591     -0.2866
    163  N        -59.3470  -28.7010  -31.2110 N.am  592  SER592     -0.1938
    164  CA       -58.0460  -29.1700  -30.7670 C.3   592  SER592      0.2055
    165  C        -57.7490  -30.5790  -31.2310 C.2   592  SER592      0.2643
    166  O        -58.6480  -31.3490  -31.5360 O.2   592  SER592     -0.2714
    167  CB       -57.9560  -29.1660  -29.2480 C.3   592  SER592      0.2130
    168  OG       -58.9970  -29.9690  -28.7010 O.3   592  SER592     -0.2179
    169  N        -56.4630  -30.8910  -31.2700 N.am  593  TYR593     -0.1959
    170  CA       -55.9840  -32.2250  -31.5270 C.3   593  TYR593      0.1771
    171  C        -54.6520  -32.3530  -30.8310 C.2   593  TYR593      0.2619
    172  O        -53.9890  -31.3470  -30.5560 O.2   593  TYR593     -0.2715
    173  CB       -55.8070  -32.4460  -33.0100 C.3   593  TYR593      0.0574
    174  CG       -54.6520  -31.6900  -33.6570 C.ar  593  TYR593     -0.0198
    175  CD1      -53.3340  -32.1460  -33.5670 C.ar  593  TYR593     -0.0009
    176  CD2      -54.8890  -30.5470  -34.4110 C.ar  593  TYR593     -0.0009
    177  CE1      -52.2970  -31.4670  -34.1960 C.ar  593  TYR593      0.0417
    178  CE2      -53.8600  -29.8730  -35.0470 C.ar  593  TYR593      0.0417
    179  CZ       -52.5730  -30.3390  -34.9390 C.ar  593  TYR593      0.1957
    180  OH       -51.5780  -29.6440  -35.5660 O.3   593  TYR593     -0.2866
    181  N        -54.2380  -33.5800  -30.5490 N.am  594  VAL594     -0.1977
    182  CA       -53.0290  -33.7610  -29.7670 C.3   594  VAL594      0.1596
    183  C        -51.8730  -33.7330  -30.7330 C.2   594  VAL594      0.2287
    184  O        -51.5570  -34.7330  -31.3580 O.2   594  VAL594     -0.2864
    185  CB       -53.0200  -35.0760  -28.9790 C.3   594  VAL594      0.0276
    186  CG1      -51.9770  -35.0080  -27.8710 C.3   594  VAL594      0.0022
    187  CG2      -54.4000  -35.3650  -28.4110 C.3   594  VAL594      0.0022
    188  N        -53.9820  -30.5630  -21.9870 N.3   603  TYR603     -0.1241
    189  CA       -55.3920  -30.2960  -21.7010 C.3   603  TYR603      0.1605
    190  C        -55.6330  -29.9280  -20.2310 C.2   603  TYR603      0.2264
    191  O        -56.4390  -29.0570  -19.9420 O.2   603  TYR603     -0.2867
    192  CB       -56.2710  -31.4880  -22.0840 C.3   603  TYR603      0.0534
    193  CG       -56.4570  -31.6370  -23.5670 C.ar  603  TYR603     -0.0201
    194  CD1      -57.2020  -30.7190  -24.2680 C.ar  603  TYR603     -0.0009
    195  CD2      -55.8950  -32.6860  -24.2670 C.ar  603  TYR603     -0.0009
    196  CE1      -57.3870  -30.8280  -25.6350 C.ar  603  TYR603      0.0417
    197  CE2      -56.0750  -32.8080  -25.6360 C.ar  603  TYR603      0.0417
    198  CZ       -56.8270  -31.8720  -26.3160 C.ar  603  TYR603      0.1957
    199  OH       -57.0320  -31.9540  -27.6790 O.3   603  TYR603     -0.2866
    200  N        -62.1860  -33.9840  -25.4350 N.3   638  PRO638     -0.2102
    201  CA       -61.7610  -32.8650  -26.2580 C.3   638  PRO638      0.1504
    202  C        -62.5150  -32.7910  -27.5430 C.2   638  PRO638      0.2576
    203  O        -63.1190  -33.7670  -27.9870 O.2   638  PRO638     -0.2718
    204  CB       -60.3010  -33.1620  -26.5960 C.3   638  PRO638      0.0282
    205  CG       -59.9020  -34.2870  -25.7390 C.3   638  PRO638      0.0208
    206  CD       -61.1390  -35.0060  -25.3090 C.3   638  PRO638      0.0893
    207  N        -62.4200  -31.6180  -28.1350 N.am  639  ALA639     -0.1966
    208  CA       -62.9960  -31.3180  -29.4200 C.3   639  ALA639      0.1728
    209  C        -64.3850  -31.8450  -29.6430 C.2   639  ALA639      0.2616
    210  O        -64.6460  -32.4340  -30.6700 O.2   639  ALA639     -0.2715
    211  CB       -62.0790  -31.8230  -30.4980 C.3   639  ALA639      0.0334
    212  N        -65.2810  -31.6320  -28.6940 N.am  640  THR640     -0.1951
    213  CA       -66.6900  -31.9680  -28.8930 C.3   640  THR640      0.1897
    214  C        -67.5560  -31.0080  -28.1320 C.2   640  THR640      0.2313
    215  O        -67.0880  -30.2720  -27.2810 O.2   640  THR640     -0.2863
    216  CB       -67.0440  -33.3450  -28.3280 C.3   640  THR640      0.1794
    217  OG1      -67.0890  -33.2680  -26.8980 O.3   640  THR640     -0.2208
    218  CG2      -66.0380  -34.3880  -28.7530 C.3   640  THR640      0.0378
@<TRIPOS>BOND
     1   121   122    1
     2   123   124    2
     3   123   122    1
     4   122   125    1
     5   116   115    2
     6   115   114    1
     7   132   131    2
     8   129   130    1
     9   131   130    1
    10   125   126    1
    11   114   113    1
    12   114   117    1
    13   127   126    1
    14   130   133    1
    15   126   128    1
    16   106   107    2
    17   106   105    1
    18   117   118    1
    19   133   134    1
    20   143   144    1
    21   105   104    1
    22   105   108    1
    23   118   120    1
    24   118   119    1
    25   135   134   ar
    26   135   137   ar
    27   134   136   ar
    28   137   138   ar
    29   108   109    1
    30   144   145    1
    31   144   147    1
    32   136   138   ar
    33   136   139   ar
    34    34    33    2
    35   145   146    2
    36   138   140   ar
    37    33    32    1
    38   139   141   ar
    39   109   110    1
    40   148   147    1
    41   148   149    1
    42   148   150    1
    43   140   142   ar
    44    44    45    1
    45    44    41    1
    46   141   142   ar
    47   110   111    1
    48    98    97    1
    49    98    99    2
    50    32    31    1
    51    32    35    1
    52   102   101    1
    53    45    46   ar
    54    45    47   ar
    55    40    41    1
    56    46    48   ar
    57    97   100    1
    58    97    96    1
    59    41    42    1
    60    47    49   ar
    61    48    50   ar
    62   100   101    1
    63    49    50   ar
    64   111   112    1
    65    35    36    1
    66   101   103    1
    67    29    27    1
    68     7     8    1
    69     7     6    1
    70    25    24    1
    71    25    26    2
    72    42    51   am
    73    42    43    2
    74    24    27    1
    75    24    23    1
    76    38    37    2
    77    51    52    1
    78    36    37    1
    79    27    28    1
    80    37    39   am
    81    28    30    1
    82     6     5    1
    83    52    55    1
    84    52    53    1
    85     5     2    1
    86    56    53   am
    87    56    57    1
    88    53    54    2
    89    58    57    1
    90    58    59    2
    91    15    13    1
    92   162   161    1
    93    63    61   am
    94    57    60    1
    95     2     1    1
    96     2     3    1
    97    60    61    1
    98   180   179    1
    99     4     3    2
   100     3     9   am
   101    61    62    2
   102   161   160   ar
   103   161   159   ar
   104   160   158   ar
   105    89    88    2
   106    13    14    1
   107    13    10    1
   108   178   179   ar
   109   178   176   ar
   110   179   177   ar
   111     9    10    1
   112    77    76   ar
   113    77    75   ar
   114    90    91    1
   115    90    87    1
   116   159   157   ar
   117    10    11    1
   118    76    74   ar
   119    88    87    1
   120   158   156   ar
   121   176   174   ar
   122    92    91   ar
   123    92    94   ar
   124    75    73   ar
   125   151   152    1
   126   177   175   ar
   127    91    93   ar
   128    74    71   ar
   129    87    86    1
   130   174   175   ar
   131   174   173    1
   132    73    71   ar
   133    73    72   ar
   134   157   156   ar
   135   156   155    1
   136    94    95   ar
   137   154   153    2
   138    71    69   ar
   139    72    70   ar
   140   173   170    1
   141    11    12    2
   142   152   155    1
   143   152   153    1
   144    93    95   ar
   145    69    70   ar
   146    69    68    1
   147   153   163   am
   148    68    65    1
   149    22    20    1
   150   166   165    2
   151   170   169    1
   152   170   171    1
   153   184   183    2
   154   169   165   am
   155   165   164    1
   156   163   164    1
   157   171   172    2
   158   171   181   am
   159   164   167    1
   160   183   182    1
   161    17    20    1
   162    17    16    1
   163    17    18    1
   164    65    66    1
   165    65    64    1
   166   210   209    2
   167    20    21    1
   168   181   182    1
   169    67    66    2
   170   211   208    1
   171   182   185    1
   172    18    19    2
   173   209   208    1
   174   209   212   am
   175   208   207    1
   176   167   168    1
   177   185   187    1
   178   185   186    1
   179   213   212    1
   180   213   216    1
   181   213   214    1
   182   218   216    1
   183    85    83   ar
   184   216   217    1
   185   207   202   am
   186   214   215    2
   187    84    83   ar
   188   203   202    2
   189   199   198    1
   190    83    82    1
   191   202   201    1
   192   204   201    1
   193   204   205    1
   194   198   197   ar
   195   198   196   ar
   196   201   200    1
   197    82    79    1
   198    80    81    2
   199    80    79    1
   200    78    79    1
   201   205   206    1
   202   197   195   ar
   203   196   194   ar
   204   200   206    1
   205   194   193   ar
   206   195   193   ar
   207   193   192    1
   208   192   189    1
   209   188   189    1
   210   189   190    1
   211   190   191    2
