@<TRIPOS>MOLECULE
tmp/5lguA01.pdb
 216 209 0 0 0
SMALL
GASTEIGER

@<TRIPOS>ATOM
      1  N        -10.3930   62.2950   82.9340 N.3   161  ALA161     -0.1231
      2  CA       -10.7520   61.0040   83.5020 C.3   161  ALA161      0.1694
      3  C        -12.0450   60.4640   82.9320 C.2   161  ALA161      0.2592
      4  O        -12.9720   61.2330   82.6690 O.2   161  ALA161     -0.2718
      5  CB       -10.8520   61.1000   85.0140 C.3   161  ALA161      0.0304
      6  N        -12.0920   59.1460   82.7370 N.am  162  MET162     -0.1965
      7  CA       -13.2730   58.4870   82.1840 C.3   162  MET162      0.1736
      8  C        -13.6280   57.1500   82.8080 C.2   162  MET162      0.2616
      9  O        -14.7280   56.6710   82.6120 O.2   162  MET162     -0.2715
     10  CB       -13.0420   58.2480   80.7050 C.3   162  MET162      0.0427
     11  CG       -14.2900   57.9460   79.8990 C.3   162  MET162      0.0599
     12  SD       -13.8010   57.3580   78.2690 S.3   162  MET162     -0.1393
     13  CE       -13.3400   55.6760   78.6740 C.3   162  MET162      0.0692
     14  N        -12.7190   56.5400   83.5510 N.am  163  VAL163     -0.1977
     15  CA       -12.9180   55.1710   83.9810 C.3   163  VAL163      0.1596
     16  C        -12.8560   54.9940   85.4940 C.2   163  VAL163      0.2287
     17  O        -11.9870   55.5590   86.1870 O.2   163  VAL163     -0.2864
     18  CB       -11.8780   54.2510   83.3260 C.3   163  VAL163      0.0276
     19  CG1      -12.0160   52.8230   83.8340 C.3   163  VAL163      0.0022
     20  CG2      -12.0260   54.3020   81.8160 C.3   163  VAL163      0.0022
     21  N        -11.9190   52.2650   87.9100 N.3   165  THR165     -0.1218
     22  CA       -11.1420   51.0470   87.7200 C.3   165  THR165      0.1862
     23  C        -11.4870   49.9970   88.7540 C.2   165  THR165      0.2287
     24  O        -10.6410   49.5970   89.5640 O.2   165  THR165     -0.2866
     25  CB        -9.6410   51.3290   87.7750 C.3   165  THR165      0.1770
     26  OG1       -9.2510   51.5930   89.1250 O.3   165  THR165     -0.2211
     27  CG2       -9.2960   52.5190   86.8990 C.3   165  THR165      0.0375
     28  N        -16.9430   47.6570   79.9790 N.3   186  ILE186     -0.1245
     29  CA       -16.1740   47.7800   78.7590 C.3   186  ILE186      0.1561
     30  C        -15.8980   46.3940   78.1800 C.2   186  ILE186      0.2260
     31  O        -15.3990   45.5120   78.8780 O.2   186  ILE186     -0.2867
     32  CB       -14.8570   48.5080   79.0310 C.3   186  ILE186      0.0252
     33  CG1      -15.1380   49.8640   79.6730 C.3   186  ILE186      0.0019
     34  CG2      -14.0810   48.7070   77.7390 C.3   186  ILE186      0.0019
     35  CD1      -13.9040   50.7240   79.8590 C.3   186  ILE186      0.0001
     36  N        -13.8820   43.8160   76.2650 N.3   188  GLN188     -0.1245
     37  CA       -12.4280   43.7390   76.1290 C.3   188  GLN188      0.1566
     38  C        -11.9230   43.5670   74.6940 C.2   188  GLN188      0.2260
     39  O        -10.7870   43.9290   74.4030 O.2   188  GLN188     -0.2867
     40  CB       -11.8640   42.6220   77.0250 C.3   188  GLN188      0.0367
     41  CG       -12.1700   42.7890   78.5140 C.3   188  GLN188      0.0905
     42  CD       -11.9170   44.2050   79.0350 C.2   188  GLN188      0.2608
     43  OE1      -10.8500   44.7770   78.8190 O.2   188  GLN188     -0.2717
     44  NE2      -12.9040   44.7750   79.7250 N.am  188  GLN188     -0.0878
     45  N          0.3450   54.4060   76.7310 N.3   368  PHE368     -0.1227
     46  CA        -0.9450   55.0100   76.9500 C.3   368  PHE368      0.1736
     47  C         -1.3370   54.9320   78.4160 C.2   368  PHE368      0.2595
     48  O         -1.5540   55.9490   79.0440 O.2   368  PHE368     -0.2718
     49  CB        -1.9800   54.3460   76.0580 C.3   368  PHE368      0.0547
     50  CG        -3.3540   54.2920   76.6450 C.ar  368  PHE368     -0.0202
     51  CD1       -4.0710   55.4490   76.8600 C.ar  368  PHE368     -0.0042
     52  CD2       -3.9470   53.0640   76.9500 C.ar  368  PHE368     -0.0042
     53  CE1       -5.3510   55.3870   77.3910 C.ar  368  PHE368     -0.0003
     54  CE2       -5.2290   52.9950   77.4760 C.ar  368  PHE368     -0.0003
     55  CZ        -5.9330   54.1610   77.6980 C.ar  368  PHE368     -0.0000
     56  N         -1.3930   53.7340   78.9690 N.am  369  ALA369     -0.1966
     57  CA        -1.8530   53.5450   80.3470 C.3   369  ALA369      0.1728
     58  C         -1.0860   54.3640   81.3670 C.2   369  ALA369      0.2616
     59  O         -1.6810   54.8790   82.3080 O.2   369  ALA369     -0.2715
     60  CB        -1.7670   52.0800   80.7290 C.3   369  ALA369      0.0334
     61  N          0.2290   54.4660   81.1920 N.am  370  ASN370     -0.1972
     62  CA         1.0770   55.1920   82.1420 C.3   370  ASN370      0.1688
     63  C          1.3810   56.5980   81.7080 C.2   370  ASN370      0.2292
     64  O          2.0610   57.3360   82.4220 O.2   370  ASN370     -0.2864
     65  CB         2.3760   54.4440   82.3520 C.3   370  ASN370      0.1181
     66  CG         2.1400   53.0530   82.8480 C.2   370  ASN370      0.2629
     67  OD1        1.8630   52.8480   84.0330 O.2   370  ASN370     -0.2716
     68  ND2        2.2000   52.0860   81.9430 N.am  370  ASN370     -0.0877
     69  N          7.6920   51.1420   88.4400 N.3   382  TRP382     -0.1241
     70  CA         6.5320   51.6570   87.7170 C.3   382  TRP382      0.1605
     71  C          5.1830   51.0410   88.1180 C.2   382  TRP382      0.2264
     72  O          4.1720   51.7300   88.1930 O.2   382  TRP382     -0.2867
     73  CB         6.7460   51.5060   86.2180 C.3   382  TRP382      0.0550
     74  CG         6.6440   50.1180   85.7310 C.ar  382  TRP382      0.0003
     75  CD1        7.5970   49.1510   85.7900 C.ar  382  TRP382      0.0946
     76  CD2        5.5140   49.5340   85.0900 C.ar  382  TRP382      0.0152
     77  NE1        7.1270   47.9930   85.2250 N.ar  382  TRP382     -0.2442
     78  CE2        5.8480   48.2030   84.7900 C.ar  382  TRP382      0.0810
     79  CE3        4.2470   50.0110   84.7390 C.ar  382  TRP382      0.0012
     80  CZ2        4.9660   47.3420   84.1630 C.ar  382  TRP382      0.0191
     81  CZ3        3.3710   49.1550   84.1100 C.ar  382  TRP382      0.0001
     82  CH2        3.7360   47.8340   83.8260 C.ar  382  TRP382      0.0015
     83  N          1.9150   50.2430   92.3460 N.3   385  ASP385     -0.1239
     84  CA         0.5160   50.3450   92.7590 C.3   385  ASP385      0.1674
     85  C         -0.3490   49.1670   92.3220 C.2   385  ASP385      0.2266
     86  O         -1.5690   49.1860   92.5330 O.2   385  ASP385     -0.2867
     87  CB        -0.0970   51.6300   92.1970 C.3   385  ASP385      0.1410
     88  CG         0.4010   51.9550   90.8000 C.2   385  ASP385      0.3668
     89  OD1        1.5200   52.5230   90.6780 O.co2 385  ASP385     -0.2456
     90  OD2       -0.3160   51.6410   89.8330 O.co2 385  ASP385     -0.2456
     91  N        -13.9160   47.3880   84.9240 N.3   394  HIS394     -0.1241
     92  CA       -13.7000   48.8030   84.6950 C.3   394  HIS394      0.1621
     93  C        -14.9090   49.3280   83.9430 C.2   394  HIS394      0.2264
     94  O        -15.3590   48.7070   82.9810 O.2   394  HIS394     -0.2867
     95  CB       -12.4250   49.0170   83.8700 C.3   394  HIS394      0.0745
     96  CG       -11.1710   48.6140   84.5810 C.ar  394  HIS394      0.0817
     97  ND1       -9.9160   48.9030   84.0890 N.ar  394  HIS394     -0.2268
     98  CD2      -10.9800   47.9630   85.7550 C.ar  394  HIS394      0.1154
     99  CE1       -9.0050   48.4350   84.9250 C.ar  394  HIS394      0.1986
    100  NE2       -9.6240   47.8640   85.9450 N.ar  394  HIS394     -0.2212
    101  N         -0.9310   62.4180   77.8520 N.3   489  LEU489     -0.1245
    102  CA        -1.7780   61.5060   77.1060 C.3   489  LEU489      0.1561
    103  C         -2.9710   62.3130   76.6480 C.2   489  LEU489      0.2260
    104  O         -3.5770   63.0070   77.4540 O.2   489  LEU489     -0.2867
    105  CB        -2.2290   60.3600   78.0090 C.3   489  LEU489      0.0270
    106  CG        -3.6580   59.8150   77.8480 C.3   489  LEU489      0.0019
    107  CD1       -3.8780   59.1800   76.4850 C.3   489  LEU489      0.0001
    108  CD2       -3.9410   58.8100   78.9470 C.3   489  LEU489      0.0001
    109  N         -6.6280   63.0200   74.0700 N.3   491  LYS491     -0.1245
    110  CA        -7.8260   62.4640   73.4050 C.3   491  LYS491      0.1561
    111  C         -8.3450   63.3380   72.2540 C.2   491  LYS491      0.2260
    112  O         -8.2520   64.5700   72.3010 O.2   491  LYS491     -0.2867
    113  CB        -8.9430   62.2460   74.4290 C.3   491  LYS491      0.0271
    114  CG        -8.5320   61.3130   75.5560 C.3   491  LYS491      0.0035
    115  CD        -9.6180   61.0660   76.5980 C.3   491  LYS491      0.0206
    116  CE        -9.1780   59.9510   77.5450 C.3   491  LYS491      0.1093
    117  NZ       -10.1490   59.5630   78.6060 N.3   491  LYS491     -0.1314
    118  N        -14.0580   49.1220   71.2390 N.3   507  LEU507     -0.1245
    119  CA       -12.7460   49.6630   70.9570 C.3   507  LEU507      0.1561
    120  C        -11.9810   48.8040   69.9640 C.2   507  LEU507      0.2260
    121  O        -12.0580   47.5820   69.9780 O.2   507  LEU507     -0.2867
    122  CB       -11.9380   49.8120   72.2440 C.3   507  LEU507      0.0270
    123  CG       -11.6680   48.5520   73.0630 C.3   507  LEU507      0.0019
    124  CD1      -10.5590   48.7970   74.0620 C.3   507  LEU507      0.0001
    125  CD2      -12.9090   48.1050   73.8000 C.3   507  LEU507      0.0001
    126  N         -5.4160   53.8380   68.8890 N.3   523  LEU523     -0.1245
    127  CA        -6.5830   53.1830   69.4740 C.3   523  LEU523      0.1561
    128  C         -7.8220   54.0830   69.4350 C.2   523  LEU523      0.2260
    129  O         -7.7120   55.3090   69.5690 O.2   523  LEU523     -0.2867
    130  CB        -6.2550   52.7890   70.9050 C.3   523  LEU523      0.0270
    131  CG        -7.4130   52.3300   71.7830 C.3   523  LEU523      0.0019
    132  CD1       -8.0470   51.0710   71.2180 C.3   523  LEU523      0.0001
    133  CD2       -6.9260   52.0970   73.2090 C.3   523  LEU523      0.0001
    134  N        -12.2610   54.5940   70.3840 N.3   525  TRP525     -0.1241
    135  CA       -13.2990   54.2750   71.3720 C.3   525  TRP525      0.1605
    136  C        -14.7170   54.6810   70.9650 C.2   525  TRP525      0.2264
    137  O        -15.0370   55.8770   70.8590 O.2   525  TRP525     -0.2867
    138  CB       -13.0230   55.0080   72.6820 C.3   525  TRP525      0.0550
    139  CG       -11.8420   54.5720   73.4980 C.ar  525  TRP525      0.0003
    140  CD1      -11.1570   53.3990   73.4140 C.ar  525  TRP525      0.0946
    141  CD2      -11.2490   55.3080   74.5770 C.ar  525  TRP525      0.0152
    142  NE1      -10.1560   53.3700   74.3560 N.ar  525  TRP525     -0.2442
    143  CE2      -10.1950   54.5320   75.0830 C.ar  525  TRP525      0.0810
    144  CE3      -11.5070   56.5560   75.1600 C.ar  525  TRP525      0.0012
    145  CZ2       -9.3940   54.9640   76.1410 C.ar  525  TRP525      0.0191
    146  CZ3      -10.7140   56.9800   76.2110 C.ar  525  TRP525      0.0001
    147  CH2       -9.6710   56.1870   76.6910 C.ar  525  TRP525      0.0015
    148  N        -17.6020   54.3970   73.0570 N.3   527  LEU527     -0.1245
    149  CA       -18.0700   54.0640   74.4030 C.3   527  LEU527      0.1561
    150  C        -19.3050   54.8110   74.8490 C.2   527  LEU527      0.2260
    151  O        -19.7870   54.6000   75.9630 O.2   527  LEU527     -0.2867
    152  CB       -16.9530   54.3090   75.3960 C.3   527  LEU527      0.0270
    153  CG       -15.9920   53.1310   75.4030 C.3   527  LEU527      0.0019
    154  CD1      -14.6120   53.5800   75.8480 C.3   527  LEU527      0.0001
    155  CD2      -16.5310   52.0120   76.2890 C.3   527  LEU527      0.0001
    156  N         -0.9570   63.0530   84.1370 N.3   591  TYR591     -0.1227
    157  CA        -0.8530   62.5250   85.5070 C.3   591  TYR591      0.1736
    158  C          0.5060   61.8870   85.7920 C.2   591  TYR591      0.2596
    159  O          1.2810   61.6390   84.8790 O.2   591  TYR591     -0.2718
    160  CB        -1.9730   61.5330   85.7880 C.3   591  TYR591      0.0548
    161  CG        -2.1540   60.4400   84.7680 C.ar  591  TYR591     -0.0200
    162  CD1       -1.4580   59.2460   84.8670 C.ar  591  TYR591     -0.0009
    163  CD2       -3.0600   60.5770   83.7360 C.ar  591  TYR591     -0.0009
    164  CE1       -1.6470   58.2200   83.9550 C.ar  591  TYR591      0.0417
    165  CE2       -3.2590   59.5600   82.8130 C.ar  591  TYR591      0.0417
    166  CZ        -2.5510   58.3800   82.9280 C.ar  591  TYR591      0.1957
    167  OH        -2.7400   57.3650   82.0140 O.3   591  TYR591     -0.2866
    168  N          0.7880   61.6030   87.0540 N.am  592  SER592     -0.1938
    169  CA         2.1300   61.2100   87.4450 C.3   592  SER592      0.2055
    170  C          2.4880   59.7870   87.0590 C.2   592  SER592      0.2643
    171  O          1.6240   58.9530   86.8070 O.2   592  SER592     -0.2714
    172  CB         2.2990   61.3410   88.9480 C.3   592  SER592      0.2130
    173  OG         1.3660   60.4960   89.6140 O.3   592  SER592     -0.2179
    174  N          3.7890   59.5260   87.0290 N.am  593  TYR593     -0.1973
    175  CA         4.3150   58.1990   86.7810 C.3   593  TYR593      0.1639
    176  C          5.6170   58.0610   87.4970 C.2   593  TYR593      0.2290
    177  O          6.3460   59.0380   87.6090 O.2   593  TYR593     -0.2864
    178  CB         4.5400   57.9720   85.2980 C.3   593  TYR593      0.0560
    179  CG         5.6390   58.7800   84.6580 C.ar  593  TYR593     -0.0198
    180  CD1        6.9600   58.3490   84.6830 C.ar  593  TYR593     -0.0009
    181  CD2        5.3440   59.9500   83.9630 C.ar  593  TYR593     -0.0009
    182  CE1        7.9600   59.0790   84.0530 C.ar  593  TYR593      0.0417
    183  CE2        6.3300   60.6850   83.3290 C.ar  593  TYR593      0.0417
    184  CZ         7.6330   60.2420   83.3740 C.ar  593  TYR593      0.1957
    185  OH         8.6040   60.9760   82.7510 O.3   593  TYR593     -0.2866
    186  N          6.2210   59.9200   96.4610 N.3   603  TYR603     -0.1241
    187  CA         4.8180   60.2360   96.7060 C.3   603  TYR603      0.1605
    188  C          4.5480   60.5870   98.1810 C.2   603  TYR603      0.2264
    189  O          3.7440   61.4750   98.4800 O.2   603  TYR603     -0.2867
    190  CB         3.9160   59.0760   96.2910 C.3   603  TYR603      0.0534
    191  CG         3.7280   58.9220   94.8000 C.ar  603  TYR603     -0.0201
    192  CD1        3.3340   59.9840   94.0220 C.ar  603  TYR603     -0.0009
    193  CD2        3.9010   57.7080   94.1740 C.ar  603  TYR603     -0.0009
    194  CE1        3.1310   59.8540   92.6580 C.ar  603  TYR603      0.0417
    195  CE2        3.7010   57.5720   92.8130 C.ar  603  TYR603      0.0417
    196  CZ         3.3120   58.6530   92.0580 C.ar  603  TYR603      0.1957
    197  OH         3.1070   58.5530   90.6950 O.3   603  TYR603     -0.2866
    198  N         -1.8770   56.4330   93.0810 N.3   638  PRO638     -0.2102
    199  CA        -1.5120   57.5970   92.3160 C.3   638  PRO638      0.1504
    200  C         -2.1700   57.6470   90.9750 C.2   638  PRO638      0.2576
    201  O         -2.6010   56.6370   90.4270 O.2   638  PRO638     -0.2718
    202  CB         0.0040   57.4630   92.1350 C.3   638  PRO638      0.0282
    203  CG         0.2770   56.0270   92.2650 C.3   638  PRO638      0.0208
    204  CD        -0.7570   55.4940   93.2240 C.3   638  PRO638      0.0893
    205  N         -2.2290   58.8580   90.4730 N.am  639  ALA639     -0.1966
    206  CA        -2.6820   59.1430   89.1400 C.3   639  ALA639      0.1728
    207  C         -4.1030   58.7180   88.8260 C.2   639  ALA639      0.2616
    208  O         -4.4350   58.5200   87.6730 O.2   639  ALA639     -0.2715
    209  CB        -1.7040   58.5770   88.1430 C.3   639  ALA639      0.0334
    210  N         -4.9550   58.6200   89.8360 N.am  640  THR640     -0.1951
    211  CA        -6.3550   58.2910   89.5970 C.3   640  THR640      0.1897
    212  C         -7.2490   59.3470   90.2110 C.2   640  THR640      0.2313
    213  O         -6.7700   60.2560   90.8950 O.2   640  THR640     -0.2863
    214  CB        -6.7080   56.9640   90.2490 C.3   640  THR640      0.1794
    215  OG1       -6.7160   57.1420   91.6670 O.3   640  THR640     -0.2208
    216  CG2       -5.6860   55.9080   89.8840 C.3   640  THR640      0.0378
@<TRIPOS>BOND
     1   126   127    1
     2   128   127    1
     3   128   129    2
     4   127   130    1
     5   120   121    2
     6   120   119    1
     7   134   135    1
     8   137   136    2
     9   130   131    1
    10   119   118    1
    11   119   122    1
    12   136   135    1
    13   132   131    1
    14   135   138    1
    15   131   133    1
    16   122   123    1
    17   111   112    2
    18   111   110    1
    19   138   139    1
    20   148   149    1
    21   123   125    1
    22   123   124    1
    23   110   109    1
    24   110   113    1
    25   140   139   ar
    26   140   142   ar
    27   139   141   ar
    28   142   143   ar
    29    39    38    2
    30   149   150    1
    31   149   152    1
    32   113   114    1
    33   141   143   ar
    34   141   144   ar
    35    38    37    1
    36   150   151    2
    37   143   145   ar
    38   144   146   ar
    39   152   153    1
    40   153   154    1
    41   153   155    1
    42   114   115    1
    43    49    50    1
    44    49    46    1
    45    37    36    1
    46    37    40    1
    47   145   147   ar
    48   146   147   ar
    49   107   106    1
    50   115   116    1
    51    50    51   ar
    52    50    52   ar
    53   103   102    1
    54   103   104    2
    55    45    46    1
    56    51    53   ar
    57    52    54   ar
    58    46    47    1
    59    40    41    1
    60   102   101    1
    61   102   105    1
    62    53    55   ar
    63    54    55   ar
    64   116   117    1
    65    34    32    1
    66   106   105    1
    67   106   108    1
    68    30    29    1
    69    30    31    2
    70    12    13    1
    71    12    11    1
    72    47    56   am
    73    47    48    2
    74    41    42    1
    75    29    32    1
    76    29    28    1
    77    43    42    2
    78    56    57    1
    79    32    33    1
    80    42    44   am
    81    33    35    1
    82    11    10    1
    83    57    60    1
    84    57    58    1
    85    10     7    1
    86    61    58   am
    87    61    62    1
    88    58    59    2
    89    63    62    1
    90    63    64    2
    91    20    18    1
    92    68    66   am
    93   167   166    1
    94    62    65    1
    95     7     6    1
    96     7     8    1
    97    65    66    1
    98     9     8    2
    99     4     3    2
   100     6     3   am
   101   185   184    1
   102     8    14   am
   103   165   166   ar
   104   165   163   ar
   105    66    67    2
   106   166   164   ar
   107     3     2    1
   108     1     2    1
   109    94    93    2
   110    18    19    1
   111    18    15    1
   112   183   184   ar
   113   183   181   ar
   114   184   182   ar
   115     2     5    1
   116    14    15    1
   117   163   161   ar
   118    82    81   ar
   119    82    80   ar
   120    95    96    1
   121    95    92    1
   122    93    92    1
   123   164   162   ar
   124   181   179   ar
   125    15    16    1
   126   182   180   ar
   127    97    96   ar
   128    97    99   ar
   129    81    79   ar
   130   156   157    1
   131    80    78   ar
   132    96    98   ar
   133   179   180   ar
   134   179   178    1
   135    92    91    1
   136    79    76   ar
   137   161   162   ar
   138   161   160    1
   139    78    76   ar
   140    78    77   ar
   141   159   158    2
   142    99   100   ar
   143    76    74   ar
   144    77    75   ar
   145   178   175    1
   146    16    17    2
   147   157   160    1
   148   157   158    1
   149    74    75   ar
   150    74    73    1
   151    98   100   ar
   152   158   168   am
   153    73    70    1
   154   175   174    1
   155   175   176    1
   156   171   170    2
   157    27    25    1
   158   174   170   am
   159   168   169    1
   160   170   169    1
   161   169   172    1
   162   176   177    2
   163   208   207    2
   164    70    71    1
   165    70    69    1
   166    22    25    1
   167    22    21    1
   168    22    23    1
   169    25    26    1
   170    71    72    2
   171   209   206    1
   172    23    24    2
   173   207   206    1
   174   207   210   am
   175   172   173    1
   176   206   205    1
   177   211   210    1
   178   211   212    1
   179   211   214    1
   180    90    88   ar
   181   216   214    1
   182   212   213    2
   183   214   215    1
   184   201   200    2
   185   205   200   am
   186    89    88   ar
   187   197   196    1
   188    88    87    1
   189   200   199    1
   190   196   194   ar
   191   196   195   ar
   192   202   203    1
   193   202   199    1
   194    87    84    1
   195   203   204    1
   196   199   198    1
   197    85    86    2
   198    85    84    1
   199    83    84    1
   200   194   192   ar
   201   195   193   ar
   202   198   204    1
   203   192   191   ar
   204   193   191   ar
   205   191   190    1
   206   190   187    1
   207   186   187    1
   208   187   188    1
   209   188   189    2
