@<TRIPOS>MOLECULE
tmp/5lgvB02.pdb
 103 103 0 0 0
SMALL
GASTEIGER

@<TRIPOS>ATOM
      1  N         31.7240  -37.3740  -31.2660 N.3   338  ASN338     -0.1226
      2  CA        30.9990  -37.1900  -30.0040 C.3   338  ASN338      0.1770
      3  C         30.3320  -38.5540  -29.7880 C.2   338  ASN338      0.2439
      4  O         29.1140  -38.6830  -29.9390 O.2   338  ASN338     -0.2733
      5  CB        29.9970  -36.0200  -30.0970 C.3   338  ASN338      0.1168
      6  CG        30.0440  -35.0990  -28.8780 C.2   338  ASN338      0.2627
      7  OD1       29.8480  -35.5330  -27.7390 O.2   338  ASN338     -0.2716
      8  ND2       30.3080  -33.8180  -29.1180 N.am  338  ASN338     -0.0877
      9  N         31.1480  -39.5840  -29.4700 N.am  339  PRO339     -0.2718
     10  CA        30.7820  -40.9950  -29.6850 C.3   339  PRO339      0.1520
     11  C         29.3890  -41.4000  -29.1220 C.2   339  PRO339      0.2440
     12  O         29.0210  -40.9310  -28.0370 O.2   339  PRO339     -0.2731
     13  CB        31.9160  -41.7610  -28.9840 C.3   339  PRO339      0.0310
     14  CG        32.4790  -40.7880  -28.0020 C.3   339  PRO339      0.0237
     15  CD        32.3960  -39.4670  -28.6940 C.3   339  PRO339      0.0939
     16  N         28.6140  -42.2380  -29.8310 N.am  340  PRO340     -0.2716
     17  CA        29.0000  -42.8910  -31.1000 C.3   340  PRO340      0.1536
     18  C         28.7330  -42.0780  -32.4040 C.2   340  PRO340      0.2598
     19  O         28.8940  -42.6300  -33.5000 O.2   340  PRO340     -0.2715
     20  CB        28.1610  -44.1760  -31.0740 C.3   340  PRO340      0.0310
     21  CG        26.9260  -43.8060  -30.2940 C.3   340  PRO340      0.0237
     22  CD        27.2410  -42.6060  -29.4290 C.3   340  PRO340      0.0939
     23  N         28.3350  -40.8020  -32.2850 N.am  341  LYS341     -0.1978
     24  CA        28.1690  -39.9020  -33.4470 C.3   341  LYS341      0.1596
     25  C         29.5160  -39.5020  -34.0580 C.2   341  LYS341      0.2287
     26  O         30.3330  -38.8410  -33.4080 O.2   341  LYS341     -0.2864
     27  CB        27.4110  -38.6180  -33.0610 C.3   341  LYS341      0.0298
     28  CG        25.9330  -38.8390  -32.7530 C.3   341  LYS341      0.0038
     29  CD        25.4260  -37.9580  -31.6160 C.3   341  LYS341      0.0206
     30  CE        24.3350  -38.6480  -30.8070 C.3   341  LYS341      0.1093
     31  NZ        23.0200  -38.7140  -31.5030 N.3   341  LYS341     -0.1314
     32  N         31.5790  -37.3480  -36.9970 N.3   343  TYR343     -0.1241
     33  CA        31.4440  -36.1420  -37.8190 C.3   343  TYR343      0.1605
     34  C         32.5380  -36.0670  -38.9070 C.2   343  TYR343      0.2264
     35  O         33.4560  -35.2460  -38.8390 O.2   343  TYR343     -0.2867
     36  CB        31.4780  -34.8820  -36.9530 C.3   343  TYR343      0.0534
     37  CG        30.5490  -34.8440  -35.7520 C.ar  343  TYR343     -0.0201
     38  CD1       29.2060  -35.2290  -35.8480 C.ar  343  TYR343     -0.0009
     39  CD2       31.0040  -34.3500  -34.5240 C.ar  343  TYR343     -0.0009
     40  CE1       28.3620  -35.1660  -34.7420 C.ar  343  TYR343      0.0417
     41  CE2       30.1700  -34.2680  -33.4220 C.ar  343  TYR343      0.0417
     42  CZ        28.8530  -34.6780  -33.5230 C.ar  343  TYR343      0.1957
     43  OH        28.0470  -34.5920  -32.4040 O.3   343  TYR343     -0.2866
     44  N         31.0130  -27.3970  -24.8470 N.3   383  HIS383     -0.1241
     45  CA        31.7180  -28.3730  -24.0260 C.3   383  HIS383      0.1621
     46  C         32.8560  -29.1080  -24.6900 C.2   383  HIS383      0.2264
     47  O         33.5370  -29.8530  -24.0030 O.2   383  HIS383     -0.2867
     48  CB        30.7400  -29.4030  -23.4320 C.3   383  HIS383      0.0745
     49  CG        29.9850  -30.1740  -24.4500 C.ar  383  HIS383      0.0817
     50  ND1       28.9710  -29.6250  -25.2020 N.ar  383  HIS383     -0.2268
     51  CD2       30.0860  -31.4610  -24.8410 C.ar  383  HIS383      0.1154
     52  CE1       28.4860  -30.5360  -26.0210 C.ar  383  HIS383      0.1986
     53  NE2       29.1510  -31.6590  -25.8270 N.ar  383  HIS383     -0.2212
     54  N         24.5870  -30.2790  -24.3530 N.3   411  PHE411     -0.1241
     55  CA        23.9900  -31.5560  -23.9990 C.3   411  PHE411      0.1605
     56  C         25.1100  -32.5010  -23.5180 C.2   411  PHE411      0.2264
     57  O         25.6220  -33.3190  -24.2940 O.2   411  PHE411     -0.2867
     58  CB        23.2840  -32.1220  -25.2250 C.3   411  PHE411      0.0534
     59  CG        22.1180  -31.3060  -25.6850 C.ar  411  PHE411     -0.0203
     60  CD1       20.9500  -31.2740  -24.9310 C.ar  411  PHE411     -0.0042
     61  CD2       22.1890  -30.5670  -26.8650 C.ar  411  PHE411     -0.0042
     62  CE1       19.8630  -30.5470  -25.3440 C.ar  411  PHE411     -0.0003
     63  CE2       21.1020  -29.8210  -27.2830 C.ar  411  PHE411     -0.0003
     64  CZ        19.9380  -29.8150  -26.5180 C.ar  411  PHE411     -0.0000
     65  N         14.3790  -35.0670  -22.2410 N.3   434  TRP434     -0.1241
     66  CA        14.4600  -36.3760  -21.5810 C.3   434  TRP434      0.1605
     67  C         13.7760  -36.3950  -20.1890 C.2   434  TRP434      0.2264
     68  O         14.1040  -37.2140  -19.3330 O.2   434  TRP434     -0.2867
     69  CB        15.9270  -36.8240  -21.4990 C.3   434  TRP434      0.0550
     70  CG        16.6190  -36.8020  -22.8450 C.ar  434  TRP434      0.0003
     71  CD1       16.5530  -37.7530  -23.8160 C.ar  434  TRP434      0.0946
     72  CD2       17.4550  -35.7630  -23.3620 C.ar  434  TRP434      0.0152
     73  NE1       17.2970  -37.3780  -24.9050 N.ar  434  TRP434     -0.2442
     74  CE2       17.8600  -36.1560  -24.6550 C.ar  434  TRP434      0.0810
     75  CE3       17.8980  -34.5400  -22.8650 C.ar  434  TRP434      0.0012
     76  CZ2       18.6980  -35.3650  -25.4460 C.ar  434  TRP434      0.0191
     77  CZ3       18.7270  -33.7480  -23.6600 C.ar  434  TRP434      0.0001
     78  CH2       19.1130  -34.1640  -24.9270 C.ar  434  TRP434      0.0015
     79  N         18.3590  -32.4330  -33.8760 N.3   466  ASP466     -0.1225
     80  CA        19.0280  -33.6430  -33.3980 C.3   466  ASP466      0.1805
     81  C         18.2140  -34.4880  -32.4200 C.2   466  ASP466      0.2597
     82  O         18.6570  -35.5860  -32.0840 O.2   466  ASP466     -0.2718
     83  CB        20.3530  -33.2520  -32.7360 C.3   466  ASP466      0.1424
     84  CG        21.1440  -32.2680  -33.5770 C.2   466  ASP466      0.3668
     85  OD1       21.7710  -32.7220  -34.5740 O.co2 466  ASP466     -0.2456
     86  OD2       21.0840  -31.0350  -33.2520 O.co2 466  ASP466     -0.2456
     87  N         17.0490  -33.9980  -31.9710 N.am  467  ILE467     -0.1980
     88  CA        16.2800  -34.6340  -30.8840 C.3   467  ILE467      0.1595
     89  C         14.7530  -34.7030  -31.1340 C.2   467  ILE467      0.2287
     90  O         13.9990  -33.7910  -30.7940 O.2   467  ILE467     -0.2864
     91  CB        16.5380  -33.9500  -29.5050 C.3   467  ILE467      0.0276
     92  CG1       18.0370  -33.8420  -29.1790 C.3   467  ILE467      0.0022
     93  CG2       15.8360  -34.7310  -28.3890 C.3   467  ILE467      0.0022
     94  CD1       18.3460  -32.8020  -28.1110 C.3   467  ILE467      0.0001
     95  N         16.7950  -40.9700  -32.0370 N.3   513  GLU513     -0.1245
     96  CA        16.1470  -39.6580  -31.8210 C.3   513  GLU513      0.1567
     97  C         16.3740  -38.6910  -32.9840 C.2   513  GLU513      0.2260
     98  O         16.1390  -37.4800  -32.8530 O.2   513  GLU513     -0.2867
     99  CB        16.6240  -39.0310  -30.5010 C.3   513  GLU513      0.0388
    100  CG        16.3270  -39.9300  -29.3050 C.3   513  GLU513      0.1160
    101  CD        16.4800  -39.2510  -27.9580 C.2   513  GLU513      0.3649
    102  OE1       17.3820  -38.3830  -27.8120 O.co2 513  GLU513     -0.2457
    103  OE2       15.7000  -39.6190  -27.0470 O.co2 513  GLU513     -0.2457
@<TRIPOS>BOND
     1    34    35    2
     2    34    33    1
     3    33    32    1
     4    33    36    1
     5    36    37    1
     6    38    37   ar
     7    38    40   ar
     8    37    39   ar
     9    40    42   ar
    10    85    84   ar
    11    39    41   ar
    12    25    24    1
    13    25    26    2
    14    79    80    1
    15    84    86   ar
    16    84    83    1
    17    42    41   ar
    18    42    43    1
    19    19    18    2
    20    24    27    1
    21    24    23    1
    22    80    83    1
    23    80    81    1
    24    27    28    1
    25    97    98    2
    26    97    96    1
    27    28    29    1
    28    81    82    2
    29    81    87   am
    30    18    23   am
    31    18    17    1
    32    95    96    1
    33    87    88    1
    34    96    99    1
    35    29    30    1
    36    31    30    1
    37     1     2    1
    38    89    88    1
    39    89    90    2
    40    17    20    1
    41    17    16    1
    42    20    21    1
    43    88    91    1
    44    99   100    1
    45    21    22    1
    46     5     2    1
    47     5     6    1
    48     2     3    1
    49     4     3    2
    50    16    22    1
    51    16    11   am
    52     3     9   am
    53    10     9    1
    54    10    11    1
    55    10    13    1
    56    91    92    1
    57    91    93    1
    58     9    15    1
    59   100   101    1
    60    92    94    1
    61    11    12    2
    62     8     6   am
    63    13    14    1
    64     6     7    2
    65    15    14    1
    66   101   102   ar
    67   101   103   ar
    68    63    61   ar
    69    63    64   ar
    70    61    59   ar
    71    64    62   ar
    72    52    53   ar
    73    52    50   ar
    74    53    51   ar
    75    59    58    1
    76    59    60   ar
    77    76    78   ar
    78    76    74   ar
    79    62    60   ar
    80    58    55    1
    81    50    49   ar
    82    78    77   ar
    83    73    74   ar
    84    73    71   ar
    85    44    45    1
    86    51    49   ar
    87    46    45    1
    88    46    47    2
    89    74    72   ar
    90    49    48    1
    91    54    55    1
    92    57    56    2
    93    45    48    1
    94    55    56    1
    95    71    70   ar
    96    77    75   ar
    97    72    75   ar
    98    72    70   ar
    99    70    69    1
   100    65    66    1
   101    66    69    1
   102    66    67    1
   103    67    68    2
