@<TRIPOS>MOLECULE
tmp/5lgvB04.pdb
 110 103 0 0 0
SMALL
GASTEIGER

@<TRIPOS>ATOM
      1  N         25.7110  -30.3020  -44.8410 N.3   265  VAL265     -0.1245
      2  CA        25.3310  -29.9290  -43.4940 C.3   265  VAL265      0.1561
      3  C         25.8580  -28.5220  -43.1940 C.2   265  VAL265      0.2260
      4  O         27.0700  -28.2950  -43.2820 O.2   265  VAL265     -0.2867
      5  CB        25.8950  -30.9020  -42.4500 C.3   265  VAL265      0.0252
      6  CG1       25.3160  -30.5710  -41.0730 C.3   265  VAL265      0.0019
      7  CG2       25.5950  -32.3450  -42.8300 C.3   265  VAL265      0.0019
      8  N         26.5660  -26.9800  -40.4870 N.3   267  TRP267     -0.1241
      9  CA        27.6240  -26.9680  -39.4680 C.3   267  TRP267      0.1605
     10  C         29.0420  -27.3430  -39.9770 C.2   267  TRP267      0.2264
     11  O         30.0110  -27.2060  -39.2270 O.2   267  TRP267     -0.2867
     12  CB        27.2220  -27.8460  -38.2700 C.3   267  TRP267      0.0550
     13  CG        26.1630  -27.2370  -37.4180 C.ar  267  TRP267      0.0003
     14  CD1       26.3550  -26.4560  -36.3160 C.ar  267  TRP267      0.0946
     15  CD2       24.7370  -27.3550  -37.5850 C.ar  267  TRP267      0.0152
     16  NE1       25.1370  -26.0710  -35.7900 N.ar  267  TRP267     -0.2442
     17  CE2       24.1320  -26.6090  -36.5520 C.ar  267  TRP267      0.0810
     18  CE3       23.9120  -28.0160  -38.5090 C.ar  267  TRP267      0.0012
     19  CZ2       22.7470  -26.5140  -36.4120 C.ar  267  TRP267      0.0191
     20  CZ3       22.5340  -27.9200  -38.3670 C.ar  267  TRP267      0.0001
     21  CH2       21.9650  -27.1700  -37.3260 C.ar  267  TRP267      0.0015
     22  N         34.4040  -24.7490  -35.5000 N.3   310  GLN310     -0.1245
     23  CA        34.8880  -25.9600  -36.1750 C.3   310  GLN310      0.1566
     24  C         34.9640  -25.6440  -37.6820 C.2   310  GLN310      0.2260
     25  O         34.5250  -24.5530  -38.0950 O.2   310  GLN310     -0.2867
     26  CB        33.9380  -27.1300  -35.9300 C.3   310  GLN310      0.0367
     27  CG        32.5200  -26.8770  -36.4370 C.3   310  GLN310      0.0905
     28  CD        31.4820  -27.7380  -35.7590 C.2   310  GLN310      0.2608
     29  OE1       31.7480  -28.3630  -34.7280 O.2   310  GLN310     -0.2717
     30  NE2       30.2840  -27.7810  -36.3400 N.am  310  GLN310     -0.0878
     31  N         31.5790  -37.3480  -36.9970 N.3   343  TYR343     -0.1241
     32  CA        31.4440  -36.1420  -37.8190 C.3   343  TYR343      0.1605
     33  C         32.5380  -36.0670  -38.9070 C.2   343  TYR343      0.2264
     34  O         33.4560  -35.2460  -38.8390 O.2   343  TYR343     -0.2867
     35  CB        31.4780  -34.8820  -36.9530 C.3   343  TYR343      0.0534
     36  CG        30.5490  -34.8440  -35.7520 C.ar  343  TYR343     -0.0201
     37  CD1       29.2060  -35.2290  -35.8480 C.ar  343  TYR343     -0.0009
     38  CD2       31.0040  -34.3500  -34.5240 C.ar  343  TYR343     -0.0009
     39  CE1       28.3620  -35.1660  -34.7420 C.ar  343  TYR343      0.0417
     40  CE2       30.1700  -34.2680  -33.4220 C.ar  343  TYR343      0.0417
     41  CZ        28.8530  -34.6780  -33.5230 C.ar  343  TYR343      0.1957
     42  OH        28.0470  -34.5920  -32.4040 O.3   343  TYR343     -0.2866
     43  N         33.6760  -32.6690  -40.7470 N.3   346  ILE346     -0.1245
     44  CA        34.3850  -31.5640  -40.0570 C.3   346  ILE346      0.1561
     45  C         35.6780  -31.9050  -39.2870 C.2   346  ILE346      0.2260
     46  O         35.9170  -33.0540  -38.9180 O.2   346  ILE346     -0.2867
     47  CB        33.4500  -30.8040  -39.0890 C.3   346  ILE346      0.0252
     48  CG1       32.7580  -31.7650  -38.1380 C.3   346  ILE346      0.0019
     49  CG2       32.4150  -30.0130  -39.8600 C.3   346  ILE346      0.0019
     50  CD1       32.2330  -31.0830  -36.8890 C.3   346  ILE346      0.0001
     51  N         23.8660  -18.6720  -30.4990 N.3   378  ARG378     -0.1245
     52  CA        23.6150  -20.0060  -30.0070 C.3   378  ARG378      0.1563
     53  C         24.9310  -20.6790  -30.2760 C.2   378  ARG378      0.2260
     54  O         25.2610  -20.9000  -31.4220 O.2   378  ARG378     -0.2867
     55  CB        22.4420  -20.6220  -30.7890 C.3   378  ARG378      0.0307
     56  CG        21.9820  -22.0240  -30.3980 C.3   378  ARG378      0.0489
     57  CD        22.8370  -23.0890  -31.0500 C.3   378  ARG378      0.2205
     58  NE        22.3520  -24.4600  -30.9080 N.pl3 378  ARG378     -0.0865
     59  CZ        23.0240  -25.5190  -31.3640 C.cat 378  ARG378      0.5346
     60  NH1       24.1860  -25.3620  -32.0060 N.pl3 378  ARG378      0.1354
     61  NH2       22.5380  -26.7430  -31.1980 N.pl3 378  ARG378      0.1354
     62  N         27.3570  -23.6430  -30.5360 N.3   380  ASP380     -0.1225
     63  CA        27.3130  -25.0810  -30.7540 C.3   380  ASP380      0.1805
     64  C         28.4110  -25.7930  -29.9890 C.2   380  ASP380      0.2597
     65  O         29.5630  -25.3520  -30.0130 O.2   380  ASP380     -0.2718
     66  CB        27.4820  -25.3980  -32.2390 C.3   380  ASP380      0.1424
     67  CG        27.2360  -26.8570  -32.5500 C.2   380  ASP380      0.3668
     68  OD1       28.2180  -27.6000  -32.7620 O.co2 380  ASP380     -0.2456
     69  OD2       26.0580  -27.2660  -32.5530 O.co2 380  ASP380     -0.2456
     70  N         28.0460  -26.9060  -29.3370 N.am  381  ASN381     -0.1974
     71  CA        28.9920  -27.8240  -28.6780 C.3   381  ASN381      0.1688
     72  C         30.0280  -27.1430  -27.7840 C.2   381  ASN381      0.2292
     73  O         31.2090  -27.4830  -27.8490 O.2   381  ASN381     -0.2864
     74  CB        29.7340  -28.6590  -29.7410 C.3   381  ASN381      0.1181
     75  CG        29.0780  -29.9890  -30.0010 C.2   381  ASN381      0.2629
     76  OD1       29.4340  -30.9950  -29.4090 O.2   381  ASN381     -0.2716
     77  ND2       28.1210  -29.9970  -30.8880 N.am  381  ASN381     -0.0877
     78  N         24.5660  -24.5770  -26.0240 N.3   409  ALA409     -0.1245
     79  CA        24.0300  -25.8790  -26.4400 C.3   409  ALA409      0.1562
     80  C         24.9020  -27.0040  -25.9410 C.2   409  ALA409      0.2260
     81  O         25.5250  -27.7070  -26.7310 O.2   409  ALA409     -0.2867
     82  CB        23.8740  -25.9450  -27.9510 C.3   409  ALA409      0.0290
     83  N         24.5870  -30.2790  -24.3530 N.3   411  PHE411     -0.1241
     84  CA        23.9900  -31.5560  -23.9990 C.3   411  PHE411      0.1605
     85  C         25.1100  -32.5010  -23.5180 C.2   411  PHE411      0.2264
     86  O         25.6220  -33.3190  -24.2940 O.2   411  PHE411     -0.2867
     87  CB        23.2840  -32.1220  -25.2250 C.3   411  PHE411      0.0534
     88  CG        22.1180  -31.3060  -25.6850 C.ar  411  PHE411     -0.0203
     89  CD1       20.9500  -31.2740  -24.9310 C.ar  411  PHE411     -0.0042
     90  CD2       22.1890  -30.5670  -26.8650 C.ar  411  PHE411     -0.0042
     91  CE1       19.8630  -30.5470  -25.3440 C.ar  411  PHE411     -0.0003
     92  CE2       21.1020  -29.8210  -27.2830 C.ar  411  PHE411     -0.0003
     93  CZ        19.9380  -29.8150  -26.5180 C.ar  411  PHE411     -0.0000
     94  N         18.3590  -32.4330  -33.8760 N.3   466  ASP466     -0.1239
     95  CA        19.0280  -33.6430  -33.3980 C.3   466  ASP466      0.1674
     96  C         18.2140  -34.4880  -32.4200 C.2   466  ASP466      0.2266
     97  O         18.6570  -35.5860  -32.0840 O.2   466  ASP466     -0.2867
     98  CB        20.3530  -33.2520  -32.7360 C.3   466  ASP466      0.1410
     99  CG        21.1440  -32.2680  -33.5770 C.2   466  ASP466      0.3668
    100  OD1       21.7710  -32.7220  -34.5740 O.co2 466  ASP466     -0.2456
    101  OD2       21.0840  -31.0350  -33.2520 O.co2 466  ASP466     -0.2456
    102  N         19.0520  -31.4590  -41.8370 N.3   520  LYS520     -0.1245
    103  CA        20.4980  -31.1700  -41.7770 C.3   520  LYS520      0.1561
    104  C         21.2560  -31.5190  -43.0660 C.2   520  LYS520      0.2260
    105  O         22.2660  -30.8940  -43.3770 O.2   520  LYS520     -0.2867
    106  CB        21.1480  -31.8810  -40.5750 C.3   520  LYS520      0.0271
    107  CG        20.6750  -31.3790  -39.2030 C.3   520  LYS520      0.0035
    108  CD        21.3360  -32.1160  -38.0420 C.3   520  LYS520      0.0206
    109  CE        20.6730  -33.4570  -37.7660 C.3   520  LYS520      0.1093
    110  NZ        21.4460  -34.3410  -36.8380 N.3   520  LYS520     -0.1314
@<TRIPOS>BOND
     1     1     2    1
     2     2     3    1
     3     2     5    1
     4   105   104    2
     5     4     3    2
     6   104   103    1
     7     7     5    1
     8     5     6    1
     9   102   103    1
    10   103   106    1
    11    43    44    1
    12   106   107    1
    13     8     9    1
    14    44    45    1
    15    44    47    1
    16    10     9    1
    17    10    11    2
    18    49    47    1
    19     9    12    1
    20    45    46    2
    21   107   108    1
    22    47    48    1
    23    33    34    2
    24    33    32    1
    25    18    20   ar
    26    18    15   ar
    27    20    21   ar
    28    12    13    1
    29    48    50    1
    30    25    24    2
    31   108   109    1
    32    32    31    1
    33    32    35    1
    34   109   110    1
    35    24    23    1
    36    15    13   ar
    37    15    17   ar
    38    13    14   ar
    39    21    19   ar
    40    35    36    1
    41    17    19   ar
    42    17    16   ar
    43    27    26    1
    44    27    28    1
    45    30    28   am
    46    14    16   ar
    47    23    26    1
    48    23    22    1
    49    37    36   ar
    50    37    39   ar
    51    28    29    2
    52    36    38   ar
    53    39    41   ar
    54   100    99   ar
    55    38    40   ar
    56    94    95    1
    57    99   101   ar
    58    99    98    1
    59    41    40   ar
    60    41    42    1
    61    95    98    1
    62    95    96    1
    63    68    67   ar
    64    69    67   ar
    65    67    66    1
    66    96    97    2
    67    66    63    1
    68    60    59    1
    69    54    53    2
    70    59    61    1
    71    59    58    2
    72    57    58    1
    73    57    56    1
    74    77    75   am
    75    55    56    1
    76    55    52    1
    77    63    62    1
    78    63    64    1
    79    51    52    1
    80    53    52    1
    81    65    64    2
    82    75    74    1
    83    75    76    2
    84    64    70   am
    85    74    71    1
    86    70    71    1
    87    71    72    1
    88    82    79    1
    89    73    72    2
    90    92    90   ar
    91    92    93   ar
    92    90    88   ar
    93    81    80    2
    94    93    91   ar
    95    79    78    1
    96    79    80    1
    97    88    87    1
    98    88    89   ar
    99    91    89   ar
   100    87    84    1
   101    83    84    1
   102    86    85    2
   103    84    85    1
