@<TRIPOS>MOLECULE
tmp/5lgvB05.pdb
 118 113 0 0 0
SMALL
GASTEIGER

@<TRIPOS>ATOM
      1  N         28.4520  -34.6750  -46.5410 N.3   250  LYS250     -0.1245
      2  CA        27.5130  -35.7600  -46.2670 C.3   250  LYS250      0.1561
      3  C         26.2710  -35.6650  -47.1440 C.2   250  LYS250      0.2260
      4  O         25.7990  -34.5710  -47.4520 O.2   250  LYS250     -0.2867
      5  CB        27.1030  -35.7540  -44.7920 C.3   250  LYS250      0.0271
      6  CG        28.2330  -36.1260  -43.8440 C.3   250  LYS250      0.0035
      7  CD        27.6990  -36.6430  -42.5190 C.3   250  LYS250      0.0206
      8  CE        28.8130  -36.9880  -41.5480 C.3   250  LYS250      0.1093
      9  NZ        28.2730  -37.0950  -40.1650 N.3   250  LYS250     -0.1314
     10  N         22.3590  -38.6620  -43.3980 N.3   254  ASN254     -0.1240
     11  CA        23.6510  -38.8110  -42.7410 C.3   254  ASN254      0.1653
     12  C         24.4380  -39.9690  -43.3590 C.2   254  ASN254      0.2266
     13  O         24.9360  -40.8550  -42.6550 O.2   254  ASN254     -0.2867
     14  CB        23.4380  -38.9820  -41.2220 C.3   254  ASN254      0.1155
     15  CG        24.7030  -38.7600  -40.4070 C.2   254  ASN254      0.2627
     16  OD1       25.5290  -37.8940  -40.7040 O.2   254  ASN254     -0.2716
     17  ND2       24.8520  -39.5510  -39.3570 N.am  254  ASN254     -0.0877
     18  N         25.7110  -30.3020  -44.8410 N.3   265  VAL265     -0.1245
     19  CA        25.3310  -29.9290  -43.4940 C.3   265  VAL265      0.1561
     20  C         25.8580  -28.5220  -43.1940 C.2   265  VAL265      0.2260
     21  O         27.0700  -28.2950  -43.2820 O.2   265  VAL265     -0.2867
     22  CB        25.8950  -30.9020  -42.4500 C.3   265  VAL265      0.0252
     23  CG1       25.3160  -30.5710  -41.0730 C.3   265  VAL265      0.0019
     24  CG2       25.5950  -32.3450  -42.8300 C.3   265  VAL265      0.0019
     25  N         26.5660  -26.9800  -40.4870 N.3   267  TRP267     -0.1227
     26  CA        27.6240  -26.9680  -39.4680 C.3   267  TRP267      0.1737
     27  C         29.0420  -27.3430  -39.9770 C.2   267  TRP267      0.2595
     28  O         30.0110  -27.2060  -39.2270 O.2   267  TRP267     -0.2718
     29  CB        27.2220  -27.8460  -38.2700 C.3   267  TRP267      0.0564
     30  CG        26.1630  -27.2370  -37.4180 C.ar  267  TRP267      0.0003
     31  CD1       26.3550  -26.4560  -36.3160 C.ar  267  TRP267      0.0946
     32  CD2       24.7370  -27.3550  -37.5850 C.ar  267  TRP267      0.0152
     33  NE1       25.1370  -26.0710  -35.7900 N.ar  267  TRP267     -0.2442
     34  CE2       24.1320  -26.6090  -36.5520 C.ar  267  TRP267      0.0810
     35  CE3       23.9120  -28.0160  -38.5090 C.ar  267  TRP267      0.0012
     36  CZ2       22.7470  -26.5140  -36.4120 C.ar  267  TRP267      0.0191
     37  CZ3       22.5340  -27.9200  -38.3670 C.ar  267  TRP267      0.0001
     38  CH2       21.9650  -27.1700  -37.3260 C.ar  267  TRP267      0.0015
     39  N         29.1560  -27.8150  -41.2220 N.am  268  ALA268     -0.1980
     40  CA        30.4550  -28.0730  -41.8650 C.3   268  ALA268      0.1597
     41  C         30.9280  -26.8180  -42.6070 C.2   268  ALA268      0.2287
     42  O         30.9500  -26.7480  -43.8410 O.2   268  ALA268     -0.2864
     43  CB        30.3820  -29.2950  -42.7890 C.3   268  ALA268      0.0319
     44  N         34.4040  -24.7490  -35.5000 N.3   310  GLN310     -0.1245
     45  CA        34.8880  -25.9600  -36.1750 C.3   310  GLN310      0.1566
     46  C         34.9640  -25.6440  -37.6820 C.2   310  GLN310      0.2260
     47  O         34.5250  -24.5530  -38.0950 O.2   310  GLN310     -0.2867
     48  CB        33.9380  -27.1300  -35.9300 C.3   310  GLN310      0.0367
     49  CG        32.5200  -26.8770  -36.4370 C.3   310  GLN310      0.0905
     50  CD        31.4820  -27.7380  -35.7590 C.2   310  GLN310      0.2608
     51  OE1       31.7480  -28.3630  -34.7280 O.2   310  GLN310     -0.2717
     52  NE2       30.2840  -27.7810  -36.3400 N.am  310  GLN310     -0.0878
     53  N         29.7300  -39.9050  -35.3090 N.3   342  LYS342     -0.1231
     54  CA        30.9140  -39.5200  -36.0700 C.3   342  LYS342      0.1693
     55  C         30.6080  -38.2570  -36.9010 C.2   342  LYS342      0.2592
     56  O         29.4970  -38.1040  -37.4170 O.2   342  LYS342     -0.2718
     57  CB        31.3550  -40.6850  -36.9600 C.3   342  LYS342      0.0285
     58  CG        31.8600  -41.9030  -36.1930 C.3   342  LYS342      0.0035
     59  CD        32.0070  -43.1080  -37.1170 C.3   342  LYS342      0.0206
     60  CE        32.5550  -44.3340  -36.3980 C.3   342  LYS342      0.1093
     61  NZ        33.9980  -44.1940  -36.0610 N.3   342  LYS342     -0.1314
     62  N         31.5790  -37.3480  -36.9970 N.am  343  TYR343     -0.1976
     63  CA        31.4440  -36.1420  -37.8190 C.3   343  TYR343      0.1639
     64  C         32.5380  -36.0670  -38.9070 C.2   343  TYR343      0.2290
     65  O         33.4560  -35.2460  -38.8390 O.2   343  TYR343     -0.2864
     66  CB        31.4780  -34.8820  -36.9530 C.3   343  TYR343      0.0560
     67  CG        30.5490  -34.8440  -35.7520 C.ar  343  TYR343     -0.0198
     68  CD1       29.2060  -35.2290  -35.8480 C.ar  343  TYR343     -0.0009
     69  CD2       31.0040  -34.3500  -34.5240 C.ar  343  TYR343     -0.0009
     70  CE1       28.3620  -35.1660  -34.7420 C.ar  343  TYR343      0.0417
     71  CE2       30.1700  -34.2680  -33.4220 C.ar  343  TYR343      0.0417
     72  CZ        28.8530  -34.6780  -33.5230 C.ar  343  TYR343      0.1957
     73  OH        28.0470  -34.5920  -32.4040 O.3   343  TYR343     -0.2866
     74  N         32.5490  -34.9660  -41.9370 N.3   345  ASP345     -0.1225
     75  CA        32.5830  -33.7270  -42.7070 C.3   345  ASP345      0.1805
     76  C         33.2850  -32.5480  -42.0240 C.2   345  ASP345      0.2597
     77  O         33.4950  -31.5290  -42.6810 O.2   345  ASP345     -0.2718
     78  CB        31.1710  -33.3220  -43.2030 C.3   345  ASP345      0.1424
     79  CG        30.1020  -33.2750  -42.0980 C.2   345  ASP345      0.3668
     80  OD1       30.3160  -33.8040  -40.9860 O.co2 345  ASP345     -0.2456
     81  OD2       29.0150  -32.7390  -42.3970 O.co2 345  ASP345     -0.2456
     82  N         33.6760  -32.6690  -40.7470 N.am  346  ILE346     -0.1980
     83  CA        34.3850  -31.5640  -40.0570 C.3   346  ILE346      0.1595
     84  C         35.6780  -31.9050  -39.2870 C.2   346  ILE346      0.2287
     85  O         35.9170  -33.0540  -38.9180 O.2   346  ILE346     -0.2864
     86  CB        33.4500  -30.8040  -39.0890 C.3   346  ILE346      0.0276
     87  CG1       32.7580  -31.7650  -38.1380 C.3   346  ILE346      0.0022
     88  CG2       32.4150  -30.0130  -39.8600 C.3   346  ILE346      0.0022
     89  CD1       32.2330  -31.0830  -36.8890 C.3   346  ILE346      0.0001
     90  N         18.3590  -32.4330  -33.8760 N.3   466  ASP466     -0.1239
     91  CA        19.0280  -33.6430  -33.3980 C.3   466  ASP466      0.1674
     92  C         18.2140  -34.4880  -32.4200 C.2   466  ASP466      0.2266
     93  O         18.6570  -35.5860  -32.0840 O.2   466  ASP466     -0.2867
     94  CB        20.3530  -33.2520  -32.7360 C.3   466  ASP466      0.1410
     95  CG        21.1440  -32.2680  -33.5770 C.2   466  ASP466      0.3668
     96  OD1       21.7710  -32.7220  -34.5740 O.co2 466  ASP466     -0.2456
     97  OD2       21.0840  -31.0350  -33.2520 O.co2 466  ASP466     -0.2456
     98  N         19.0520  -31.4590  -41.8370 N.3   520  LYS520     -0.1231
     99  CA        20.4980  -31.1700  -41.7770 C.3   520  LYS520      0.1693
    100  C         21.2560  -31.5190  -43.0660 C.2   520  LYS520      0.2592
    101  O         22.2660  -30.8940  -43.3770 O.2   520  LYS520     -0.2718
    102  CB        21.1480  -31.8810  -40.5750 C.3   520  LYS520      0.0285
    103  CG        20.6750  -31.3790  -39.2030 C.3   520  LYS520      0.0035
    104  CD        21.3360  -32.1160  -38.0420 C.3   520  LYS520      0.0206
    105  CE        20.6730  -33.4570  -37.7660 C.3   520  LYS520      0.1093
    106  NZ        21.4460  -34.3410  -36.8380 N.3   520  LYS520     -0.1314
    107  N         20.7460  -32.5010  -43.8040 N.am  521  TYR521     -0.1976
    108  CA        21.4040  -33.0510  -44.9830 C.3   521  TYR521      0.1639
    109  C         20.6360  -32.8080  -46.2830 C.2   521  TYR521      0.2290
    110  O         21.1030  -33.2340  -47.3580 O.2   521  TYR521     -0.2864
    111  CB        21.5950  -34.5750  -44.8030 C.3   521  TYR521      0.0560
    112  CG        22.0260  -34.9660  -43.4150 C.ar  521  TYR521     -0.0198
    113  CD1       23.3660  -34.9430  -43.0520 C.ar  521  TYR521     -0.0009
    114  CD2       21.0880  -35.3180  -42.4470 C.ar  521  TYR521     -0.0009
    115  CE1       23.7620  -35.2810  -41.7650 C.ar  521  TYR521      0.0417
    116  CE2       21.4710  -35.6550  -41.1510 C.ar  521  TYR521      0.0417
    117  CZ        22.8080  -35.6350  -40.8140 C.ar  521  TYR521      0.1957
    118  OH        23.2090  -35.9590  -39.5390 O.3   521  TYR521     -0.2866
@<TRIPOS>BOND
     1     4     3    2
     2   110   109    2
     3     3     2    1
     4     1     2    1
     5   109   108    1
     6     2     5    1
     7   108   111    1
     8   108   107    1
     9    18    19    1
    10   111   112    1
    11     5     6    1
    12     6     7    1
    13    42    41    2
    14   107   100   am
    15    19    20    1
    16    19    22    1
    17   112   113   ar
    18   112   114   ar
    19    10    11    1
    20   101   100    2
    21    12    11    1
    22    12    13    2
    23    21    20    2
    24    78    75    1
    25    78    79    1
    26   100    99    1
    27   113   115   ar
    28    24    22    1
    29    43    40    1
    30    11    14    1
    31    75    76    1
    32    75    74    1
    33    77    76    2
    34    41    40    1
    35     7     8    1
    36    22    23    1
    37   114   116   ar
    38    81    79   ar
    39    79    80   ar
    40    76    82   am
    41    40    39    1
    42    98    99    1
    43    99   102    1
    44   115   117   ar
    45     8     9    1
    46    39    27   am
    47    14    15    1
    48   116   117   ar
    49   117   118    1
    50    82    83    1
    51    16    15    2
    52   102   103    1
    53    25    26    1
    54    15    17   am
    55    83    84    1
    56    83    86    1
    57    27    26    1
    58    27    28    2
    59    88    86    1
    60    26    29    1
    61    84    85    2
    62   103   104    1
    63    86    87    1
    64    64    65    2
    65    64    63    1
    66    35    37   ar
    67    35    32   ar
    68    37    38   ar
    69    29    30    1
    70    87    89    1
    71    47    46    2
    72   104   105    1
    73    63    62    1
    74    63    66    1
    75   105   106    1
    76    46    45    1
    77    32    30   ar
    78    32    34   ar
    79    30    31   ar
    80    56    55    2
    81    38    36   ar
    82    59    60    1
    83    59    58    1
    84    62    55   am
    85    57    58    1
    86    57    54    1
    87    66    67    1
    88    55    54    1
    89    34    36   ar
    90    34    33   ar
    91    49    48    1
    92    49    50    1
    93    60    61    1
    94    52    50   am
    95    31    33   ar
    96    45    48    1
    97    45    44    1
    98    54    53    1
    99    68    67   ar
   100    68    70   ar
   101    50    51    2
   102    67    69   ar
   103    70    72   ar
   104    96    95   ar
   105    69    71   ar
   106    90    91    1
   107    95    97   ar
   108    95    94    1
   109    72    71   ar
   110    72    73    1
   111    91    94    1
   112    91    92    1
   113    92    93    2
