@<TRIPOS>MOLECULE
tmp/5lh4A00.pdb
 209 208 0 0 0
SMALL
GASTEIGER

@<TRIPOS>ATOM
      1  N         33.0590   12.7730   35.9500 N.3    22  TYR22      -0.1227
      2  CA        33.8480   13.1820   34.8110 C.3    22  TYR22       0.1736
      3  C         32.9010   13.9510   33.8840 C.2    22  TYR22       0.2595
      4  O         31.6670   13.7570   33.9210 O.2    22  TYR22      -0.2718
      5  CB        34.4090   11.9460   34.0570 C.3    22  TYR22       0.0548
      6  CG        33.3640   10.8890   33.7700 C.ar   22  TYR22      -0.0200
      7  CD1       32.6140   10.9190   32.5950 C.ar   22  TYR22      -0.0009
      8  CD2       33.1200    9.8540   34.6740 C.ar   22  TYR22      -0.0009
      9  CE1       31.6280    9.9620   32.3430 C.ar   22  TYR22       0.0417
     10  CE2       32.1180    8.9150   34.4430 C.ar   22  TYR22       0.0417
     11  CZ        31.3710    8.9810   33.2790 C.ar   22  TYR22       0.1957
     12  OH        30.3640    8.0620   33.0310 O.3    22  TYR22      -0.2866
     13  N         33.4810   14.8040   33.0320 N.am   23  HIS23      -0.1961
     14  CA        32.6780   15.5200   32.0440 C.3    23  HIS23       0.1787
     15  C         32.1680   14.5260   31.0130 C.2    23  HIS23       0.2620
     16  O         32.9320   13.7320   30.4710 O.2    23  HIS23      -0.2715
     17  CB        33.5700   16.5310   31.3330 C.3    23  HIS23       0.0785
     18  CG        32.9220   17.0880   30.0900 C.ar   23  HIS23       0.0821
     19  ND1       32.0240   18.1360   30.1500 N.ar   23  HIS23      -0.2267
     20  CD2       33.0090   16.6610   28.8080 C.ar   23  HIS23       0.1154
     21  CE1       31.6230   18.3390   28.8960 C.ar   23  HIS23       0.1986
     22  NE2       32.1750   17.4690   28.0580 N.ar   23  HIS23      -0.2212
     23  N         30.8670   14.6210   30.6780 N.am   24  PHE24      -0.1960
     24  CA        30.3600   13.7300   29.6410 C.3    24  PHE24       0.1771
     25  C         29.4870   14.4270   28.5970 C.2    24  PHE24       0.2619
     26  O         29.1780   13.8130   27.5630 O.2    24  PHE24      -0.2715
     27  CB        29.6600   12.4850   30.1930 C.3    24  PHE24       0.0574
     28  CG        28.3620   12.8150   30.8650 C.ar   24  PHE24      -0.0200
     29  CD1       28.3300   13.2140   32.1990 C.ar   24  PHE24      -0.0042
     30  CD2       27.1560   12.7560   30.1630 C.ar   24  PHE24      -0.0042
     31  CE1       27.1300   13.5790   32.8120 C.ar   24  PHE24      -0.0003
     32  CE2       25.9690   13.1750   30.7640 C.ar   24  PHE24      -0.0003
     33  CZ        25.9460   13.5320   32.0910 C.ar   24  PHE24      -0.0000
     34  N         29.0170   15.6620   28.8890 N.am   25  CYS25      -0.1968
     35  CA        28.1200   16.3560   27.9560 C.3    25  CYS25       0.1712
     36  C         28.1580   17.8120   28.2530 C.2    25  CYS25       0.2296
     37  O         28.4660   18.2210   29.3770 O.2    25  CYS25      -0.2864
     38  CB        26.6810   15.8310   28.1300 C.3    25  CYS25       0.0983
     39  SG        26.1990   14.4470   27.0480 S.3    25  CYS25      -0.0798
     40  N         20.0040   12.4080   24.8220 N.3    40  HIS40      -0.1226
     41  CA        20.9520   11.3010   24.9100 C.3    40  HIS40       0.1752
     42  C         21.9570   11.5200   26.0320 C.2    40  HIS40       0.2596
     43  O         22.7100   10.5890   26.3350 O.2    40  HIS40      -0.2718
     44  CB        21.6020   11.0290   23.5550 C.3    40  HIS40       0.0759
     45  CG        22.6280   12.0300   23.1650 C.ar   40  HIS40       0.0818
     46  ND1       22.3920   12.9510   22.1730 N.ar   40  HIS40      -0.2268
     47  CD2       23.8570   12.2490   23.6880 C.ar   40  HIS40       0.1154
     48  CE1       23.4840   13.6910   22.0970 C.ar   40  HIS40       0.1986
     49  NE2       24.4070   13.2840   22.9790 N.ar   40  HIS40      -0.2212
     50  N         21.9910   12.7100   26.6480 N.am   41  CYS41      -0.1970
     51  CA        22.8460   12.9910   27.7970 C.3    41  CYS41       0.1712
     52  C         22.2200   12.6000   29.1160 C.2    41  CYS41       0.2296
     53  O         22.8240   12.8410   30.1710 O.2    41  CYS41      -0.2864
     54  CB        23.2400   14.4560   27.8050 C.3    41  CYS41       0.0983
     55  SG        24.3330   14.9210   26.4360 S.3    41  CYS41      -0.0798
     56  N         21.2390   10.8700   32.3900 N.3    43  LYS43      -0.1245
     57  CA        21.7520    9.8800   33.3230 C.3    43  LYS43       0.1561
     58  C         21.4650   10.3290   34.7310 C.2    43  LYS43       0.2260
     59  O         21.1160   11.4840   34.9630 O.2    43  LYS43      -0.2867
     60  CB        23.2100    9.5100   33.0870 C.3    43  LYS43       0.0271
     61  CG        24.1150   10.6620   33.3150 C.3    43  LYS43       0.0035
     62  CD        25.5500   10.1900   33.5510 C.3    43  LYS43       0.0206
     63  CE        26.2790    9.8130   32.2850 C.3    43  LYS43       0.1093
     64  NZ        27.7090    9.4650   32.5590 N.3    43  LYS43      -0.1314
     65  N         11.1740   11.8390   22.6300 N.3    76  TYR76      -0.1241
     66  CA        12.5520   11.4760   22.2620 C.3    76  TYR76       0.1605
     67  C         12.6010   10.0170   21.8130 C.2    76  TYR76       0.2264
     68  O         12.0920    9.1250   22.4950 O.2    76  TYR76      -0.2867
     69  CB        13.4850   11.6970   23.4530 C.3    76  TYR76       0.0534
     70  CG        14.8610   11.1040   23.2370 C.ar   76  TYR76      -0.0201
     71  CD1       15.6650   11.5210   22.1780 C.ar   76  TYR76      -0.0009
     72  CD2       15.3930   10.1840   24.1340 C.ar   76  TYR76      -0.0009
     73  CE1       16.9390   10.9820   21.9860 C.ar   76  TYR76       0.0417
     74  CE2       16.6730    9.6580   23.9710 C.ar   76  TYR76       0.0417
     75  CZ        17.4570   10.0960   22.9180 C.ar   76  TYR76       0.1957
     76  OH        18.7200    9.5860   22.7110 O.3    76  TYR76      -0.2866
     77  N         15.5450    7.3400   20.8960 N.3    78  SER78      -0.1217
     78  CA        16.9920    7.1590   20.9370 C.3    78  SER78       0.1889
     79  C         17.5580    6.4060   19.7320 C.2    78  SER78       0.2288
     80  O         18.7740    6.4290   19.5210 O.2    78  SER78      -0.2866
     81  CB        17.4150    6.4640   22.2170 C.3    78  SER78       0.2089
     82  OG        16.7090    5.2430   22.3630 O.3    78  SER78      -0.2183
     83  N         17.1850    9.6250   17.1190 N.3    81  LEU81      -0.1245
     84  CA        17.5620   10.9030   17.7310 C.3    81  LEU81       0.1561
     85  C         16.5670   12.0180   17.4570 C.2    81  LEU81       0.2260
     86  O         16.8860   13.1850   17.6870 O.2    81  LEU81      -0.2867
     87  CB        19.0170   11.3320   17.4550 C.3    81  LEU81       0.0270
     88  CG        20.0510   10.4570   18.1410 C.3    81  LEU81       0.0019
     89  CD1       21.4260   10.9820   17.9290 C.3    81  LEU81       0.0001
     90  CD2       19.8120   10.3680   19.6530 C.3    81  LEU81       0.0001
     91  N         41.4260   15.1270   24.2370 N.3   131  TYR131     -0.1241
     92  CA        40.3960   15.8490   24.9410 C.3   131  TYR131      0.1605
     93  C         40.9900   17.0450   25.5840 C.2   131  TYR131      0.2264
     94  O         41.9470   16.9210   26.3650 O.2   131  TYR131     -0.2867
     95  CB        39.6970   14.9480   25.9400 C.3   131  TYR131      0.0534
     96  CG        38.8270   13.9470   25.2350 C.ar  131  TYR131     -0.0201
     97  CD1       39.3390   12.7270   24.8080 C.ar  131  TYR131     -0.0009
     98  CD2       37.5090   14.2480   24.9080 C.ar  131  TYR131     -0.0009
     99  CE1       38.5470   11.8150   24.1220 C.ar  131  TYR131      0.0417
    100  CE2       36.7180   13.3510   24.2060 C.ar  131  TYR131      0.0417
    101  CZ        37.2350   12.1310   23.8260 C.ar  131  TYR131      0.1957
    102  OH        36.4570   11.2400   23.1430 O.3   131  TYR131     -0.2866
    103  N         34.3000   20.7930   12.9380 N.3   171  ASP171     -0.1225
    104  CA        33.0390   20.2090   13.3850 C.3   171  ASP171      0.1805
    105  C         33.0260   20.0670   14.8910 C.2   171  ASP171      0.2598
    106  O         34.0630   20.1480   15.5410 O.2   171  ASP171     -0.2718
    107  CB        32.9300   18.7840   12.7550 C.3   171  ASP171      0.1424
    108  CG        31.5830   18.0870   12.6970 C.2   171  ASP171      0.3668
    109  OD1       30.5720   18.7110   13.0650 O.co2 171  ASP171     -0.2456
    110  OD2       31.5380   16.9260   12.2200 O.co2 171  ASP171     -0.2456
    111  N         31.8500   19.7850   15.4570 N.am  172  SER172     -0.1938
    112  CA        31.7370   19.3600   16.8420 C.3   172  SER172      0.2055
    113  C         32.1330   17.8530   16.8820 C.2   172  SER172      0.2643
    114  O         32.1560   17.1870   15.8260 O.2   172  SER172     -0.2714
    115  CB        30.3200   19.5680   17.3470 C.3   172  SER172      0.2130
    116  OG        29.3800   18.9910   16.4660 O.3   172  SER172     -0.2179
    117  N         32.3950   17.2940   18.0590 N.am  173  CYS173     -0.1953
    118  CA        32.8190   15.8980   18.1310 C.3   173  CYS173      0.1843
    119  C         32.4720   15.2950   19.4790 C.2   173  CYS173      0.2625
    120  O         32.0330   15.9950   20.3680 O.2   173  CYS173     -0.2714
    121  CB        34.3240   15.8300   17.8560 C.3   173  CYS173      0.0997
    122  SG        34.9160   14.2020   17.2930 S.3   173  CYS173     -0.0797
    123  N         32.7490   14.0070   19.6800 N.am  174  GLN174     -0.1963
    124  CA        32.5160   13.2570   20.9290 C.3   174  GLN174      0.1733
    125  C         32.8280   14.0800   22.1800 C.2   174  GLN174      0.2616
    126  O         33.9870   14.4820   22.3830 O.2   174  GLN174     -0.2715
    127  CB        33.4570   12.0430   20.9790 C.3   174  GLN174      0.0408
    128  CG        33.2430   10.9670   19.9380 C.3   174  GLN174      0.0908
    129  CD        33.7570    9.6440   20.4610 C.2   174  GLN174      0.2608
    130  OE1       32.9850    8.7340   20.7690 O.2   174  GLN174     -0.2717
    131  NE2       35.0680    9.5250   20.6400 N.am  174  GLN174     -0.0878
    132  N         31.8480   14.2790   23.0450 N.am  175  GLY175     -0.1955
    133  CA        32.0440   15.0440   24.2570 C.3   175  GLY175      0.1869
    134  C         31.4190   16.4250   24.1600 C.2   175  GLY175      0.2309
    135  O         31.2450   17.0900   25.1830 O.2   175  GLY175     -0.2863
    136  N         28.4310   16.8910   22.6630 N.3   177  SER177     -0.1217
    137  CA        26.9780   16.7900   22.5560 C.3   177  SER177      0.1889
    138  C         26.2910   17.3270   23.7900 C.2   177  SER177      0.2288
    139  O         26.8500   17.3490   24.8950 O.2   177  SER177     -0.2866
    140  CB        26.5220   15.4010   22.1690 C.3   177  SER177      0.2089
    141  OG        26.6570   14.5720   23.3040 O.3   177  SER177     -0.2183
    142  N         24.0110   20.3690   20.1880 N.3   191  VAL191     -0.1231
    143  CA        24.8820   19.3870   19.5140 C.3   191  VAL191      0.1692
    144  C         24.2870   18.0070   19.7320 C.2   191  VAL191      0.2593
    145  O         24.0850   17.5960   20.8770 O.2   191  VAL191     -0.2718
    146  CB        26.2970   19.4610   20.0980 C.3   191  VAL191      0.0266
    147  CG1       27.2230   18.4630   19.3990 C.3   191  VAL191      0.0020
    148  CG2       26.8690   20.8740   20.0070 C.3   191  VAL191      0.0020
    149  N         23.9820   17.2830   18.6410 N.am  192  SER192     -0.1938
    150  CA        23.2600   16.0380   18.7370 C.3   192  SER192      0.2055
    151  C         24.0420   14.8380   18.1790 C.2   192  SER192      0.2643
    152  O         24.4310   13.9390   18.9590 O.2   192  SER192     -0.2714
    153  CB        21.9010   16.1670   18.0490 C.3   192  SER192      0.2130
    154  OG        21.0870   15.0120   18.2360 O.3   192  SER192     -0.2179
    155  N         24.3260   14.8050   16.8590 N.am  193  TRP193     -0.1959
    156  CA        24.9650   13.6040   16.3070 C.3   193  TRP193      0.1771
    157  C         25.6380   13.9080   14.9950 C.2   193  TRP193      0.2620
    158  O         25.5880   15.0140   14.5050 O.2   193  TRP193     -0.2715
    159  CB        23.9190   12.4780   16.1130 C.3   193  TRP193      0.0590
    160  CG        22.7880   12.7750   15.1530 C.ar  193  TRP193      0.0006
    161  CD1       21.6250   13.4310   15.4240 C.ar  193  TRP193      0.0946
    162  CD2       22.6910   12.3410   13.7880 C.ar  193  TRP193      0.0152
    163  NE1       20.8090   13.4390   14.3170 N.ar  193  TRP193     -0.2442
    164  CE2       21.4490   12.8020   13.2900 C.ar  193  TRP193      0.0810
    165  CE3       23.5360   11.6140   12.9350 C.ar  193  TRP193      0.0012
    166  CZ2       21.0240   12.5390   11.9690 C.ar  193  TRP193      0.0191
    167  CZ3       23.1280   11.3750   11.6240 C.ar  193  TRP193      0.0001
    168  CH2       21.8840   11.8280   11.1590 C.ar  193  TRP193      0.0015
    169  N         26.2690   12.8800   14.4250 N.am  194  GLY194     -0.1954
    170  CA        26.8800   12.9910   13.1090 C.3   194  GLY194      0.1869
    171  C         27.5970   11.6950   12.8010 C.2   194  GLY194      0.2309
    172  O         27.7630   10.8700   13.6950 O.2   194  GLY194     -0.2863
    173  N         30.9320   10.2230   12.4230 N.3   196  GLY196     -0.1210
    174  CA        32.2940   10.6360   12.7450 C.3   196  GLY196      0.1956
    175  C         32.3320   12.1300   13.0250 C.2   196  GLY196      0.2612
    176  O         31.3130   12.7330   13.3930 O.2   196  GLY196     -0.2717
    177  N         33.5130   12.7330   12.8250 N.am  197  CYS197     -0.1970
    178  CA        33.7390   14.1670   13.0470 C.3   197  CYS197      0.1712
    179  C         34.5450   14.7450   11.9360 C.2   197  CYS197      0.2296
    180  O         35.5550   14.1640   11.5540 O.2   197  CYS197     -0.2864
    181  CB        34.4470   14.4210   14.3730 C.3   197  CYS197      0.0983
    182  SG        33.6430   13.6650   15.7980 S.3   197  CYS197     -0.0798
    183  N         29.8560   15.1050    5.7480 N.3   202  LYS202     -0.1231
    184  CA        29.2390   14.5820    6.9740 C.3   202  LYS202      0.1678
    185  C         29.2450   15.6570    8.0670 C.2   202  LYS202      0.2434
    186  O         29.9530   15.5460    9.0680 O.2   202  LYS202     -0.2733
    187  CB        29.9520   13.3070    7.4290 C.3   202  LYS202      0.0284
    188  CG        29.6890   12.0960    6.5010 C.3   202  LYS202      0.0035
    189  CD        28.1910   11.7480    6.4490 C.3   202  LYS202      0.0206
    190  CE        27.8870   10.5550    5.5890 C.3   202  LYS202      0.1093
    191  NZ        26.4330   10.2350    5.5600 N.3   202  LYS202     -0.1314
    192  N         28.4560   16.7260    7.8810 N.am  203  PRO203     -0.2718
    193  CA        28.4550   17.8060    8.8800 C.3   203  PRO203      0.1535
    194  C         27.7380   17.3650   10.1470 C.2   203  PRO203      0.2599
    195  O         27.0470   16.3490   10.1730 O.2   203  PRO203     -0.2715
    196  CB        27.6540   18.9110    8.1800 C.3   203  PRO203      0.0310
    197  CG        26.7080   18.1600    7.2980 C.3   203  PRO203      0.0237
    198  CD        27.5390   17.0230    6.7660 C.3   203  PRO203      0.0939
    199  N         27.8990   18.1500   11.1900 N.am  204  GLY204     -0.1941
    200  CA        27.1890   17.8630   12.4250 C.3   204  GLY204      0.2014
    201  C         25.6960   18.1010   12.2720 C.2   204  GLY204      0.2638
    202  O         25.2410   18.9400   11.4700 O.2   204  GLY204     -0.2714
    203  N         24.9220   17.3430   13.0540 N.am  205  VAL205     -0.1977
    204  CA        23.4560   17.4400   13.1120 C.3   205  VAL205      0.1596
    205  C         23.0760   17.9290   14.4990 C.2   205  VAL205      0.2287
    206  O         23.6460   17.4800   15.5190 O.2   205  VAL205     -0.2864
    207  CB        22.7660   16.1180   12.7630 C.3   205  VAL205      0.0276
    208  CG1       21.2380   16.3370   12.6100 C.3   205  VAL205      0.0022
    209  CG2       23.3620   15.5470   11.4640 C.3   205  VAL205      0.0022
@<TRIPOS>BOND
     1   191   190    1
     2   190   189    1
     3   183   184    1
     4   189   188    1
     5   188   187    1
     6   198   197    1
     7   198   192    1
     8   184   187    1
     9   184   185    1
    10   197   196    1
    11   192   185   am
    12   192   193    1
    13   185   186    2
    14   196   193    1
    15   193   194    1
    16   194   195    2
    17   194   199   am
    18   168   167   ar
    19   168   166   ar
    20   199   200    1
    21   209   207    1
    22   202   201    2
    23   180   179    2
    24   167   165   ar
    25   179   178    1
    26   166   164   ar
    27   110   108   ar
    28   201   200    1
    29   201   203   am
    30   173   174    1
    31   208   207    1
    32   108   107    1
    33   108   109   ar
    34   174   175    1
    35   107   104    1
    36   207   204    1
    37   171   170    1
    38   171   172    2
    39   177   175   am
    40   177   178    1
    41   165   162   ar
    42   103   104    1
    43   175   176    2
    44   178   181    1
    45   203   204    1
    46   170   169    1
    47   204   205    1
    48   164   162   ar
    49   164   163   ar
    50   104   105    1
    51   162   160   ar
    52   163   161   ar
    53   181   182    1
    54   169   157   am
    55   205   206    2
    56   158   157    2
    57   105   111   am
    58   105   106    2
    59   157   156    1
    60   160   161   ar
    61   160   159    1
    62   111   112    1
    63   182   122    1
    64   114   113    2
    65   159   156    1
    66   156   155    1
    67   116   115    1
    68   112   113    1
    69   112   115    1
    70   155   151   am
    71   113   117   am
    72    83    84    1
    73   122   121    1
    74    87    84    1
    75    87    88    1
    76    85    86    2
    77    85    84    1
    78   121   118    1
    79    89    88    1
    80   153   154    1
    81   153   150    1
    82   117   118    1
    83   118   119    1
    84    88    90    1
    85   151   150    1
    86   151   152    2
    87   149   150    1
    88   149   144   am
    89   147   146    1
    90   119   123   am
    91   119   120    2
    92   143   144    1
    93   143   146    1
    94   143   142    1
    95    80    79    2
    96   123   124    1
    97    79    78    1
    98   144   145    2
    99   128   129    1
   100   128   127    1
   101   148   146    1
   102   129   131   am
   103   129   130    2
   104    77    78    1
   105   124   127    1
   106   124   125    1
   107    78    81    1
   108    67    66    1
   109    67    68    2
   110    73    71   ar
   111    73    75   ar
   112    48    46   ar
   113    48    49   ar
   114   140   137    1
   115   140   141    1
   116    46    45   ar
   117    71    70   ar
   118   125   126    2
   119   125   132   am
   120    81    82    1
   121    66    65    1
   122    66    69    1
   123   137   136    1
   124   137   138    1
   125    76    75    1
   126    75    74   ar
   127    49    47   ar
   128   132   133    1
   129   102   101    1
   130    45    44    1
   131    45    47   ar
   132    70    69    1
   133    70    72   ar
   134    44    41    1
   135   138   139    2
   136   101    99   ar
   137   101   100   ar
   138    74    72   ar
   139    99    97   ar
   140   134   133    1
   141   134   135    2
   142   100    98   ar
   143    91    92    1
   144    97    96   ar
   145    40    41    1
   146    98    96   ar
   147    41    42    1
   148    92    93    1
   149    92    95    1
   150    96    95    1
   151    93    94    2
   152    42    43    2
   153    42    50   am
   154    55    39    1
   155    55    54    1
   156    50    51    1
   157    39    38    1
   158    26    25    2
   159    51    54    1
   160    51    52    1
   161    35    38    1
   162    35    36    1
   163    35    34    1
   164    22    20   ar
   165    22    21   ar
   166    36    37    2
   167    25    34   am
   168    25    24    1
   169    20    18   ar
   170    21    19   ar
   171    52    53    2
   172    24    27    1
   173    24    23    1
   174    18    19   ar
   175    18    17    1
   176    30    32   ar
   177    30    28   ar
   178    27    28    1
   179    16    15    2
   180    23    15   am
   181    32    33   ar
   182    28    29   ar
   183    15    14    1
   184    17    14    1
   185    14    13    1
   186    33    31   ar
   187    29    31   ar
   188    63    64    1
   189    63    62    1
   190     9     7   ar
   191     9    11   ar
   192    56    57    1
   193     7     6   ar
   194    12    11    1
   195    13     3   am
   196    60    61    1
   197    60    57    1
   198    11    10   ar
   199    61    62    1
   200    57    58    1
   201     6     5    1
   202     6     8   ar
   203     3     4    2
   204     3     2    1
   205     5     2    1
   206    10     8   ar
   207    58    59    2
   208     2     1    1
