@<TRIPOS>MOLECULE
tmp/5lh8A00.pdb
 202 199 0 0 0
SMALL
GASTEIGER

@<TRIPOS>ATOM
      1  N         32.5950   12.9390   35.5560 N.3    22  TYR22      -0.1227
      2  CA        33.4200   13.3170   34.4260 C.3    22  TYR22       0.1736
      3  C         32.4830   14.0800   33.5000 C.2    22  TYR22       0.2595
      4  O         31.2600   13.8750   33.5490 O.2    22  TYR22      -0.2718
      5  CB        33.9570   12.0450   33.6960 C.3    22  TYR22       0.0548
      6  CG        32.8750   11.0150   33.4370 C.ar   22  TYR22      -0.0200
      7  CD1       32.0930   11.0720   32.2840 C.ar   22  TYR22      -0.0009
      8  CD2       32.5970   10.0160   34.3650 C.ar   22  TYR22      -0.0009
      9  CE1       31.0720   10.1600   32.0610 C.ar   22  TYR22       0.0417
     10  CE2       31.5250    9.1430   34.1850 C.ar   22  TYR22       0.0417
     11  CZ        30.7700    9.2160   33.0280 C.ar   22  TYR22       0.1957
     12  OH        29.7380    8.3270   32.8350 O.3    22  TYR22      -0.2866
     13  N         33.0380   14.9390   32.6730 N.am   23  HIS23      -0.1961
     14  CA        32.2350   15.6670   31.6840 C.3    23  HIS23       0.1787
     15  C         31.7280   14.6500   30.6410 C.2    23  HIS23       0.2620
     16  O         32.5360   13.9050   30.0830 O.2    23  HIS23      -0.2715
     17  CB        33.0810   16.7180   30.9690 C.3    23  HIS23       0.0785
     18  CG        32.4550   17.2270   29.7010 C.ar   23  HIS23       0.0821
     19  ND1       31.5220   18.2610   29.7230 N.ar   23  HIS23      -0.2267
     20  CD2       32.5620   16.7620   28.4260 C.ar   23  HIS23       0.1154
     21  CE1       31.1190   18.4090   28.4700 C.ar   23  HIS23       0.1986
     22  NE2       31.7220   17.5480   27.6480 N.ar   23  HIS23      -0.2212
     23  N         30.4140   14.6310   30.3430 N.am   24  PHE24      -0.1960
     24  CA        29.9570   13.7160   29.3010 C.3    24  PHE24       0.1771
     25  C         29.0760   14.4140   28.2460 C.2    24  PHE24       0.2619
     26  O         28.8010   13.8270   27.2100 O.2    24  PHE24      -0.2715
     27  CB        29.2230   12.5180   29.9090 C.3    24  PHE24       0.0574
     28  CG        27.9260   12.9230   30.5500 C.ar   24  PHE24      -0.0200
     29  CD1       27.8860   13.3210   31.8820 C.ar   24  PHE24      -0.0042
     30  CD2       26.7270   12.8460   29.8470 C.ar   24  PHE24      -0.0042
     31  CE1       26.6820   13.7180   32.4780 C.ar   24  PHE24      -0.0003
     32  CE2       25.5200   13.2240   30.4520 C.ar   24  PHE24      -0.0003
     33  CZ        25.5090   13.6760   31.7550 C.ar   24  PHE24      -0.0000
     34  N         28.6060   15.6390   28.5290 N.am   25  CYS25      -0.1968
     35  CA        27.7150   16.3360   27.6160 C.3    25  CYS25       0.1712
     36  C         27.7740   17.8130   27.8990 C.2    25  CYS25       0.2296
     37  O         27.9770   18.2330   29.0330 O.2    25  CYS25      -0.2864
     38  CB        26.2710   15.8450   27.7500 C.3    25  CYS25       0.0983
     39  SG        25.8490   14.4440   26.6940 S.3    25  CYS25      -0.0798
     40  N         19.6990   12.4220   24.4780 N.3    40  HIS40      -0.1226
     41  CA        20.6670   11.3170   24.5740 C.3    40  HIS40       0.1752
     42  C         21.6910   11.5600   25.7020 C.2    40  HIS40       0.2596
     43  O         22.4750   10.6490   26.0090 O.2    40  HIS40      -0.2718
     44  CB        21.3390   11.0180   23.2490 C.3    40  HIS40       0.0759
     45  CG        22.3450   12.0380   22.8740 C.ar   40  HIS40       0.0818
     46  ND1       22.1070   12.9430   21.8670 N.ar   40  HIS40      -0.2268
     47  CD2       23.5710   12.2710   23.3970 C.ar   40  HIS40       0.1154
     48  CE1       23.1860   13.7060   21.8090 C.ar   40  HIS40       0.1986
     49  NE2       24.0840   13.3440   22.7350 N.ar   40  HIS40      -0.2212
     50  N         21.6670   12.7590   26.3270 N.am   41  CYS41      -0.1970
     51  CA        22.5300   13.0560   27.4600 C.3    41  CYS41       0.1712
     52  C         21.8730   12.6400   28.7720 C.2    41  CYS41       0.2296
     53  O         22.4340   12.8920   29.8330 O.2    41  CYS41      -0.2864
     54  CB        22.9080   14.5250   27.4790 C.3    41  CYS41       0.0983
     55  SG        23.9760   14.9970   26.1150 S.3    41  CYS41      -0.0798
     56  N         20.8710   10.7620   31.9740 N.3    43  LYS43      -0.1245
     57  CA        21.3880    9.7970   32.9330 C.3    43  LYS43       0.1561
     58  C         21.0610   10.2670   34.3140 C.2    43  LYS43       0.2260
     59  O         20.7340   11.4350   34.5050 O.2    43  LYS43      -0.2867
     60  CB        22.8890    9.5040   32.7650 C.3    43  LYS43       0.0271
     61  CG        23.7600   10.7090   32.9390 C.3    43  LYS43       0.0035
     62  CD        25.2270   10.2880   33.1090 C.3    43  LYS43       0.0206
     63  CE        25.8990    9.7700   31.8500 C.3    43  LYS43       0.1093
     64  NZ        27.3350    9.4840   32.1280 N.3    43  LYS43      -0.1314
     65  N         11.0250   11.7660   22.2950 N.3    76  TYR76      -0.1241
     66  CA        12.3840   11.3970   21.9290 C.3    76  TYR76       0.1605
     67  C         12.4140    9.9320   21.5300 C.2    76  TYR76       0.2264
     68  O         11.9610    9.0730   22.2780 O.2    76  TYR76      -0.2867
     69  CB        13.3200   11.6420   23.1030 C.3    76  TYR76       0.0534
     70  CG        14.6870   11.0570   22.8760 C.ar   76  TYR76      -0.0201
     71  CD1       15.4810   11.4920   21.8150 C.ar   76  TYR76      -0.0009
     72  CD2       15.2330   10.1400   23.7760 C.ar   76  TYR76      -0.0009
     73  CE1       16.7600   11.0080   21.6280 C.ar   76  TYR76       0.0417
     74  CE2       16.5290    9.6590   23.6080 C.ar   76  TYR76       0.0417
     75  CZ        17.2810   10.0940   22.5260 C.ar   76  TYR76       0.1957
     76  OH        18.5390    9.6240   22.3170 O.3    76  TYR76      -0.2866
     77  N         15.3640    7.3250   20.6140 N.3    78  SER78      -0.1217
     78  CA        16.8270    7.1930   20.6460 C.3    78  SER78       0.1889
     79  C         17.3970    6.4790   19.4120 C.2    78  SER78       0.2288
     80  O         18.6140    6.5610   19.1780 O.2    78  SER78      -0.2866
     81  CB        17.2550    6.4410   21.8980 C.3    78  SER78       0.2089
     82  OG        16.5430    5.2170   21.9790 O.3    78  SER78      -0.2183
     83  N         17.0400    9.5700   16.8410 N.3    81  LEU81      -0.1245
     84  CA        17.4160   10.8140   17.5230 C.3    81  LEU81       0.1561
     85  C         16.4410   11.9500   17.2210 C.2    81  LEU81       0.2260
     86  O         16.7380   13.1250   17.4610 O.2    81  LEU81      -0.2867
     87  CB        18.8790   11.2360   17.3160 C.3    81  LEU81       0.0270
     88  CG        19.9130   10.2100   17.7930 C.3    81  LEU81       0.0019
     89  CD1       21.2550   10.7670   17.6810 C.3    81  LEU81       0.0001
     90  CD2       19.6980    9.8410   19.2640 C.3    81  LEU81       0.0001
     91  N         40.7920   15.0380   23.9940 N.3   131  TYR131     -0.1241
     92  CA        39.7980   15.8350   24.6980 C.3   131  TYR131      0.1605
     93  C         40.4310   17.0570   25.2680 C.2   131  TYR131      0.2264
     94  O         41.4370   16.9440   25.9720 O.2   131  TYR131     -0.2867
     95  CB        39.0960   15.0270   25.7650 C.3   131  TYR131      0.0534
     96  CG        38.1070   14.0920   25.1290 C.ar  131  TYR131     -0.0201
     97  CD1       38.5030   12.8470   24.6530 C.ar  131  TYR131     -0.0009
     98  CD2       36.7810   14.4670   24.9530 C.ar  131  TYR131     -0.0009
     99  CE1       37.5850   11.9650   24.0900 C.ar  131  TYR131      0.0417
    100  CE2       35.8660   13.6170   24.3330 C.ar  131  TYR131      0.0417
    101  CZ        36.2760   12.3690   23.8970 C.ar  131  TYR131      0.1957
    102  OH        35.3620   11.5210   23.3290 O.3   131  TYR131     -0.2866
    103  N         33.8900   20.7730   12.7150 N.3   171  ASP171     -0.1225
    104  CA        32.6320   20.1750   13.1450 C.3   171  ASP171      0.1805
    105  C         32.6060   20.0560   14.6420 C.2   171  ASP171      0.2598
    106  O         33.6340   20.2120   15.2990 O.2   171  ASP171     -0.2718
    107  CB        32.5810   18.7430   12.5470 C.3   171  ASP171      0.1424
    108  CG        31.2430   18.0520   12.5150 C.2   171  ASP171      0.3668
    109  OD1       30.2310   18.6940   12.8650 O.co2 171  ASP171     -0.2456
    110  OD2       31.2030   16.8770   12.1110 O.co2 171  ASP171     -0.2456
    111  N         31.4390   19.7110   15.1980 N.am  172  SER172     -0.1938
    112  CA        31.3520   19.3810   16.6070 C.3   172  SER172      0.2055
    113  C         31.7300   17.8670   16.6600 C.2   172  SER172      0.2643
    114  O         31.8520   17.2280   15.5990 O.2   172  SER172     -0.2714
    115  CB        29.9450   19.6440   17.1250 C.3   172  SER172      0.2130
    116  OG        28.9890   18.9310   16.3580 O.3   172  SER172     -0.2179
    117  N         31.9540   17.3050   17.8600 N.am  173  CYS173     -0.1953
    118  CA        32.4080   15.9300   17.9640 C.3   173  CYS173      0.1843
    119  C         32.1150   15.3560   19.3530 C.2   173  CYS173      0.2625
    120  O         31.6570   16.0880   20.2340 O.2   173  CYS173     -0.2714
    121  CB        33.8980   15.8660   17.6330 C.3   173  CYS173      0.0997
    122  SG        34.4810   14.2110   17.1470 S.3   173  CYS173     -0.0797
    123  N         32.3670   14.0410   19.5320 N.am  174  GLN174     -0.1963
    124  CA        32.2250   13.3010   20.7840 C.3   174  GLN174      0.1733
    125  C         32.4780   14.1730   22.0100 C.2   174  GLN174      0.2616
    126  O         33.6090   14.5870   22.2280 O.2   174  GLN174     -0.2715
    127  CB        33.2240   12.1310   20.8340 C.3   174  GLN174      0.0408
    128  CG        32.8800   10.9440   19.9660 C.3   174  GLN174      0.0908
    129  CD        33.4170   11.0970   18.5630 C.2   174  GLN174      0.2608
    130  OE1       34.6360   10.9740   18.2910 O.2   174  GLN174     -0.2717
    131  NE2       32.5070   11.3830   17.6460 N.am  174  GLN174     -0.0878
    132  N         31.4550   14.3910   22.8240 N.am  175  GLY175     -0.1955
    133  CA        31.6150   15.1990   24.0350 C.3   175  GLY175      0.1869
    134  C         30.9970   16.5810   23.9280 C.2   175  GLY175      0.2309
    135  O         30.8510   17.2520   24.9470 O.2   175  GLY175     -0.2863
    136  N         28.0340   16.9590   22.3820 N.3   177  SER177     -0.1217
    137  CA        26.5930   16.7870   22.2890 C.3   177  SER177      0.1889
    138  C         25.8830   17.2940   23.5300 C.2   177  SER177      0.2288
    139  O         26.4580   17.3170   24.6170 O.2   177  SER177     -0.2866
    140  CB        26.2120   15.3690   21.9290 C.3   177  SER177      0.2089
    141  OG        26.4840   14.5070   23.0100 O.3   177  SER177     -0.2183
    142  N         23.6130   20.3260   20.0320 N.3   191  VAL191     -0.1231
    143  CA        24.5170   19.3800   19.3780 C.3   191  VAL191      0.1692
    144  C         23.9180   18.0140   19.5900 C.2   191  VAL191      0.2593
    145  O         23.6780   17.6210   20.7260 O.2   191  VAL191     -0.2718
    146  CB        25.9190   19.4780   19.9930 C.3   191  VAL191      0.0266
    147  CG1       26.8770   18.5370   19.2870 C.3   191  VAL191      0.0020
    148  CG2       26.4480   20.9140   19.9340 C.3   191  VAL191      0.0020
    149  N         23.6350   17.3090   18.4820 N.am  192  SER192     -0.1938
    150  CA        22.9000   16.0610   18.5710 C.3   192  SER192      0.2055
    151  C         23.6870   14.8710   18.0440 C.2   192  SER192      0.2643
    152  O         24.0800   14.0150   18.8360 O.2   192  SER192     -0.2714
    153  CB        21.5360   16.2110   17.8990 C.3   192  SER192      0.2130
    154  OG        20.7810   15.0190   17.9750 O.3   192  SER192     -0.2179
    155  N         23.9400   14.8020   16.7370 N.am  193  TRP193     -0.1959
    156  CA        24.6080   13.6160   16.2170 C.3   193  TRP193      0.1771
    157  C         25.3270   13.9040   14.9180 C.2   193  TRP193      0.2620
    158  O         25.3290   15.0320   14.4530 O.2   193  TRP193     -0.2715
    159  CB        23.5780   12.4760   15.9940 C.3   193  TRP193      0.0590
    160  CG        22.4950   12.7850   14.9980 C.ar  193  TRP193      0.0006
    161  CD1       21.3070   13.4070   15.2490 C.ar  193  TRP193      0.0946
    162  CD2       22.4370   12.3540   13.6240 C.ar  193  TRP193      0.0152
    163  NE1       20.5120   13.3890   14.1270 N.ar  193  TRP193     -0.2442
    164  CE2       21.1710   12.7390   13.1200 C.ar  193  TRP193      0.0810
    165  CE3       23.3050   11.6250   12.7870 C.ar  193  TRP193      0.0012
    166  CZ2       20.8060   12.5300   11.7870 C.ar  193  TRP193      0.0191
    167  CZ3       22.9250   11.3890   11.4730 C.ar  193  TRP193      0.0001
    168  CH2       21.6770   11.8120   10.9950 C.ar  193  TRP193      0.0015
    169  N         25.9410   12.8720   14.3520 N.am  194  GLY194     -0.1954
    170  CA        26.6150   12.9620   13.0710 C.3   194  GLY194      0.1869
    171  C         27.0860   11.5880   12.6570 C.2   194  GLY194      0.2309
    172  O         26.6380   10.5790   13.2130 O.2   194  GLY194     -0.2863
    173  N         30.7610   10.2870   12.2590 N.3   196  GLY196     -0.1210
    174  CA        32.1470   10.6700   12.4650 C.3   196  GLY196      0.1956
    175  C         32.1670   12.1790   12.7390 C.2   196  GLY196      0.2612
    176  O         31.1260   12.8030   13.0280 O.2   196  GLY196     -0.2717
    177  N         33.3260   12.7790   12.6290 N.am  197  CYS197     -0.1970
    178  CA        33.4480   14.2290   12.8320 C.3   197  CYS197      0.1712
    179  C         34.2620   14.8340   11.7620 C.2   197  CYS197      0.2296
    180  O         35.3310   14.3090   11.4420 O.2   197  CYS197     -0.2864
    181  CB        34.0670   14.5240   14.1890 C.3   197  CYS197      0.0983
    182  SG        33.2580   13.6380   15.5380 S.3   197  CYS197     -0.0798
    183  N         29.5450   15.1130    5.7540 N.3   202  LYS202     -0.1245
    184  CA        28.9170   14.5770    6.9670 C.3   202  LYS202      0.1561
    185  C         28.9230   15.6430    8.0460 C.2   202  LYS202      0.2260
    186  O         29.6470   15.5450    9.0380 O.2   202  LYS202     -0.2867
    187  CB        29.5700   13.2580    7.4150 C.3   202  LYS202      0.0271
    188  CG        29.3730   12.0810    6.4310 C.3   202  LYS202      0.0035
    189  CD        27.9030   11.7000    6.2960 C.3   202  LYS202      0.0206
    190  CE        27.7110   10.5620    5.3330 C.3   202  LYS202      0.1093
    191  NZ        26.2810   10.1460    5.2580 N.3   202  LYS202     -0.1314
    192  N         27.6920   18.1020   11.2110 N.3   204  GLY204     -0.1210
    193  CA        26.9510   17.8140   12.4210 C.3   204  GLY204      0.1956
    194  C         25.4670   18.0530   12.2320 C.2   204  GLY204      0.2611
    195  O         25.0380   18.8770   11.4180 O.2   204  GLY204     -0.2717
    196  N         24.6700   17.2960   12.9920 N.am  205  VAL205     -0.1979
    197  CA        23.2150   17.3860   12.9900 C.3   205  VAL205      0.1595
    198  C         22.7980   17.8720   14.3490 C.2   205  VAL205      0.2287
    199  O         23.3120   17.4130   15.3860 O.2   205  VAL205     -0.2864
    200  CB        22.5290   16.0680   12.5590 C.3   205  VAL205      0.0276
    201  CG1       21.0170   16.2840   12.3590 C.3   205  VAL205      0.0022
    202  CG2       23.1390   15.5540   11.2570 C.3   205  VAL205      0.0022
@<TRIPOS>BOND
     1   191   190    1
     2   190   189    1
     3   183   184    1
     4   189   188    1
     5   188   187    1
     6   184   187    1
     7   184   185    1
     8   185   186    2
     9   168   167   ar
    10   168   166   ar
    11   192   193    1
    12   202   200    1
    13   195   194    2
    14   180   179    2
    15   167   165   ar
    16   179   178    1
    17   166   164   ar
    18   110   108   ar
    19   194   193    1
    20   194   196   am
    21   173   174    1
    22   201   200    1
    23   174   175    1
    24   108   107    1
    25   108   109   ar
    26   107   104    1
    27   200   197    1
    28   177   175   am
    29   177   178    1
    30   171   170    1
    31   171   172    2
    32   103   104    1
    33   175   176    2
    34   165   162   ar
    35   178   181    1
    36   197   196    1
    37   197   198    1
    38   170   169    1
    39   164   162   ar
    40   164   163   ar
    41   104   105    1
    42   162   160   ar
    43   163   161   ar
    44   181   182    1
    45   198   199    2
    46   169   157   am
    47   158   157    2
    48   105   111   am
    49   105   106    2
    50   157   156    1
    51   160   161   ar
    52   160   159    1
    53   111   112    1
    54   182   122    1
    55   114   113    2
    56   159   156    1
    57   156   155    1
    58   116   115    1
    59   112   113    1
    60   112   115    1
    61   113   117   am
    62   155   151   am
    63    83    84    1
    64   122   121    1
    65    85    86    2
    66    85    84    1
    67    87    84    1
    68    87    88    1
    69   121   118    1
    70   131   129   am
    71    89    88    1
    72    88    90    1
    73   117   118    1
    74   153   154    1
    75   153   150    1
    76   118   119    1
    77   151   150    1
    78   151   152    2
    79   130   129    2
    80   149   150    1
    81   149   144   am
    82   129   128    1
    83    80    79    2
    84   147   146    1
    85   119   123   am
    86   119   120    2
    87   143   144    1
    88   143   146    1
    89   143   142    1
    90    79    78    1
    91   123   124    1
    92   144   145    2
    93   148   146    1
    94   128   127    1
    95    77    78    1
    96    78    81    1
    97   124   127    1
    98   124   125    1
    99    67    66    1
   100    67    68    2
   101    73    71   ar
   102    73    75   ar
   103    48    46   ar
   104    48    49   ar
   105    71    70   ar
   106    46    45   ar
   107    81    82    1
   108   140   137    1
   109   140   141    1
   110    66    65    1
   111    66    69    1
   112   125   126    2
   113   125   132   am
   114   137   136    1
   115   137   138    1
   116    76    75    1
   117    75    74   ar
   118    49    47   ar
   119   132   133    1
   120    45    44    1
   121    45    47   ar
   122    70    69    1
   123    70    72   ar
   124    44    41    1
   125   102   101    1
   126   138   139    2
   127    74    72   ar
   128   101    99   ar
   129   101   100   ar
   130   134   133    1
   131   134   135    2
   132    91    92    1
   133    99    97   ar
   134   100    98   ar
   135    40    41    1
   136    41    42    1
   137    97    96   ar
   138    92    93    1
   139    92    95    1
   140    98    96   ar
   141    96    95    1
   142    93    94    2
   143    42    43    2
   144    42    50   am
   145    55    39    1
   146    55    54    1
   147    50    51    1
   148    39    38    1
   149    26    25    2
   150    51    54    1
   151    51    52    1
   152    35    38    1
   153    35    36    1
   154    35    34    1
   155    22    20   ar
   156    22    21   ar
   157    36    37    2
   158    25    34   am
   159    25    24    1
   160    20    18   ar
   161    21    19   ar
   162    52    53    2
   163    24    27    1
   164    24    23    1
   165    18    19   ar
   166    18    17    1
   167    30    32   ar
   168    30    28   ar
   169    27    28    1
   170    16    15    2
   171    23    15   am
   172    32    33   ar
   173    28    29   ar
   174    15    14    1
   175    17    14    1
   176    14    13    1
   177    33    31   ar
   178    63    64    1
   179    63    62    1
   180    29    31   ar
   181    56    57    1
   182     9     7   ar
   183     9    11   ar
   184     7     6   ar
   185    13     3   am
   186    60    57    1
   187    60    61    1
   188    12    11    1
   189    57    58    1
   190    61    62    1
   191    11    10   ar
   192     6     5    1
   193     6     8   ar
   194     3     4    2
   195     3     2    1
   196     5     2    1
   197    10     8   ar
   198    58    59    2
   199     2     1    1
