@<TRIPOS>MOLECULE
tmp/5lh9D01.pdb
 126 121 0 0 0
SMALL
GASTEIGER

@<TRIPOS>ATOM
      1  N         42.9150   30.5090   81.2510 N.3    53  LEU53      -0.1231
      2  CA        44.0480   31.4120   81.0720 C.3    53  LEU53       0.1693
      3  C         45.1960   30.5660   80.5030 C.2    53  LEU53       0.2592
      4  O         46.1570   30.2080   81.1810 O.2    53  LEU53      -0.2718
      5  CB        44.4150   32.0990   82.3890 C.3    53  LEU53       0.0284
      6  CG        45.0070   33.5070   82.3660 C.3    53  LEU53       0.0019
      7  CD1       44.1180   34.5040   81.6180 C.3    53  LEU53       0.0001
      8  CD2       45.2300   33.9720   83.8000 C.3    53  LEU53       0.0001
      9  N         45.0870   30.2410   79.2110 N.am   54  TRP54      -0.1976
     10  CA        45.9670   29.2750   78.5310 C.3    54  TRP54       0.1640
     11  C         46.2080   28.0120   79.3520 C.2    54  TRP54       0.2290
     12  O         47.3060   27.4510   79.3070 O.2    54  TRP54      -0.2864
     13  CB        47.3580   29.8230   78.1730 C.3    54  TRP54       0.0576
     14  CG        47.6220   31.2610   78.0770 C.ar   54  TRP54       0.0006
     15  CD1       47.6130   32.1650   79.0910 C.ar   54  TRP54       0.0946
     16  CD2       48.0680   31.9570   76.9130 C.ar   54  TRP54       0.0152
     17  NE1       47.9940   33.3970   78.6260 N.ar   54  TRP54      -0.2442
     18  CE2       48.2670   33.2970   77.2860 C.ar   54  TRP54       0.0810
     19  CE3       48.2960   31.5790   75.5810 C.ar   54  TRP54       0.0012
     20  CZ2       48.6760   34.2660   76.3820 C.ar   54  TRP54       0.0191
     21  CZ3       48.7020   32.5460   74.6800 C.ar   54  TRP54       0.0001
     22  CH2       48.8900   33.8750   75.0890 C.ar   54  TRP54       0.0015
     23  N         52.3020   26.9740   90.7480 N.3   114  GLY114     -0.1210
     24  CA        51.9460   27.7980   89.6060 C.3   114  GLY114      0.1956
     25  C         53.1660   28.1670   88.7910 C.2   114  GLY114      0.2612
     26  O         54.2860   27.7260   89.0700 O.2   114  GLY114     -0.2717
     27  N         52.9210   28.9840   87.7590 N.am  115  GLY115     -0.1942
     28  CA        53.9920   29.3820   86.8550 C.3   115  GLY115      0.2014
     29  C         54.9510   30.3910   87.4630 C.2   115  GLY115      0.2639
     30  O         56.1650   30.3230   87.2390 O.2   115  GLY115     -0.2714
     31  N         54.4240   31.3650   88.2030 N.am  116  SER116     -0.1949
     32  CA        55.2990   32.3060   88.8930 C.3   116  SER116      0.1924
     33  C         56.2250   31.5710   89.8530 C.2   116  SER116      0.2314
     34  O         57.4290   31.8510   89.9070 O.2   116  SER116     -0.2863
     35  CB        54.4610   33.3520   89.6240 C.3   116  SER116      0.2116
     36  OG        53.6610   34.0970   88.7100 O.3   116  SER116     -0.2180
     37  N         58.9660   29.7560   87.7740 N.3   119  VAL119     -0.1245
     38  CA        59.9920   30.7000   87.3400 C.3   119  VAL119      0.1561
     39  C         60.8720   31.0930   88.5180 C.2   119  VAL119      0.2260
     40  O         62.1050   31.0130   88.4530 O.2   119  VAL119     -0.2867
     41  CB        59.3330   31.9360   86.6950 C.3   119  VAL119      0.0252
     42  CG1       60.3310   33.0830   86.5320 C.3   119  VAL119      0.0019
     43  CG2       58.7190   31.5710   85.3490 C.3   119  VAL119      0.0019
     44  N         57.0700   37.3770   79.5250 N.3   148  TYR148     -0.1227
     45  CA        56.2600   37.3490   80.7350 C.3   148  TYR148      0.1736
     46  C         56.5970   36.0920   81.5190 C.2   148  TYR148      0.2595
     47  O         56.5720   34.9870   80.9640 O.2   148  TYR148     -0.2718
     48  CB        54.7640   37.3840   80.4150 C.3   148  TYR148      0.0548
     49  CG        53.9050   37.3660   81.6510 C.ar  148  TYR148     -0.0200
     50  CD1       53.8050   38.4910   82.4540 C.ar  148  TYR148     -0.0009
     51  CD2       53.2000   36.2280   82.0200 C.ar  148  TYR148     -0.0009
     52  CE1       53.0240   38.4920   83.5970 C.ar  148  TYR148      0.0417
     53  CE2       52.4100   36.2160   83.1670 C.ar  148  TYR148      0.0417
     54  CZ        52.3280   37.3560   83.9500 C.ar  148  TYR148      0.1957
     55  OH        51.5540   37.3800   85.0920 O.3   148  TYR148     -0.2866
     56  N         56.9110   36.2630   82.8080 N.am  149  HIS149     -0.1961
     57  CA        57.4090   35.1620   83.6230 C.3   149  HIS149      0.1787
     58  C         56.7930   35.1700   85.0180 C.2   149  HIS149      0.2621
     59  O         57.4480   34.7900   85.9960 O.2   149  HIS149     -0.2715
     60  CB        58.9330   35.2200   83.7130 C.3   149  HIS149      0.0785
     61  CG        59.6080   35.2450   82.3770 C.ar  149  HIS149      0.0821
     62  ND1       59.5330   34.1940   81.4900 N.ar  149  HIS149     -0.2267
     63  CD2       60.3780   36.1860   81.7810 C.ar  149  HIS149      0.1154
     64  CE1       60.2230   34.4880   80.4020 C.ar  149  HIS149      0.1986
     65  NE2       60.7490   35.6900   80.5540 N.ar  149  HIS149     -0.2212
     66  N         55.5420   35.5890   85.1320 N.am  150  GLY150     -0.1940
     67  CA        54.8800   35.6040   86.4170 C.3   150  GLY150      0.2014
     68  C         55.0770   36.9230   87.1300 C.2   150  GLY150      0.2638
     69  O         55.6230   37.8900   86.5910 O.2   150  GLY150     -0.2714
     70  N         54.6360   36.9520   88.3850 N.am  151  VAL151     -0.1977
     71  CA        54.5030   38.2170   89.0950 C.3   151  VAL151      0.1596
     72  C         55.1470   38.1710   90.4770 C.2   151  VAL151      0.2287
     73  O         54.9990   39.1130   91.2650 O.2   151  VAL151     -0.2864
     74  CB        53.0170   38.6060   89.2020 C.3   151  VAL151      0.0276
     75  CG1       52.4370   38.8510   87.8240 C.3   151  VAL151      0.0022
     76  CG2       52.2260   37.5270   89.9330 C.3   151  VAL151      0.0022
     77  N         60.4980   32.3340   76.6600 N.3   222  GLU222     -0.1245
     78  CA        59.3700   31.4960   76.2660 C.3   222  GLU222      0.1567
     79  C         59.5750   30.9930   74.8370 C.2   222  GLU222      0.2260
     80  O         59.9100   31.7910   73.9550 O.2   222  GLU222     -0.2867
     81  CB        58.0680   32.2800   76.3450 C.3   222  GLU222      0.0388
     82  CG        57.7820   32.8920   77.7050 C.3   222  GLU222      0.1160
     83  CD        56.8780   34.1040   77.6110 C.2   222  GLU222      0.3649
     84  OE1       55.6390   33.9290   77.5180 O.co2 222  GLU222     -0.2457
     85  OE2       57.4170   35.2340   77.5920 O.co2 222  GLU222     -0.2457
     86  N         51.7750   36.1230   76.8760 N.3   227  ALA227     -0.1245
     87  CA        51.1300   37.3650   77.2820 C.3   227  ALA227      0.1562
     88  C         51.7240   38.5750   76.5790 C.2   227  ALA227      0.2260
     89  O         51.0510   39.6080   76.4700 O.2   227  ALA227     -0.2867
     90  CB        51.2310   37.5450   78.7980 C.3   227  ALA227      0.0290
     91  N         60.8750   28.9200   79.7260 N.3   255  ASP255     -0.1239
     92  CA        59.6120   29.1490   80.4220 C.3   255  ASP255      0.1674
     93  C         58.5150   28.4840   79.6020 C.2   255  ASP255      0.2266
     94  O         57.9490   29.0690   78.6780 O.2   255  ASP255     -0.2867
     95  CB        59.3410   30.6320   80.6140 C.3   255  ASP255      0.1410
     96  CG        58.1340   30.8830   81.4870 C.2   255  ASP255      0.3668
     97  OD1       57.3110   29.9480   81.6390 O.co2 255  ASP255     -0.2456
     98  OD2       58.0160   32.0030   82.0280 O.co2 255  ASP255     -0.2456
     99  N         55.5700   27.4800   80.6920 N.3   257  VAL257     -0.1231
    100  CA        54.3130   27.5160   81.4330 C.3   257  VAL257      0.1692
    101  C         53.1260   27.4580   80.4750 C.2   257  VAL257      0.2591
    102  O         52.1100   26.8120   80.7610 O.2   257  VAL257     -0.2718
    103  CB        54.2810   28.7550   82.3430 C.3   257  VAL257      0.0266
    104  CG1       52.8760   29.0060   82.8780 C.3   257  VAL257      0.0020
    105  CG2       55.2740   28.5800   83.4860 C.3   257  VAL257      0.0020
    106  N         53.2320   28.1190   79.3290 N.am  258  VAL258     -0.1980
    107  CA        52.1720   28.0740   78.3240 C.3   258  VAL258      0.1595
    108  C         52.4000   26.9490   77.3250 C.2   258  VAL258      0.2287
    109  O         51.4960   26.1540   77.0530 O.2   258  VAL258     -0.2864
    110  CB        52.0680   29.4430   77.6180 C.3   258  VAL258      0.0276
    111  CG1       51.1620   29.3610   76.4070 C.3   258  VAL258      0.0022
    112  CG2       51.5330   30.4840   78.5860 C.3   258  VAL258      0.0022
    113  N         53.6050   24.8050   84.3410 N.3   283  ALA283     -0.1231
    114  CA        52.4280   25.0080   85.1670 C.3   283  ALA283      0.1694
    115  C         51.1930   24.8850   84.2900 C.2   283  ALA283      0.2591
    116  O         51.1430   24.0260   83.4130 O.2   283  ALA283     -0.2718
    117  CB        52.4780   26.3660   85.8690 C.3   283  ALA283      0.0304
    118  N         50.2020   25.7340   84.5470 N.am  284  LYS284     -0.1980
    119  CA        48.9720   25.8230   83.7350 C.3   284  LYS284      0.1596
    120  C         48.4870   24.4820   83.2660 C.2   284  LYS284      0.2287
    121  O         47.7850   23.7970   83.9990 O.2   284  LYS284     -0.2864
    122  CB        49.2390   26.7610   82.5730 C.3   284  LYS284      0.0298
    123  CG        49.3190   28.2060   83.1080 C.3   284  LYS284      0.0038
    124  CD        49.3540   29.2790   81.9960 C.3   284  LYS284      0.0206
    125  CE        49.3260   30.6880   82.6510 C.3   284  LYS284      0.1093
    126  NZ        50.4280   31.5300   82.1320 N.3   284  LYS284     -0.1314
@<TRIPOS>BOND
     1    80    79    2
     2    21    22   ar
     3    21    19   ar
     4    79    78    1
     5    22    20   ar
     6    19    16   ar
     7    78    81    1
     8    78    77    1
     9    81    82    1
    10    20    18   ar
    11   111   110    1
    12    89    88    2
    13    88    87    1
    14    86    87    1
    15    16    18   ar
    16    16    14   ar
    17   109   108    2
    18    87    90    1
    19    18    17   ar
    20   108   107    1
    21    84    83   ar
    22    85    83   ar
    23    83    82    1
    24   110   107    1
    25   110   112    1
    26    14    13    1
    27    14    15   ar
    28    13    10    1
    29   107   106    1
    30    10     9    1
    31    10    11    1
    32    17    15   ar
    33    94    93    2
    34     9     3   am
    35    12    11    2
    36   106   101   am
    37    44    45    1
    38    93    92    1
    39    91    92    1
    40    64    65   ar
    41    64    62   ar
    42    48    45    1
    43    48    49    1
    44    92    95    1
    45   101   102    2
    46   101   100    1
    47     3     2    1
    48     3     4    2
    49    65    63   ar
    50    95    96    1
    51    99   100    1
    52    45    46    1
    53    47    46    2
    54     2     1    1
    55     2     5    1
    56   100   103    1
    57    96    97   ar
    58    96    98   ar
    59    62    61   ar
    60    46    56   am
    61     7     6    1
    62    49    51   ar
    63    49    50   ar
    64    63    61   ar
    65   124   125    1
    66   124   123    1
    67    51    53   ar
    68   126   125    1
    69   103   104    1
    70   103   105    1
    71     6     5    1
    72     6     8    1
    73    61    60    1
    74    50    52   ar
    75   122   123    1
    76   122   119    1
    77    56    57    1
    78    53    54   ar
    79   120   119    1
    80   120   121    2
    81   116   115    2
    82    52    54   ar
    83    57    60    1
    84    57    58    1
    85   119   118    1
    86    54    55    1
    87   115   118   am
    88   115   114    1
    89   113   114    1
    90    58    66   am
    91    58    59    2
    92    66    67    1
    93   114   117    1
    94    43    41    1
    95    67    68    1
    96    42    41    1
    97    69    68    2
    98    41    38    1
    99    28    29    1
   100    28    27    1
   101    68    70   am
   102    30    29    2
   103    38    37    1
   104    38    39    1
   105    29    31   am
   106    27    25   am
   107    75    74    1
   108    31    32    1
   109    70    71    1
   110    40    39    2
   111    36    35    1
   112    25    26    2
   113    25    24    1
   114    32    35    1
   115    32    33    1
   116    71    74    1
   117    71    72    1
   118    74    76    1
   119    24    23    1
   120    33    34    2
   121    72    73    2
