@<TRIPOS>MOLECULE
tmp/5lhdC01.pdb
 89 82 0 0 0
SMALL
GASTEIGER

@<TRIPOS>ATOM
      1  N         50.3980  -44.0720   50.0270 N.3    22  SER22      -0.1202
      2  CA        50.2310  -42.9240   49.1440 C.3    22  SER22       0.2020
      3  C         51.4380  -42.7280   48.2280 C.2    22  SER22       0.2619
      4  O         52.5620  -43.0730   48.5870 O.2    22  SER22      -0.2717
      5  CB        49.9610  -41.6510   49.9490 C.3    22  SER22       0.2103
      6  OG        51.1330  -41.1910   50.5890 O.3    22  SER22      -0.2182
      7  N         51.1940  -42.1770   47.0430 N.am   23  TYR23      -0.1961
      8  CA        52.2570  -41.9340   46.0730 C.3    23  TYR23       0.1771
      9  C         52.4690  -40.4470   45.8350 C.2    23  TYR23       0.2619
     10  O         51.5420  -39.6450   45.9540 O.2    23  TYR23      -0.2715
     11  CB        51.9170  -42.5630   44.7200 C.3    23  TYR23       0.0574
     12  CG        51.9130  -44.0730   44.6540 C.ar   23  TYR23      -0.0198
     13  CD1       52.9260  -44.7590   43.9960 C.ar   23  TYR23      -0.0009
     14  CD2       50.8790  -44.8110   45.2140 C.ar   23  TYR23      -0.0009
     15  CE1       52.9170  -46.1390   43.9120 C.ar   23  TYR23       0.0417
     16  CE2       50.8610  -46.1910   45.1330 C.ar   23  TYR23       0.0417
     17  CZ        51.8820  -46.8490   44.4820 C.ar   23  TYR23       0.1957
     18  OH        51.8660  -48.2220   44.4050 O.3    23  TYR23      -0.2866
     19  N         53.7010  -40.0900   45.4970 N.am   24  ARG24      -0.1977
     20  CA        53.9830  -38.8180   44.8530 C.3    24  ARG24       0.1597
     21  C         54.4530  -39.1750   43.4520 C.2    24  ARG24       0.2287
     22  O         55.3050  -40.0430   43.2800 O.2    24  ARG24      -0.2864
     23  CB        55.0440  -38.0210   45.6270 C.3    24  ARG24       0.0334
     24  CG        56.2530  -37.5160   44.8130 C.3    24  ARG24       0.0492
     25  CD        55.9090  -36.3690   43.8670 C.3    24  ARG24       0.2205
     26  NE        54.8510  -35.5180   44.4000 N.pl3  24  ARG24      -0.0865
     27  CZ        53.9230  -34.9330   43.6510 C.cat  24  ARG24       0.5346
     28  NH1       53.9260  -35.1160   42.3390 N.pl3  24  ARG24       0.1354
     29  NH2       52.9910  -34.1690   44.2080 N.pl3  24  ARG24       0.1354
     30  N         57.6980  -40.9240   44.4410 N.3    46  THR46      -0.1218
     31  CA        57.9150  -41.4170   45.7920 C.3    46  THR46       0.1862
     32  C         56.7070  -42.2440   46.2150 C.2    46  THR46       0.2287
     33  O         55.5700  -41.7700   46.1620 O.2    46  THR46      -0.2866
     34  CB        58.1120  -40.2670   46.8010 C.3    46  THR46       0.1770
     35  OG1       59.3200  -39.5560   46.5000 O.3    46  THR46      -0.2211
     36  CG2       58.1880  -40.8140   48.2230 C.3    46  THR46       0.0375
     37  N         55.1320  -44.3080   49.4340 N.3    48  ARG48      -0.1245
     38  CA        55.1560  -44.6990   50.8370 C.3    48  ARG48       0.1563
     39  C         54.3240  -45.9590   51.0290 C.2    48  ARG48       0.2260
     40  O         53.1190  -45.9660   50.7740 O.2    48  ARG48      -0.2867
     41  CB        54.6360  -43.5740   51.7340 C.3    48  ARG48       0.0307
     42  CG        54.4680  -43.9900   53.1890 C.3    48  ARG48       0.0489
     43  CD        54.5110  -42.8010   54.1360 C.3    48  ARG48       0.2205
     44  NE        53.4550  -41.8300   53.8660 N.pl3  48  ARG48      -0.0865
     45  CZ        53.6730  -40.5770   53.4830 C.cat  48  ARG48       0.5346
     46  NH1       54.9130  -40.1360   53.3250 N.pl3  48  ARG48       0.1354
     47  NH2       52.6530  -39.7600   53.2610 N.pl3  48  ARG48       0.1354
     48  N         59.6170  -45.2200   52.5220 N.3   115  GLU115     -0.1245
     49  CA        59.4120  -44.4920   51.2770 C.3   115  GLU115      0.1567
     50  C         60.5030  -44.8540   50.2800 C.2   115  GLU115      0.2260
     51  O         61.6620  -45.0320   50.6540 O.2   115  GLU115     -0.2867
     52  CB        59.3860  -42.9850   51.5200 C.3   115  GLU115      0.0388
     53  CG        58.1320  -42.5050   52.2200 C.3   115  GLU115      0.1160
     54  CD        58.1470  -41.0160   52.4870 C.2   115  GLU115      0.3649
     55  OE1       59.1310  -40.3500   52.1020 O.co2 115  GLU115     -0.2457
     56  OE2       57.1750  -40.5110   53.0850 O.co2 115  GLU115     -0.2457
     57  N         46.5030  -43.1870   47.9000 N.3   170  GLU170     -0.1245
     58  CA        46.2320  -41.8100   47.5300 C.3   170  GLU170      0.1567
     59  C         47.3540  -41.3420   46.6240 C.2   170  GLU170      0.2260
     60  O         48.5040  -41.7320   46.8060 O.2   170  GLU170     -0.2867
     61  CB        46.1390  -40.9380   48.7800 C.3   170  GLU170      0.0388
     62  CG        45.0960  -41.4290   49.7680 C.3   170  GLU170      0.1160
     63  CD        45.1120  -40.6620   51.0720 C.2   170  GLU170      0.3649
     64  OE1       45.9380  -39.7330   51.2070 O.co2 170  GLU170     -0.2457
     65  OE2       44.2970  -40.9910   51.9630 O.co2 170  GLU170     -0.2457
     66  N         49.3570  -38.0670   44.8670 N.3   172  ASN172     -0.1240
     67  CA        49.6540  -36.6550   44.6800 C.3   172  ASN172      0.1653
     68  C         50.3040  -36.4540   43.3170 C.2   172  ASN172      0.2266
     69  O         51.4770  -36.7800   43.1340 O.2   172  ASN172     -0.2867
     70  CB        50.5880  -36.1510   45.7780 C.3   172  ASN172      0.1155
     71  CG        50.0850  -36.4790   47.1680 C.2   172  ASN172      0.2627
     72  OD1       48.8930  -36.7240   47.3670 O.2   172  ASN172     -0.2716
     73  ND2       50.9960  -36.4810   48.1440 N.am  172  ASN172     -0.0877
     74  N         45.9710  -27.7870   42.9690 N.3   190  LYS190     -0.1245
     75  CA        46.0600  -27.3580   44.3590 C.3   190  LYS190      0.1561
     76  C         46.0470  -25.8380   44.4350 C.2   190  LYS190      0.2260
     77  O         45.3470  -25.2470   45.2580 O.2   190  LYS190     -0.2867
     78  CB        47.3330  -27.9120   44.9990 C.3   190  LYS190      0.0271
     79  CG        47.1550  -28.4120   46.4210 C.3   190  LYS190      0.0035
     80  CD        48.4130  -29.1050   46.9140 C.3   190  LYS190      0.0206
     81  CE        48.2410  -29.6320   48.3290 C.3   190  LYS190      0.1093
     82  NZ        49.4800  -30.2960   48.8220 N.3   190  LYS190     -0.1314
     83  N         45.3610  -34.0710   46.4910 N.3   209  THR209     -0.1218
     84  CA        45.4430  -35.4960   46.7740 C.3   209  THR209      0.1862
     85  C         44.1390  -36.1690   46.3670 C.2   209  THR209      0.2287
     86  O         43.0560  -35.6690   46.6680 O.2   209  THR209     -0.2866
     87  CB        45.6940  -35.7500   48.2770 C.3   209  THR209      0.1770
     88  OG1       46.8590  -35.0310   48.6960 O.3   209  THR209     -0.2211
     89  CG2       45.8940  -37.2320   48.5570 C.3   209  THR209      0.0375
@<TRIPOS>BOND
     1    28    27    1
     2    74    75    1
     3    69    68    2
     4    22    21    2
     5    68    67    1
     6    21    20    1
     7    27    29    1
     8    27    26    2
     9    25    26    1
    10    25    24    1
    11    15    13   ar
    12    15    17   ar
    13    13    12   ar
    14    75    76    1
    15    75    78    1
    16    18    17    1
    17    76    77    2
    18    30    31    1
    19    17    16   ar
    20    12    11    1
    21    12    14   ar
    22    67    66    1
    23    67    70    1
    24    11     8    1
    25    24    23    1
    26    20    19    1
    27    20    23    1
    28    78    79    1
    29    16    14   ar
    30    19     9   am
    31    70    71    1
    32    31    32    1
    33    31    34    1
    34     9    10    2
    35     9     8    1
    36     8     7    1
    37    33    32    2
    38    85    86    2
    39    85    84    1
    40    79    80    1
    41    83    84    1
    42    35    34    1
    43    59    60    2
    44    59    58    1
    45    84    87    1
    46    34    36    1
    47    80    81    1
    48     7     3   am
    49    71    72    2
    50    71    73   am
    51    58    57    1
    52    58    61    1
    53     3     4    2
    54     3     2    1
    55    87    89    1
    56    87    88    1
    57    81    82    1
    58    61    62    1
    59     2     5    1
    60     2     1    1
    61    37    38    1
    62    62    63    1
    63     5     6    1
    64    50    51    2
    65    50    49    1
    66    40    39    2
    67    38    39    1
    68    38    41    1
    69    63    64   ar
    70    63    65   ar
    71    49    52    1
    72    49    48    1
    73    52    53    1
    74    41    42    1
    75    55    54   ar
    76    53    54    1
    77    54    56   ar
    78    42    43    1
    79    47    45    1
    80    46    45    1
    81    45    44    2
    82    44    43    1
