@<TRIPOS>MOLECULE
tmp/5lhgA02.pdb
 196 190 0 0 0
SMALL
GASTEIGER

@<TRIPOS>ATOM
      1  N         12.0960  -56.4370  -35.4550 N.3   163  VAL163     -0.1245
      2  CA        12.2810  -55.0410  -35.0730 C.3   163  VAL163      0.1561
      3  C         12.3040  -54.9310  -33.5550 C.2   163  VAL163      0.2260
      4  O         11.4620  -55.5220  -32.8680 O.2   163  VAL163     -0.2867
      5  CB        11.1770  -54.1490  -35.6660 C.3   163  VAL163      0.0252
      6  CG1       11.3430  -52.7130  -35.1990 C.3   163  VAL163      0.0019
      7  CG2       11.2020  -54.2250  -37.1800 C.3   163  VAL163      0.0019
      8  N         11.5240  -52.3020  -30.8510 N.3   165  THR165     -0.1218
      9  CA        10.6960  -51.0960  -30.8690 C.3   165  THR165      0.1862
     10  C         11.2000  -50.0510  -29.8690 C.2   165  THR165      0.2287
     11  O         10.4980  -49.6260  -28.9520 O.2   165  THR165     -0.2866
     12  CB         9.2410  -51.4590  -30.6000 C.3   165  THR165      0.1770
     13  OG1        9.1250  -52.0690  -29.3090 O.3   165  THR165     -0.2211
     14  CG2        8.7330  -52.4140  -31.6600 C.3   165  THR165      0.0375
     15  N         16.7590  -47.8930  -38.7980 N.3   186  ILE186     -0.1245
     16  CA        15.9140  -48.0380  -39.9780 C.3   186  ILE186      0.1561
     17  C         15.6580  -46.6540  -40.5550 C.2   186  ILE186      0.2260
     18  O         15.0260  -45.8120  -39.9040 O.2   186  ILE186     -0.2867
     19  CB        14.5880  -48.7400  -39.6470 C.3   186  ILE186      0.0252
     20  CG1       14.8430  -50.1020  -39.0000 C.3   186  ILE186      0.0019
     21  CG2       13.7340  -48.8860  -40.8980 C.3   186  ILE186      0.0019
     22  CD1       13.5890  -50.7620  -38.4700 C.3   186  ILE186      0.0001
     23  N         13.6280  -44.1890  -42.2830 N.3   188  GLN188     -0.1245
     24  CA        12.1770  -44.1220  -42.4580 C.3   188  GLN188      0.1566
     25  C         11.7730  -43.3730  -43.7220 C.2   188  GLN188      0.2260
     26  O         10.7840  -42.6340  -43.7280 O.2   188  GLN188     -0.2867
     27  CB        11.5420  -43.4910  -41.2220 C.3   188  GLN188      0.0367
     28  CG        10.1100  -43.9370  -40.9630 C.3   188  GLN188      0.0905
     29  CD         9.5340  -43.3430  -39.6940 C.2   188  GLN188      0.2608
     30  OE1       10.2690  -42.9050  -38.8100 O.2   188  GLN188     -0.2717
     31  NE2        8.2090  -43.3270  -39.5970 N.am  188  GLN188     -0.0878
     32  N         -0.0510  -50.9510  -44.5910 N.3   365  ASN365     -0.1240
     33  CA         1.0140  -50.8610  -43.5980 C.3   365  ASN365      0.1653
     34  C          0.4590  -50.9380  -42.1830 C.2   365  ASN365      0.2266
     35  O          1.1300  -51.4480  -41.2790 O.2   365  ASN365     -0.2867
     36  CB         1.8060  -49.5680  -43.7920 C.3   365  ASN365      0.1155
     37  CG         3.2710  -49.7220  -43.4280 C.2   365  ASN365      0.2627
     38  OD1        4.1350  -49.0590  -44.0010 O.2   365  ASN365     -0.2716
     39  ND2        3.5570  -50.6000  -42.4740 N.am  365  ASN365     -0.0877
     40  N         -0.3010  -54.4870  -41.5340 N.3   368  PHE368     -0.1227
     41  CA         0.9230  -55.2290  -41.2540 C.3   368  PHE368      0.1736
     42  C          1.3090  -55.1080  -39.7860 C.2   368  PHE368      0.2595
     43  O          1.6120  -56.1100  -39.1270 O.2   368  PHE368     -0.2718
     44  CB         2.0580  -54.7290  -42.1490 C.3   368  PHE368      0.0547
     45  CG         3.3950  -55.3320  -41.8240 C.ar  368  PHE368     -0.0202
     46  CD1        3.7670  -56.5480  -42.3660 C.ar  368  PHE368     -0.0042
     47  CD2        4.2790  -54.6840  -40.9770 C.ar  368  PHE368     -0.0042
     48  CE1        4.9880  -57.1150  -42.0630 C.ar  368  PHE368     -0.0003
     49  CE2        5.5050  -55.2440  -40.6740 C.ar  368  PHE368     -0.0003
     50  CZ         5.8610  -56.4600  -41.2200 C.ar  368  PHE368     -0.0000
     51  N          1.3110  -53.8800  -39.2600 N.am  369  ALA369     -0.1966
     52  CA         1.7360  -53.6540  -37.8840 C.3   369  ALA369      0.1728
     53  C          0.8580  -54.4010  -36.8910 C.2   369  ALA369      0.2616
     54  O          1.3520  -54.8770  -35.8630 O.2   369  ALA369     -0.2715
     55  CB         1.7310  -52.1570  -37.5770 C.3   369  ALA369      0.0334
     56  N         -0.4380  -54.5180  -37.1770 N.am  370  ASN370     -0.1972
     57  CA        -1.3590  -55.2350  -36.3090 C.3   370  ASN370      0.1688
     58  C         -1.6130  -56.6670  -36.7610 C.2   370  ASN370      0.2292
     59  O         -2.2770  -57.4180  -36.0390 O.2   370  ASN370     -0.2864
     60  CB        -2.6890  -54.4760  -36.2130 C.3   370  ASN370      0.1181
     61  CG        -2.5400  -53.1270  -35.5310 C.2   370  ASN370      0.2629
     62  OD1       -2.6120  -53.0260  -34.3060 O.2   370  ASN370     -0.2716
     63  ND2       -2.3170  -52.0860  -36.3230 N.am  370  ASN370     -0.0877
     64  N        -10.0400  -55.2080  -35.9460 N.3   377  LEU377     -0.1245
     65  CA        -9.5140  -54.4970  -34.7890 C.3   377  LEU377      0.1561
     66  C        -10.6280  -53.7380  -34.0780 C.2   377  LEU377      0.2260
     67  O        -11.5120  -53.1600  -34.7140 O.2   377  LEU377     -0.2867
     68  CB        -8.4110  -53.5280  -35.2140 C.3   377  LEU377      0.0270
     69  CG        -7.0750  -54.1410  -35.6280 C.3   377  LEU377      0.0019
     70  CD1       -6.1950  -53.0940  -36.2850 C.3   377  LEU377      0.0001
     71  CD2       -6.3760  -54.7420  -34.4200 C.3   377  LEU377      0.0001
     72  N         -7.9670  -50.9300  -29.8860 N.3   382  TRP382     -0.1227
     73  CA        -6.8620  -51.4090  -30.7120 C.3   382  TRP382      0.1737
     74  C         -5.5540  -50.6910  -30.4070 C.2   382  TRP382      0.2595
     75  O         -4.4830  -51.2430  -30.6770 O.2   382  TRP382     -0.2718
     76  CB        -7.1900  -51.2650  -32.2000 C.3   382  TRP382      0.0564
     77  CG        -7.1050  -49.8620  -32.7130 C.ar  382  TRP382      0.0003
     78  CD1       -8.0620  -48.8940  -32.6210 C.ar  382  TRP382      0.0946
     79  CD2       -6.0010  -49.2710  -33.4100 C.ar  382  TRP382      0.0152
     80  NE1       -7.6200  -47.7350  -33.2130 N.ar  382  TRP382     -0.2442
     81  CE2       -6.3580  -47.9400  -33.7050 C.ar  382  TRP382      0.0810
     82  CE3       -4.7450  -49.7370  -33.8090 C.ar  382  TRP382      0.0012
     83  CZ2       -5.5050  -47.0720  -34.3810 C.ar  382  TRP382      0.0191
     84  CZ3       -3.9000  -48.8730  -34.4810 C.ar  382  TRP382      0.0001
     85  CH2       -4.2830  -47.5560  -34.7600 C.ar  382  TRP382      0.0015
     86  N         -5.6140  -49.4860  -29.8490 N.am  383  ASP383     -0.1974
     87  CA        -4.4320  -48.7020  -29.5170 C.3   383  ASP383      0.1709
     88  C         -4.3300  -48.4790  -28.0120 C.2   383  ASP383      0.2293
     89  O         -3.9330  -47.4090  -27.5470 O.2   383  ASP383     -0.2864
     90  CB        -4.4400  -47.3710  -30.2650 C.3   383  ASP383      0.1436
     91  CG        -5.6580  -46.5290  -29.9410 C.2   383  ASP383      0.3671
     92  OD1       -6.6850  -47.1060  -29.5250 O.co2 383  ASP383     -0.2456
     93  OD2       -5.5900  -45.2910  -30.1010 O.co2 383  ASP383     -0.2456
     94  N         -2.3260  -50.0760  -25.8720 N.3   385  ASP385     -0.1225
     95  CA        -0.9370  -50.1460  -25.4390 C.3   385  ASP385      0.1805
     96  C         -0.0870  -49.0140  -26.0010 C.2   385  ASP385      0.2597
     97  O          1.1460  -49.1090  -25.9820 O.2   385  ASP385     -0.2718
     98  CB        -0.3340  -51.4960  -25.8330 C.3   385  ASP385      0.1424
     99  CG        -0.3330  -51.7140  -27.3320 C.2   385  ASP385      0.3668
    100  OD1       -1.2000  -51.1300  -28.0160 O.co2 385  ASP385     -0.2456
    101  OD2        0.5280  -52.4720  -27.8270 O.co2 385  ASP385     -0.2456
    102  N         -0.7160  -47.9470  -26.5000 N.am  386  ASP386     -0.1974
    103  CA         0.0380  -46.8610  -27.1140 C.3   386  ASP386      0.1709
    104  C          0.7970  -46.0420  -26.0790 C.2   386  ASP386      0.2293
    105  O          1.8870  -45.5360  -26.3710 O.2   386  ASP386     -0.2864
    106  CB        -0.9010  -45.9600  -27.9180 C.3   386  ASP386      0.1436
    107  CG        -1.0720  -46.4270  -29.3500 C.2   386  ASP386      0.3671
    108  OD1       -0.9640  -47.6470  -29.5970 O.co2 386  ASP386     -0.2456
    109  OD2       -1.3120  -45.5740  -30.2290 O.co2 386  ASP386     -0.2456
    110  N          4.5390  -47.2380  -25.2870 N.3   389  GLU389     -0.1245
    111  CA         5.5460  -47.3680  -26.3300 C.3   389  GLU389      0.1567
    112  C          6.8800  -46.8150  -25.8440 C.2   389  GLU389      0.2260
    113  O          6.9360  -45.7830  -25.1690 O.2   389  GLU389     -0.2867
    114  CB         5.0990  -46.6360  -27.5960 C.3   389  GLU389      0.0388
    115  CG         6.0610  -46.7620  -28.7680 C.3   389  GLU389      0.1160
    116  CD         5.7100  -45.8270  -29.9100 C.2   389  GLU389      0.3649
    117  OE1        4.8370  -44.9550  -29.7180 O.co2 389  GLU389     -0.2457
    118  OE2        6.3070  -45.9640  -30.9990 O.co2 389  GLU389     -0.2457
    119  N         13.6880  -47.1340  -33.8260 N.3   394  HIS394     -0.1241
    120  CA        13.4680  -48.5700  -33.9080 C.3   394  HIS394      0.1621
    121  C         14.5780  -49.2230  -34.7210 C.2   394  HIS394      0.2264
    122  O         14.9590  -48.7230  -35.7850 O.2   394  HIS394     -0.2867
    123  CB        12.0970  -48.8610  -34.5180 C.3   394  HIS394      0.0745
    124  CG        10.9560  -48.5170  -33.6130 C.ar  394  HIS394      0.0817
    125  ND1        9.8320  -49.3060  -33.4940 N.ar  394  HIS394     -0.2268
    126  CD2       10.7740  -47.4740  -32.7680 C.ar  394  HIS394      0.1154
    127  CE1        9.0070  -48.7640  -32.6160 C.ar  394  HIS394      0.1986
    128  NE2        9.5530  -47.6490  -32.1650 N.ar  394  HIS394     -0.2212
    129  N          0.6080  -63.1160  -34.3010 N.3   591  TYR591     -0.1227
    130  CA         0.5060  -62.6910  -32.9120 C.3   591  TYR591      0.1736
    131  C         -0.8980  -62.1510  -32.6740 C.2   591  TYR591      0.2596
    132  O         -1.7500  -62.1610  -33.5660 O.2   591  TYR591     -0.2718
    133  CB         1.5870  -61.6670  -32.5510 C.3   591  TYR591      0.0548
    134  CG         1.7860  -60.5580  -33.5580 C.ar  591  TYR591     -0.0200
    135  CD1        0.9310  -59.4650  -33.6010 C.ar  591  TYR591     -0.0009
    136  CD2        2.8520  -60.5900  -34.4470 C.ar  591  TYR591     -0.0009
    137  CE1        1.1210  -58.4440  -34.5130 C.ar  591  TYR591      0.0417
    138  CE2        3.0520  -59.5750  -35.3620 C.ar  591  TYR591      0.0417
    139  CZ         2.1840  -58.5050  -35.3910 C.ar  591  TYR591      0.1957
    140  OH         2.3800  -57.4940  -36.3030 O.3   591  TYR591     -0.2866
    141  N         -1.1350  -61.6790  -31.4560 N.am  592  SER592     -0.1938
    142  CA        -2.4790  -61.3220  -31.0350 C.3   592  SER592      0.2055
    143  C         -2.7980  -59.8680  -31.3640 C.2   592  SER592      0.2643
    144  O         -1.9130  -59.0230  -31.5130 O.2   592  SER592     -0.2714
    145  CB        -2.6590  -61.5690  -29.5370 C.3   592  SER592      0.2130
    146  OG        -1.8210  -60.7200  -28.7720 O.3   592  SER592     -0.2179
    147  N         -4.0950  -59.5950  -31.4900 N.am  593  TYR593     -0.1959
    148  CA        -4.6120  -58.2490  -31.6730 C.3   593  TYR593      0.1771
    149  C         -5.8970  -58.1180  -30.8700 C.2   593  TYR593      0.2619
    150  O         -6.5710  -59.1080  -30.5760 O.2   593  TYR593     -0.2715
    151  CB        -4.8700  -57.9270  -33.1530 C.3   593  TYR593      0.0574
    152  CG        -5.9170  -58.8010  -33.8140 C.ar  593  TYR593     -0.0198
    153  CD1       -7.2500  -58.4100  -33.8560 C.ar  593  TYR593     -0.0009
    154  CD2       -5.5710  -60.0070  -34.4100 C.ar  593  TYR593     -0.0009
    155  CE1       -8.2090  -59.1990  -34.4610 C.ar  593  TYR593      0.0417
    156  CE2       -6.5250  -60.8030  -35.0190 C.ar  593  TYR593      0.0417
    157  CZ        -7.8420  -60.3930  -35.0410 C.ar  593  TYR593      0.1957
    158  OH        -8.7970  -61.1780  -35.6440 O.3   593  TYR593     -0.2866
    159  N         -6.2320  -56.8810  -30.5110 N.am  594  VAL594     -0.1977
    160  CA        -7.4410  -56.6220  -29.7380 C.3   594  VAL594      0.1596
    161  C         -8.6380  -56.6300  -30.6770 C.2   594  VAL594      0.2287
    162  O         -8.9890  -55.6000  -31.2640 O.2   594  VAL594     -0.2864
    163  CB        -7.3450  -55.2920  -28.9720 C.3   594  VAL594      0.0276
    164  CG1       -8.4140  -55.2310  -27.8940 C.3   594  VAL594      0.0022
    165  CG2       -5.9560  -55.1250  -28.3730 C.3   594  VAL594      0.0022
    166  N         -6.4590  -59.6890  -21.7820 N.3   603  TYR603     -0.1241
    167  CA        -5.0420  -60.0030  -21.6370 C.3   603  TYR603      0.1605
    168  C         -4.6900  -60.3420  -20.1950 C.2   603  TYR603      0.2264
    169  O         -3.8110  -61.1770  -19.9520 O.2   603  TYR603     -0.2867
    170  CB        -4.1880  -58.8350  -22.1330 C.3   603  TYR603      0.0534
    171  CG        -4.1200  -58.7200  -23.6380 C.ar  603  TYR603     -0.0201
    172  CD1       -3.1430  -59.3920  -24.3590 C.ar  603  TYR603     -0.0009
    173  CD2       -5.0310  -57.9410  -24.3380 C.ar  603  TYR603     -0.0009
    174  CE1       -3.0750  -59.2920  -25.7350 C.ar  603  TYR603      0.0417
    175  CE2       -4.9710  -57.8340  -25.7160 C.ar  603  TYR603      0.0417
    176  CZ        -3.9900  -58.5120  -26.4080 C.ar  603  TYR603      0.1957
    177  OH        -3.9240  -58.4110  -27.7780 O.3   603  TYR603     -0.2866
    178  N          1.6880  -56.2780  -25.4050 N.3   638  PRO638     -0.2102
    179  CA         1.3380  -57.4910  -26.1460 C.3   638  PRO638      0.1504
    180  C          1.9690  -57.4960  -27.5330 C.2   638  PRO638      0.2576
    181  O          2.4650  -56.4840  -28.0290 O.2   638  PRO638     -0.2718
    182  CB        -0.1870  -57.4140  -26.2330 C.3   638  PRO638      0.0282
    183  CG        -0.4520  -55.9580  -26.3310 C.3   638  PRO638      0.0208
    184  CD         0.6260  -55.2600  -25.5200 C.3   638  PRO638      0.0893
    185  N          1.9500  -58.6790  -28.1480 N.am  639  ALA639     -0.1966
    186  CA         2.3240  -58.8800  -29.5470 C.3   639  ALA639      0.1728
    187  C          3.7850  -58.5440  -29.8290 C.2   639  ALA639      0.2616
    188  O          4.1570  -58.3270  -30.9850 O.2   639  ALA639     -0.2715
    189  CB         1.4100  -58.0820  -30.4830 C.3   639  ALA639      0.0334
    190  N          4.6340  -58.5070  -28.8050 N.am  640  THR640     -0.1951
    191  CA         6.0340  -58.1430  -28.9710 C.3   640  THR640      0.1897
    192  C          6.9320  -59.2040  -28.3470 C.2   640  THR640      0.2313
    193  O          6.4850  -60.0650  -27.5850 O.2   640  THR640     -0.2863
    194  CB         6.3410  -56.7740  -28.3490 C.3   640  THR640      0.1794
    195  OG1        6.1210  -56.8280  -26.9340 O.3   640  THR640     -0.2208
    196  CG2        5.4600  -55.6920  -28.9580 C.3   640  THR640      0.0378
@<TRIPOS>BOND
     1    32    33    1
     2    38    37    2
     3    36    33    1
     4    36    37    1
     5    26    25    2
     6    25    24    1
     7    33    34    1
     8    37    39   am
     9    24    23    1
    10    24    27    1
    11    46    48   ar
    12    46    45   ar
    13    34    35    2
    14    44    45    1
    15    44    41    1
    16    48    50   ar
    17    45    47   ar
    18    40    41    1
    19    41    42    1
    20    27    28    1
    21    50    49   ar
    22    47    49   ar
    23    28    29    1
    24    21    19    1
    25    17    16    1
    26    17    18    2
    27    16    19    1
    28    16    15    1
    29    42    51   am
    30    42    43    2
    31    29    31   am
    32    29    30    2
    33    19    20    1
    34    51    52    1
    35    20    22    1
    36    52    55    1
    37    52    53    1
    38     7     5    1
    39    56    53   am
    40    56    57    1
    41    53    54    2
    42    58    57    1
    43    58    59    2
    44    63    61   am
    45    57    60    1
    46   140   139    1
    47    70    69    1
    48    60    61    1
    49    64    65    1
    50   122   121    2
    51     5     6    1
    52     5     2    1
    53   158   157    1
    54    69    68    1
    55    69    71    1
    56    61    62    2
    57     1     2    1
    58   139   138   ar
    59   139   137   ar
    60   138   136   ar
    61    68    65    1
    62     2     3    1
    63   157   156   ar
    64   157   155   ar
    65   156   154   ar
    66    65    66    1
    67    85    84   ar
    68    85    83   ar
    69   121   120    1
    70    67    66    2
    71   123   120    1
    72   123   124    1
    73   137   135   ar
    74    84    82   ar
    75   155   153   ar
    76   136   134   ar
    77   154   152   ar
    78    83    81   ar
    79   129   130    1
    80   120   119    1
    81   153   152   ar
    82   152   151    1
    83    82    79   ar
    84    81    79   ar
    85    81    80   ar
    86   124   125   ar
    87   124   126   ar
    88   135   134   ar
    89   132   131    2
    90   134   133    1
    91     3     4    2
    92   125   127   ar
    93    79    77   ar
    94    80    78   ar
    95   151   148    1
    96   130   131    1
    97   130   133    1
    98   126   128   ar
    99    77    78   ar
   100    77    76    1
   101   131   141   am
   102   127   128   ar
   103    76    73    1
   104   148   147    1
   105   148   149    1
   106    14    12    1
   107   144   143    2
   108   147   143   am
   109   141   142    1
   110   143   142    1
   111   162   161    2
   112   142   145    1
   113   118   116   ar
   114   188   187    2
   115   149   150    2
   116   149   159   am
   117     9     8    1
   118     9    12    1
   119     9    10    1
   120    73    74    1
   121    73    72    1
   122   161   160    1
   123    75    74    2
   124    12    13    1
   125   159   160    1
   126   189   186    1
   127    74    86   am
   128    90    91    1
   129    90    87    1
   130   109   107   ar
   131    93    91   ar
   132    91    92   ar
   133   116   117   ar
   134   116   115    1
   135    10    11    2
   136    86    87    1
   137   187   186    1
   138   187   190   am
   139   160   163    1
   140   108   107   ar
   141   186   185    1
   142   145   146    1
   143    87    88    1
   144   107   106    1
   145   163   165    1
   146   163   164    1
   147   191   190    1
   148   191   194    1
   149   191   192    1
   150   196   194    1
   151   115   114    1
   152   194   195    1
   153   192   193    2
   154   185   180   am
   155   181   180    2
   156   100    99   ar
   157    88    89    2
   158   106   103    1
   159   101    99   ar
   160   177   176    1
   161   114   111    1
   162   180   179    1
   163    99    98    1
   164   103   102    1
   165   103   104    1
   166   102    96   am
   167   176   174   ar
   168   176   175   ar
   169   105   104    2
   170   183   182    1
   171   183   184    1
   172   111   112    1
   173   111   110    1
   174   182   179    1
   175   179   178    1
   176    96    97    2
   177    96    95    1
   178    94    95    1
   179   112   113    2
   180    98    95    1
   181   174   172   ar
   182   175   173   ar
   183   184   178    1
   184   172   171   ar
   185   173   171   ar
   186   171   170    1
   187   170   167    1
   188   166   167    1
   189   167   168    1
   190   168   169    2
